data_mof_unit_27432.cif
_audit_creation_date              2012-12-11T16:45:32-0500
_audit_creation_method            fapswitch 2.2
_symmetry_space_group_name_H-M    P1
_symmetry_Int_Tables_number       1
_space_group_crystal_system       triclinic
_cell_length_a                    8.34692
_cell_length_b                    17.300829
_cell_length_c                    18.798063
_cell_angle_alpha                 98.700246
_cell_angle_beta                  91.682113
_cell_angle_gamma                 96.116876
_cell_volume                      2665.23184917

loop_
_atom_site_label
_atom_site_type_symbol
_atom_type_description
_atom_site_fract_x
_atom_site_fract_y
_atom_site_fract_z
_atom_type_partial_charge
Ba1   Ba    Ba6+2 0.849550 0.533890 0.465080 1.628998
Ba2   Ba    Ba6+2 0.340280 0.466170 0.534930 1.640192
C1    C     C_3   0.678365 0.816750 0.279068 0.318134
C2    C     C_R   0.905682 0.418754 0.097005 0.031076
C3    C     C_R   0.749299 0.383196 0.075662 0.125998
C4    C     C_3   0.155129 0.720773 0.265548 0.557182
C5    C     C_R   0.684915 0.385356 0.005946 0.112707
C6    C     C_R   0.776992 0.424803 0.956634 0.015789
C7    C     C_R   0.936706 0.457986 0.977489 -0.037456
C8    C     C_R   0.711852 0.434675 0.888189 0.109349
C9    C     C_R   0.814452 0.459942 0.834696 -0.021391
C10   C     C_R   0.973696 0.494725 0.856471 -0.026743
C11   C     C_R   0.031545 0.495911 0.928804 -0.002170
C12   C     C_3   0.683812 0.735574 0.306148 0.394550
C13   C     C_R   0.763086 0.453727 0.760551 -0.004045
C14   C     C_R   0.870304 0.482390 0.711170 -0.276077
C15   C     C_R   0.022362 0.523711 0.732770 0.068371
C16   C     C_3   0.171774 0.776526 0.207766 -0.043561
C17   C     C_R   0.072998 0.531570 0.807316 -0.025907
C18   C     C_R   0.155080 0.493596 0.071263 0.007854
C19   C     C_R   0.215611 0.494308 0.143029 0.016209
C20   C     C_R   0.117461 0.459236 0.192547 -0.051996
C21   C     C_R   0.967891 0.418206 0.167203 -0.029146
C22   C     C_R   0.218649 0.576491 0.835023 -0.038942
C23   C     C_3   0.458090 0.333714 0.314690 0.314872
C24   C     C_R   0.275120 0.577864 0.906447 0.030596
C25   C     C_R   0.185022 0.534918 0.952622 0.019071
C26   C     C_R   0.247250 0.533104 0.023417 0.011936
C27   C     C_R   0.422420 0.621201 0.932352 -0.085103
C28   C     C_3   0.176058 0.718985 0.632622 0.369942
C29   C     C_R   0.487061 0.616633 0.000867 -0.086149
C30   C     C_R   0.401275 0.571947 0.046575 0.016436
C31   C     C_R   0.372907 0.531045 0.165408 -0.041420
C32   C     C_R   0.465446 0.567805 0.115667 -0.119575
C33   C     C_R   0.429060 0.532849 0.237870 0.020833
C34   C     C_3   0.378381 0.292386 0.243259 -0.384927
C35   C     C_R   0.325632 0.503404 0.287052 -0.293600
C36   C     C_R   0.170453 0.467439 0.266211 0.036982
C37   C     C_R   0.407171 0.718719 0.472044 -0.255304
C38   C     C_R   0.555221 0.745616 0.508520 0.102643
C39   C     C_R   0.609135 0.826180 0.520590 -0.101580
C40   C     C_3   0.090165 0.794338 0.643513 -0.072781
C41   C     C_R   0.512212 0.880157 0.498154 -0.016453
C42   C     C_R   0.358753 0.853011 0.465076 -0.133816
C43   C     C_R   0.307212 0.771971 0.451702 0.048873
C44   C     C_R   0.589848 0.164029 0.488382 -0.086399
C45   C     C_3   0.072949 0.310601 0.731858 0.388508
C46   C     C_R   0.645055 0.243780 0.492010 0.056057
C47   C     C_R   0.893155 0.224152 0.554295 -0.002180
C48   C     C_R   0.838345 0.143797 0.550638 -0.123765
C49   C     C_R   0.685007 0.113862 0.518410 0.019244
C50   C     C_1   0.625636 0.031449 0.513293 -0.001976
C51   C     C_1   0.573112 0.962696 0.507196 0.001019
C52   C     C_3   0.968190 0.292453 0.378862 0.310157
C53   C     C_R   0.794318 0.273692 0.526316 -0.279643
C54   C     C_3   0.942856 0.203219 0.359350 -0.399589
C55   C     C_3   0.709681 0.650785 0.687848 0.297680
C56   C     C_3   0.095231 0.294234 0.809294 -0.094065
C57   C     C_3   0.706643 0.684216 0.768623 0.087568
C58   C     C_3   0.590960 0.270556 0.750551 0.471240
C59   C     C_3   0.524044 0.206958 0.794766 -0.060700
C60   C     C_R   0.999394 0.456447 0.048388 -0.019625
H1    H     H_    0.960081 0.778233 0.649271 0.129994
H2    H     H_    0.943904 0.315709 0.720388 -0.126974
H3    H     H_    0.225510 0.299418 0.824702 0.123577
H4    H     H_    0.625392 0.179998 0.817194 0.058017
H5    H     H_    0.291334 0.610183 0.801394 0.090329
H6    H     H_    0.488207 0.658374 0.899345 0.062138
H7    H     H_    0.367346 0.508187 0.342761 0.070458
H8    H     H_    0.281855 0.894238 0.448327 0.082116
H9    H     H_    0.836532 0.335447 0.528836 0.057766
H10   H     H_    0.051448 0.791690 0.192736 0.068664
H11   H     H_    0.129546 0.684919 0.579793 0.066939
H12   H     H_    0.852531 0.314354 0.394047 0.015729
H13   H     H_    0.796094 0.735107 0.337859 0.096449
H14   H     H_    0.171418 0.821700 0.750491 0.205602
H15   H     H_    0.263097 0.879789 0.695291 0.188260
H16   H     H_    0.101859 0.823287 0.594687 0.085637
H17   H     H_    0.848635 0.185779 0.315200 0.131110
H18   H     H_    0.057309 0.180872 0.341419 0.118894
H19   H     H_    0.830318 0.633335 0.674762 0.008163
H20   H     H_    0.920022 0.860233 0.285064 0.190329
H21   H     H_    0.797258 0.929425 0.303602 0.163605
H22   H     H_    0.941311 0.736008 0.776615 0.209419
H23   H     H_    0.058693 0.308441 0.424613 0.063514
H24   H     H_    0.803662 0.797175 0.759903 0.203663
H25   H     H_    0.758292 0.650442 0.866037 0.199723
H26   H     H_    0.629040 0.586317 0.811043 0.175829
H27   H     H_    0.585146 0.703307 0.779605 0.086180
H28   H     H_    0.587456 0.726688 0.344353 -0.018401
H29   H     H_    0.515140 0.898112 0.276540 0.168572
H30   H     H_    0.538950 0.868621 0.355997 0.172321
H31   H     H_    0.466174 0.259695 0.211232 0.130964
H32   H     H_    0.783874 0.781882 0.182468 0.179539
H33   H     H_    0.688922 0.862608 0.183515 0.163965
H34   H     H_    0.904253 0.175724 0.406367 0.062929
H35   H     H_    0.243351 0.832906 0.231080 0.114496
H36   H     H_    0.144612 0.367729 0.728449 0.066129
H37   H     H_    0.041233 0.339168 0.846610 0.060761
H38   H     H_    0.078492 0.173395 0.787443 0.223093
H39   H     H_    0.900198 0.209880 0.799516 0.166450
H40   H     H_    0.696569 0.304146 0.782671 -0.083344
H41   H     H_    0.734638 0.199814 0.690705 0.128627
H42   H     H_    0.692537 0.278761 0.655302 0.140929
H43   H     H_    0.479181 0.108718 0.717370 0.191133
H44   H     H_    0.333899 0.169445 0.720863 0.252227
H45   H     H_    0.617867 0.598716 0.675025 0.047836
H46   H     H_    0.028501 0.614107 0.274898 0.216823
H47   H     H_    0.950935 0.659862 0.211285 0.201687
H48   H     H_    0.461032 0.234490 0.841531 0.098945
H49   H     H_    0.620784 0.287336 0.104998 0.169461
H50   H     H_    0.550020 0.375021 0.134431 0.171879
H51   H     H_    0.443010 0.367245 0.018856 0.177278
H52   H     H_    0.530284 0.284360 0.988106 0.175891
H53   H     H_    0.830247 0.476956 0.655219 0.063804
H54   H     H_    0.494087 0.464392 0.922267 0.190485
H55   H     H_    0.486643 0.374904 0.869131 0.202049
H56   H     H_    0.364032 0.362047 0.346368 0.026043
H57   H     H_    0.897137 0.386076 0.202384 0.135825
H58   H     H_    0.603352 0.648986 0.018459 0.080244
H59   H     H_    0.586279 0.595526 0.130433 0.126308
H60   H     H_    0.372954 0.682142 0.242188 0.172624
H61   H     H_    0.305673 0.659074 0.318620 0.114179
H62   H     H_    0.474905 0.140861 0.460889 0.066451
H63   H     H_    0.913875 0.105259 0.572763 0.074230
H64   H     H_    0.723904 0.846854 0.549279 0.081406
H65   H     H_    0.364788 0.656546 0.463746 0.066008
H66   H     H_    0.368446 0.745968 0.149541 0.214462
H67   H     H_    0.554368 0.379704 0.304489 0.047107
H68   H     H_    0.196212 0.684668 0.125181 0.197616
H69   H     H_    0.394068 0.767643 0.680673 0.186424
H70   H     H_    0.390966 0.684824 0.623816 0.177707
H71   H     H_    0.275042 0.249940 0.253094 0.134635
H72   H     H_    0.333622 0.335892 0.212129 0.053063
N1    N     N_3   0.152520 0.850930 0.706739 -0.503518
N2    N     N_3   0.058343 0.647144 0.234319 -0.514529
N3    N     N_3   0.653623 0.346481 0.126156 -0.515934
N4    N     N_3   0.528509 0.343996 0.984721 -0.534448
N5    N     N_3   0.540875 0.432700 0.877490 -0.472257
N6    N     N_3   0.315465 0.704534 0.287847 -0.483533
N7    N     N_3   0.243558 0.743277 0.141330 -0.510113
N8    N     N_3   0.347608 0.739325 0.630032 -0.532147
N9    N     N_3   0.815923 0.872509 0.311783 -0.511429
N10   N     N_3   0.827430 0.752472 0.789075 -0.484359
N11   N     N_3   0.735718 0.624020 0.812349 -0.526323
N12   N     N_3   0.528304 0.848467 0.300852 -0.487933
N13   N     N_3   0.681144 0.807227 0.199907 -0.468650
N14   N     N_3   0.020260 0.216348 0.818516 -0.486564
N15   N     N_3   0.641971 0.233670 0.681292 -0.468471
N16   N     N_3   0.413020 0.144574 0.752382 -0.488691
O1    O     O_2   0.878040 0.448040 0.325130 -0.459063
O2    O     O_2   0.229563 0.231360 0.553170 -0.461625
O3    O     O_3   0.127209 0.250031 0.683176 -0.598297
O4    O     O_3   0.126800 0.453980 0.414370 -0.488110
O5    O     O_3   0.569440 0.593820 0.536390 -0.486503
O6    O     O_2   0.359400 0.311980 0.465480 -0.458418
O7    O     O_3   0.526823 0.277716 0.349037 -0.647036
O8    O     O_2   0.431354 0.467469 0.753106 -0.475241
O9    O     O_3   0.470126 0.319169 0.739377 -0.574957
O10   O     O_3   0.651020 0.589120 0.368830 -0.485431
O11   O     O_2   0.760724 0.532461 0.242063 -0.486957
O12   O     O_3   0.674713 0.710256 0.649238 -0.671778
O13   O     O_3   0.022100 0.323340 0.318383 -0.644251
O14   O     O_3   0.673677 0.673611 0.247534 -0.649263
O15   O     O_2   0.830300 0.688050 0.534560 -0.475296
O16   O     O_3   0.068750 0.630380 0.404830 -0.489763
O17   O     O_2   0.977146 0.770687 0.454450 -0.495248
O18   O     O_3   0.075566 0.760842 0.323697 -0.623699
O19   O     O_2   0.311660 0.551990 0.674910 -0.477176
O20   O     O_3   0.062910 0.546080 0.585630 -0.491695
O21   O     O_3   0.538690 0.410940 0.631180 -0.449554
O22   O     O_3   0.148547 0.676540 0.689907 -0.666975
O23   O     O_3   0.620260 0.406250 0.463620 -0.472253
O24   O     O_3   0.120960 0.369680 0.595180 -0.482063
P1    P     P_3+3 0.048060 0.426210 0.336320 0.973092
P2    P     P_3+3 0.655920 0.678120 0.556130 0.966304
P3    P     P_3+3 0.108240 0.732906 0.409121 0.942083
P4    P     P_3+3 0.141640 0.573850 0.663690 0.961982
P5    P     P_3+3 0.092260 0.267866 0.595160 0.976588
P6    P     P_3+3 0.629000 0.581258 0.274928 0.916609
P7    P     P_3+3 0.538254 0.307801 0.442343 0.957142
P8    P     P_3+3 0.555303 0.412221 0.723242 0.975780

loop_
_geom_bond_atom_site_label_1
_geom_bond_atom_site_label_2
_ccdc_geom_bond_type
C15   P4    S    
O5    P2    S    
C46   C53   A    
O3    P5    S    
H39   N14   S    
C1    N13   S    
Ba2   O5    S    
H44   N16   S    
C35   H7    S    
Ba2   O19   S    
O21   P8    S    
C58   O9    S    
O13   P1    S    
C34   H71   S    
O24   P5    S    
H24   N10   S    
C5    C6    A    
Ba1   P2    S    
C42   C43   A    
O15   P2    D    
H43   N16   S    
Ba1   O23   S    
C24   C25   A    
C54   H17   S    
O4    P1    S    
O20   P4    S    
C33   C35   A    
C22   C24   A    
H46   N2    S    
Ba2   O23   S    
C21   H57   S    
C46   P7    S    
C56   N14   S    
C55   C57   S    
C19   C31   A    
H22   N10   S    
C13   C14   A    
C20   C36   A    
C13   P8    S    
C2    C60   A    
Ba1   O20   S    
C33   P6    S    
C54   H34   S    
Ba1   Ba2   S    
C57   H27   S    
Ba1   O5    S    
H68   N7    S    
C7    C11   A    
O10   P6    S    
C4    N2    S    
C22   H5    S    
C31   C33   A    
C52   H12   S    
C9    C13   A    
C34   H31   S    
C41   C51   S    
C12   H28   S    
C55   O12   S    
C14   C15   A    
H26   N11   S    
C42   H8    S    
C16   H35   S    
C52   O13   S    
C59   N16   S    
O14   P6    S    
C43   P3    S    
Ba2   O21   S    
C37   C43   A    
H54   N5    S    
C23   H67   S    
Ba2   O4    S    
C19   C20   A    
C23   H56   S    
H47   N2    S    
H70   N8    S    
C39   C41   A    
C44   H62   S    
H55   N5    S    
O7    P7    S    
C58   H40   S    
C59   H48   S    
C59   H4    S    
H14   N1    S    
C48   C49   A    
C52   C54   S    
C16   N7    S    
C16   H10   S    
C4    C16   S    
C4    O18   S    
C37   H65   S    
H30   N12   S    
C49   C50   S    
C26   C30   A    
C1    N9    S    
C45   H2    S    
C38   P2    S    
C2    C21   A    
H50   N3    S    
C6    C7    A    
C18   C26   A    
C47   C53   A    
H61   N6    S    
C7    C60   A    
C58   C59   S    
C30   C32   A    
H42   N15   S    
C41   C42   A    
C18   C60   A    
C35   C36   A    
C52   H23   S    
C27   H6    S    
C56   H3    S    
C29   C30   A    
Ba1   O15   S    
C54   H18   S    
C9    C10   A    
C31   C32   A    
H33   N13   S    
C48   H63   S    
C10   C11   A    
O11   P6    D    
O8    P8    D    
C28   O22   S    
H69   N8    S    
Ba2   O20   S    
C57   N11   S    
C38   C39   A    
O17   P3    D    
C57   N10   S    
C40   H16   S    
C32   H59   S    
O16   P3    S    
C4    N6    S    
C23   O7    S    
C1    N12   S    
C55   H19   S    
C8    N5    S    
C14   H53   S    
O19   P4    D    
C37   C38   A    
C50   C51   T    
H49   N3    S    
C3    C5    A    
H66   N7    S    
O22   P4    S    
H32   N13   S    
C28   H11   S    
Ba1   P1    S    
Ba2   O6    S    
H25   N11   S    
Ba2   P4    S    
C55   H45   S    
C20   C21   A    
C39   H64   S    
Ba1   O10   S    
C28   C40   S    
C56   H37   S    
H20   N9    S    
C34   H72   S    
C5    N4    S    
O6    P7    D    
C3    N3    S    
C1    C12   S    
C45   O3    S    
C28   N8    S    
C12   H13   S    
O2    P5    D    
C17   C22   A    
H60   N6    S    
C27   C29   A    
Ba2   O24   S    
C45   C56   S    
H21   N9    S    
C36   P1    S    
Ba1   O16   S    
H38   N14   S    
C44   C49   A    
C10   C17   A    
C15   C17   A    
Ba1   O1    S    
C58   N15   S    
H52   N4    S    
O9    P8    S    
C12   O14   S    
Ba1   O4    S    
C29   H58   S    
C8    C9    A    
H41   N15   S    
C23   C34   S    
O23   P7    S    
C44   C46   A    
O1    P1    D    
C2    C3    A    
O12   P2    S    
C18   C19   A    
C24   C27   A    
C6    C8    A    
C47   C48   A    
C25   C26   A    
C40   N1    S    
H51   N4    S    
C11   C25   A    
H15   N1    S    
C40   H1    S    
C45   H36   S    
H29   N12   S    
C53   H9    S    
O18   P3    S    
C47   P5    S    
