data_mof_unit_37848.cif
_audit_creation_date              2012-10-26T20:43:05-0400
_audit_creation_method            fapswitch 2.2
_symmetry_space_group_name_H-M    P1
_symmetry_Int_Tables_number       1
_space_group_crystal_system       triclinic
_cell_length_a                    10.825032
_cell_length_b                    9.587727
_cell_length_c                    15.041136
_cell_angle_alpha                 90.202073
_cell_angle_beta                  91.800663
_cell_angle_gamma                 89.971018
_cell_volume                      1560.30048163

loop_
_atom_site_label
_atom_site_type_symbol
_atom_type_description
_atom_site_fract_x
_atom_site_fract_y
_atom_site_fract_z
_atom_type_partial_charge
C1    C     C_R   0.262268 0.500021 0.499868 0.560231
C2    C     C_R   0.128311 0.500029 0.499875 0.031502
C3    C     C_R   0.420837 0.074032 0.444569 0.069306
C4    C     C_R   0.578992 0.925948 0.555610 0.073241
C5    C     C_R   0.578837 0.074743 0.555725 0.068406
C6    C     C_R   0.421163 0.925263 0.444296 0.070529
C7    C     C_R   0.500940 0.499749 0.329204 0.551545
C8    C     C_R   0.498239 0.500097 0.670744 0.555318
C9    C     C_R   0.594854 0.549445 0.815145 -0.092200
C10   C     C_R   0.404299 0.441077 0.186056 -0.108201
C11   C     C_R   0.493096 0.499369 0.767171 -0.014885
C12   C     C_R   0.737725 0.499981 0.500055 0.569134
C13   C     C_R   0.504559 0.497931 0.232722 -0.020191
C14   C     C_R   0.392159 0.441645 0.810197 -0.043218
C15   C     C_R   0.606819 0.548798 0.188301 -0.003661
C16   C     C_R   0.389206 0.446437 0.904808 -0.023322
C17   C     C_R   0.612654 0.530118 0.094791 0.016767
C18   C     C_R   0.499217 0.487605 0.953099 0.021481
C19   C     C_R   0.503987 0.484772 0.046825 0.015893
C20   C     C_R   0.604151 0.534334 0.907418 0.024391
C21   C     C_R   0.399750 0.437910 0.093006 0.004510
C22   C     C_R   0.282507 0.408602 0.952605 -0.021449
C23   C     C_R   0.290720 0.395836 0.046006 0.011179
C24   C     C_R   0.722386 0.555665 0.047755 -0.006664
C25   C     C_1   0.298276 0.371083 0.755443 0.217370
C26   C     C_1   0.698270 0.629703 0.238986 0.259142
C27   C     C_2   0.158983 0.395061 0.907035 0.230626
C28   C     C_2   0.846362 0.553441 0.093599 0.238315
C29   C     C_2   0.181327 0.345712 0.094123 0.291007
C30   C     C_2   0.832642 0.591179 0.906088 0.217666
C31   C     C_1   0.334668 0.147430 0.386472 0.254636
C32   C     C_1   0.664266 0.852557 0.614497 0.248296
C33   C     C_1   0.662316 0.149110 0.615824 0.249571
C34   C     C_R   0.716906 0.563135 0.954194 0.000518
C35   C     C_1   0.337639 0.850933 0.384219 0.256361
C36   C     C_R   0.064022 0.373329 0.501734 -0.091265
C37   C     C_R   0.935947 0.626680 0.498019 -0.096051
C38   C     C_R   0.936251 0.373300 0.501710 -0.097005
C39   C     C_R   0.063725 0.626707 0.498064 -0.110866
C40   C     C_R   0.871668 0.499977 0.499929 0.039061
Cu1   Cu    Cu3+1 0.500000 0.640660 0.500000 1.005573
Cu2   Cu    Cu3+1 0.500000 0.359340 0.500000 1.015373
H1    H     H_    0.669402 0.594041 0.778482 0.185881
H2    H     H_    0.892548 0.676687 0.926862 0.098200
H3    H     H_    0.326550 0.408095 0.224072 0.178718
H4    H     H_    0.112130 0.274246 0.503369 0.153959
H5    H     H_    0.887830 0.725761 0.496409 0.153951
H6    H     H_    0.888391 0.274197 0.503144 0.147963
H7    H     H_    0.111589 0.725809 0.496652 0.147380
H8    H     H_    0.127130 0.475533 0.861203 0.145015
H9    H     H_    0.916630 0.628737 0.076993 0.092219
H10   H     H_    0.092098 0.394896 0.082628 0.166109
N1    N     N_R   0.500000 0.852070 0.500000 -0.267298
N2    N     N_R   0.500000 0.147930 0.500000 -0.268212
N3    N     N_1   0.224193 0.314762 0.711271 -0.252296
N4    N     N_1   0.770549 0.694363 0.279770 -0.261197
N5    N     N_1   0.264605 0.204876 0.339879 -0.242819
N6    N     N_1   0.733445 0.795235 0.661877 -0.295105
N7    N     N_1   0.729505 0.207632 0.664337 -0.241679
N8    N     N_1   0.270402 0.792453 0.335722 -0.274807
O1    O     O_R   0.319640 0.618740 0.499990 -0.510073
O2    O     O_2   0.872290 0.462995 0.148064 -0.472656
O3    O     O_2   0.189423 0.245070 0.143453 -0.444259
O4    O     O_2   0.864277 0.515301 0.845508 -0.466969
O5    O     O_R   0.680360 0.381260 0.500010 -0.507510
O6    O     O_R   0.680360 0.618740 0.500010 -0.500002
O7    O     O_R   0.319640 0.381260 0.499990 -0.503421
O8    O     O_R   0.499970 0.618800 0.370260 -0.491706
O9    O     O_R   0.500030 0.381200 0.629740 -0.483974
O10   O     O_R   0.500030 0.618800 0.629740 -0.500996
O11   O     O_R   0.499970 0.381200 0.370260 -0.491671
O12   O     O_2   0.093833 0.293106 0.918444 -0.430715

loop_
_geom_bond_atom_site_label_1
_geom_bond_atom_site_label_2
_ccdc_geom_bond_type
C12   C40   S    
Cu2   O5    S    
C38   C40   A    
C29   O3    D    
C36   H4    S    
Cu1   O6    S    
Cu1   O1    S    
C4    N1    A    
C37   H5    S    
Cu1   Cu2   S    
C9    C20   A    
C8    O10   A    
C28   H9    S    
C27   H8    S    
C32   N6    T    
C30   H2    S    
C3    C6    A    
C20   C34   A    
C31   N5    T    
C10   H3    S    
C36   C38   A    
C8    O9    A    
C37   C39   A    
C14   C25   S    
Cu2   N2    S    
C3    C31   S    
C9    C11   A    
Cu1   N1    S    
C30   O4    D    
C4    C32   S    
C13   C15   A    
C26   N4    T    
C8    C11   S    
C4    C5    A    
C23   C29   S    
C16   C18   A    
Cu2   O11   S    
C1    O7    A    
C38   H6    S    
C1    C2    S    
Cu1   O8    S    
C18   C20   A    
C22   C27   S    
C21   C23   A    
C10   C21   A    
C7    O11   A    
Cu2   O7    S    
C3    N2    A    
C14   C16   A    
C39   H7    S    
C9    H1    S    
C17   C24   A    
C30   C34   S    
C6    N1    A    
C37   C40   A    
C5    C33   S    
C24   C28   S    
C5    N2    A    
C7    C13   S    
C6    C35   S    
C33   N7    T    
C18   C19   A    
C12   O5    A    
C2    C36   A    
C11   C14   A    
C15   C17   A    
C22   C23   A    
C35   N8    T    
C15   C26   S    
C16   C22   A    
C17   C19   A    
C7    O8    A    
C12   O6    A    
C2    C39   A    
C29   H10   S    
Cu2   O9    S    
C24   C34   A    
C27   O12   D    
C25   N3    T    
C1    O1    A    
Cu1   O10   S    
C19   C21   A    
C10   C13   A    
C28   O2    D    
