data_mof_unit_27957.cif
_audit_creation_date              2012-12-10T19:03:07-0500
_audit_creation_method            fapswitch 2.2
_symmetry_space_group_name_H-M    P1
_symmetry_Int_Tables_number       1
_space_group_crystal_system       triclinic
_cell_length_a                    10.74042
_cell_length_b                    10.855772
_cell_length_c                    9.544098
_cell_angle_alpha                 89.997479
_cell_angle_beta                  89.805434
_cell_angle_gamma                 90.011378
_cell_volume                      1112.79292307

loop_
_atom_site_label
_atom_site_type_symbol
_atom_type_description
_atom_site_fract_x
_atom_site_fract_y
_atom_site_fract_z
_atom_type_partial_charge
C1    C     C_R   0.500125 0.262715 0.499845 0.816774
C2    C     C_3   0.878199 0.499165 0.499421 0.144201
C3    C     C_3   0.928460 0.614619 0.576329 -0.386279
C4    C     C_3   0.929418 0.500223 0.347166 -0.385616
C5    C     C_R   0.494512 0.062014 0.620771 0.140761
C6    C     C_R   0.501533 0.130106 0.498128 -0.093575
C7    C     C_R   0.510206 0.064604 0.370652 -0.208320
C8    C     C_R   0.510494 0.935398 0.370678 -0.219968
C9    C     C_R   0.502034 0.869901 0.498182 -0.110059
C10   C     C_R   0.494942 0.938019 0.620831 0.132854
C11   C     C_3   0.481422 0.929144 0.775893 -0.472472
C12   C     C_R   0.259951 0.499827 0.500026 0.766968
C13   C     C_3   0.480816 0.071034 0.775769 -0.476159
C14   C     C_R   0.560216 0.590784 0.073344 0.262713
C15   C     C_R   0.430648 0.417714 0.074719 -0.087095
C16   C     C_R   0.430618 0.417726 0.925796 -0.087113
C17   C     C_R   0.560141 0.590818 0.925891 0.265964
C18   C     C_3   0.695628 0.619696 0.919149 -0.516131
C19   C     C_3   0.695907 0.618929 0.077876 -0.520134
C20   C     C_R   0.500439 0.737286 0.499833 0.802611
C21   C     C_R   0.740198 0.500092 0.499730 0.761003
C22   C     C_3   0.070915 0.382492 0.579434 -0.138930
C23   C     C_3   0.926567 0.381746 0.574268 -0.404104
C24   C     C_3   0.072120 0.615144 0.573951 -0.406769
C25   C     C_3   0.071758 0.497591 0.347032 -0.365537
C26   C     C_3   0.121930 0.497757 0.499785 0.112025
Cu1   Cu    Cu3+1 0.499990 0.499980 0.640670 0.932757
Cu2   Cu    Cu3+1 0.500010 0.500020 0.359330 0.934355
H1    H     H_    0.100020 0.388236 0.691064 0.126014
H2    H     H_    0.897998 0.585290 0.292762 0.168462
H3    H     H_    0.105958 0.698932 0.518409 0.165904
H4    H     H_    0.892826 0.699745 0.525302 0.156353
H5    H     H_    0.516466 0.112401 0.271274 0.163743
H6    H     H_    0.516976 0.887591 0.271317 0.163887
H7    H     H_    0.390924 0.887859 0.807638 0.200543
H8    H     H_    0.565018 0.888679 0.826353 0.191135
H9    H     H_    0.389860 0.111439 0.807246 0.195432
H10   H     H_    0.564000 0.112550 0.826146 0.198265
H11   H     H_    0.376397 0.349594 0.130785 0.141698
H12   H     H_    0.376280 0.349702 0.870150 0.135825
H13   H     H_    0.751709 0.543457 0.873665 0.213977
H14   H     H_    0.714016 0.712111 0.873493 0.184905
H15   H     H_    0.750963 0.541341 0.120929 0.213025
H16   H     H_    0.715226 0.710675 0.124697 0.189406
H17   H     H_    0.890475 0.298757 0.518910 0.156784
H18   H     H_    0.889498 0.377801 0.683251 0.155521
H19   H     H_    0.107383 0.619921 0.683331 0.171787
H20   H     H_    0.895494 0.615543 0.686858 0.169183
H21   H     H_    0.107205 0.579534 0.289120 0.172363
H22   H     H_    0.104702 0.414442 0.289679 0.175546
H23   H     H_    0.893853 0.419295 0.287809 0.168966
N1    N     N_R   0.500800 0.500930 0.147930 -0.185681
N2    N     N_R   0.500800 0.500890 0.852020 -0.184975
O1    O     O_R   0.500000 0.319640 0.618810 -0.582874
O2    O     O_R   0.500010 0.319680 0.381230 -0.587434
O3    O     O_R   0.317690 0.499960 0.618790 -0.592256
O4    O     O_R   0.317700 0.500000 0.381210 -0.586189
O5    O     O_R   0.499990 0.680320 0.618770 -0.578768
O6    O     O_R   0.500000 0.680360 0.381190 -0.585546
O7    O     O_R   0.682300 0.500000 0.618790 -0.589088
O8    O     O_R   0.682310 0.500040 0.381210 -0.588994
C27   C     C_1   0.122143 0.266001 0.523527 0.191616
N3    N     N_1   0.162472 0.174892 0.479836 -0.303261

loop_
_geom_bond_atom_site_label_1
_geom_bond_atom_site_label_2
_ccdc_geom_bond_type
C2    C4    S    
C1    O1    A    
Cu1   N2    S    
C6    C7    A    
C23   H17   S    
C22   H1    S    
C22   C27   S    
C11   C13   S    
C9    C10   A    
C9    C20   S    
C21   O8    A    
C5    C13   S    
Cu2   O8    S    
Cu1   O3    S    
C2    C21   S    
C11   H7    S    
C4    C25   S    
C3    C24   S    
Cu1   O1    S    
C4    H2    S    
C7    C8    A    
C23   H18   S    
C8    H6    S    
C15   N1    A    
C20   O6    A    
Cu2   N1    S    
C14   C17   A    
C15   H11   S    
C13   H10   S    
C12   O3    A    
C16   H12   S    
C5    C6    A    
C12   O4    A    
C11   H8    S    
Cu2   O2    S    
C19   H15   S    
C17   C18   S    
C2    C3    S    
Cu1   O7    S    
C18   H14   S    
C1    O2    A    
C3    H4    S    
C24   C26   S    
C25   H21   S    
C24   H3    S    
C10   C11   S    
C7    H5    S    
C4    H23   S    
C20   O5    A    
C15   C16   A    
C17   N2    A    
C3    H20   S    
C5    C10   A    
C19   H16   S    
Cu2   O4    S    
C21   O7    A    
C18   C19   S    
C22   C26   S    
Cu2   O6    S    
C2    C23   S    
C16   N2    A    
C1    C6    S    
C25   C26   S    
C25   H22   S    
C24   H19   S    
C13   H9    S    
C14   C19   S    
C22   C23   S    
C14   N1    A    
C27   N3    T    
C18   H13   S    
C12   C26   S    
C8    C9    A    
Cu1   Cu2   S    
Cu1   O5    S    
