data_mof_unit_67273.cif
_audit_creation_date              2013-03-05T16:01:57-0500
_audit_creation_method            fapswitch 2.2
_symmetry_space_group_name_H-M    P1
_symmetry_Int_Tables_number       1
_space_group_crystal_system       triclinic
_cell_length_a                    8.236209
_cell_length_b                    14.587639
_cell_length_c                    14.988759
_cell_angle_alpha                 95.909686
_cell_angle_beta                  97.342346
_cell_angle_gamma                 93.059422
_cell_volume                      1772.54878524

loop_
_atom_site_label
_atom_site_type_symbol
_atom_site_description
_atom_site_fract_x
_atom_site_fract_y
_atom_site_fract_z
_atom_type_partial_charge
P1    P     P_3+3 0.018620 0.416870 0.295980 0.502267
O1    O     O_2   0.841250 0.444240 0.280450 -0.354355
O2    O     O_3   0.112870 0.447390 0.393710 -0.357910
O3    O     O_3   0.597960 0.615760 0.327700 -0.375899
O4    O     O_2   0.698556 0.545965 0.174258 -0.407640
O5    O     O_3   0.988648 0.296295 0.269902 -0.644772
O6    O     O_3   0.608019 0.715001 0.178438 -0.522201
H1    H     H_    0.615909 0.825311 0.276258 0.169860
C1    C     C_3   0.434782 0.838924 0.162379 -0.588363
H2    H     H_    0.521426 0.875238 0.125281 0.318123
H3    H     H_    0.346299 0.794626 0.111811 0.239827
P2    P     P_3+3 0.635650 0.716500 0.560900 0.527705
P3    P     P_3+3 0.037376 0.782421 0.362752 0.574588
O7    O     O_2   0.802240 0.729720 0.532850 -0.324324
O8    O     O_3   0.017190 0.664840 0.371090 -0.362601
O9    O     O_2   0.915463 0.827550 0.421381 -0.315384
O10   O     O_3   0.675362 0.742527 0.678682 -0.537216
O11   O     O_3   0.960820 0.801707 0.252195 -0.459063
C2    C     C_3   0.021782 0.736768 0.191123 0.245946
H4    H     H_    0.985265 0.665134 0.203239 0.073742
H5    H     H_    0.157160 0.745168 0.199145 -0.038107
C3    C     C_3   0.953053 0.748123 0.093028 0.193695
H6    H     H_    0.826670 0.715493 0.076677 0.112507
C4    C     C_3   0.143202 0.764945 0.718036 0.582284
H7    H     H_    0.029474 0.742536 0.743348 -0.026638
C5    C     C_3   0.224197 0.849747 0.781298 0.099584
H8    H     H_    0.322904 0.884540 0.750281 0.106781
H9    H     H_    0.130118 0.897310 0.794582 0.205417
Ba1   Ba    Ba6+2 0.833410 0.543320 0.453520 1.659784
C6    C     C_3   0.121548 0.251236 0.309019 0.550912
H10   H     H_    0.234570 0.298173 0.323987 0.056209
C7    C     C_3   0.163134 0.170483 0.242926 -0.095132
H11   H     H_    0.229075 0.199167 0.191278 0.173940
H12   H     H_    0.247964 0.125355 0.278472 0.140885
C8    C     C_3   0.720652 0.662785 0.718186 0.441999
H13   H     H_    0.829318 0.635893 0.690636 0.029232
H14   H     H_    0.621108 0.607475 0.703304 0.146632
C9    C     C_3   0.757540 0.685530 0.820896 -0.855299
H15   H     H_    0.747492 0.760074 0.840437 0.333220
H16   H     H_    0.883491 0.668858 0.846224 0.212142
H17   H     H_    0.670423 0.645296 0.855084 0.233333
P4    P     P_3+3 0.171070 0.583210 0.704020 0.515092
O12   O     O_2   0.348460 0.555790 0.719610 -0.348467
O13   O     O_3   0.076820 0.552690 0.606290 -0.349365
O14   O     O_3   0.591740 0.384320 0.672310 -0.423039
O15   O     O_3   0.255690 0.697628 0.718620 -0.543799
P5    P     P_3+3 0.143170 0.221308 0.651254 0.609975
O16   O     O_3   0.629090 0.386360 0.459240 -0.350633
O17   O     O_3   0.172500 0.335240 0.628910 -0.343739
O18   O     O_2   0.268280 0.167980 0.600738 -0.336869
O19   O     O_3   0.210045 0.217729 0.767050 -0.483678
Ba2   Ba    Ba6+2 0.356410 0.456750 0.546480 1.661931
P6    P     P_3+3 0.565603 0.605229 0.209986 0.455398
C10   C     C_3   0.524695 0.780308 0.227724 0.318895
H18   H     H_    0.433085 0.750356 0.266945 0.002481
H19   H     H_    0.369213 0.890477 0.201191 0.233442
O20   O     O_3   0.560600 0.613720 0.540760 -0.398219
C11   C     C_3   0.654797 0.226973 0.284459 0.120036
H20   H     H_    0.703439 0.298081 0.282122 0.159782
H21   H     H_    0.746844 0.186992 0.322164 0.155260
C12   C     C_3   0.613922 0.181408 0.187589 -0.014450
H22   H     H_    0.530291 0.224428 0.148999 0.173260
H23   H     H_    0.726802 0.178433 0.155047 0.153044
P7    P     P_3+3 0.563165 0.267545 0.438985 0.464765
O21   O     O_2   0.387470 0.270310 0.467210 -0.335419
O22   O     O_3   0.511460 0.231485 0.324066 -0.613381
H24   H     H_    0.028664 0.710817 0.047098 0.053064
C13   C     C_3   0.140623 0.288840 0.817465 0.330282
H25   H     H_    0.212771 0.355179 0.817394 0.133300
H26   H     H_    0.011928 0.296890 0.788106 -0.074870
C14   C     C_3   0.134034 0.266765 0.915109 0.229346
H27   H     H_    0.040743 0.307547 0.944837 0.024124
H28   H     H_    0.095895 0.193388 0.917123 0.180051
P8    P     P_3+3 0.627176 0.396619 0.790048 0.457418
C15   C     C_3   0.612985 0.219198 0.764416 0.444396
H29   H     H_    0.743634 0.224158 0.753638 0.026070
O23   O     O_2   0.496441 0.458669 0.822649 -0.366632
O24   O     O_3   0.582597 0.290372 0.829349 -0.456547
H30   H     H_    0.534513 0.222391 0.699137 0.131170
H31   H     H_    0.591164 0.069825 0.744160 0.186077
C16   C     C_3   0.572973 0.126109 0.796858 -0.724964
H32   H     H_    0.443506 0.119626 0.809481 0.298542
H33   H     H_    0.653327 0.118344 0.860610 0.267354
C17   C     C_R   0.356165 0.554589 0.167853 0.186364
H34   H     H_    0.328615 0.519770 0.301281 0.170189
H35   H     H_    0.487797 0.622811 0.029532 0.175131
C18   C     C_R   0.115757 0.473684 0.208126 0.279115
C19   C     C_R   0.926551 0.482292 0.769915 -0.504162
C20   C     C_R   0.831678 0.451379 0.832403 0.254970
C21   C     C_R   0.890199 0.463579 0.924689 -0.332283
C22   C     C_R   0.050008 0.504020 0.956303 0.048713
C23   C     C_R   0.142574 0.540713 0.891308 -0.014656
C24   C     C_R   0.121133 0.508349 0.049949 0.070081
C25   C     C_R   0.281909 0.551623 0.076765 -0.006256
C26   C     C_R   0.365901 0.589679 0.012024 -0.146389
C27   C     C_R   0.297944 0.583971 0.921826 0.060323
C28   C     C_R   0.041336 0.468192 0.117418 -0.232315
C29   C     C_R   0.271031 0.517437 0.231976 -0.451084
C30   C     C_R   0.077421 0.531249 0.797172 0.137098
H36   H     H_    0.923260 0.430669 0.101476 0.151735
H37   H     H_    0.877983 0.471947 0.698796 0.164358
H38   H     H_    0.809647 0.439027 0.969581 0.158614
H39   H     H_    0.370463 0.613849 0.876122 0.190948
C31   C     C_R   0.699033 0.940335 0.553129 -0.041886
C32   C     C_R   0.510131 0.800844 0.497794 0.206531
C33   C     C_R   0.359800 0.766624 0.447219 -0.359038
C34   C     C_R   0.249579 0.825925 0.407308 0.245027
C35   C     C_R   0.295442 0.919142 0.409183 -0.255808
C36   C     C_R   0.446902 0.955875 0.455583 0.085224
C37   C     C_R   0.553773 0.898200 0.502663 -0.059903
H40   H     H_    0.324064 0.693725 0.443370 0.175052
C38   C     C_R   0.634028 0.092390 0.507955 -0.047147
C39   C     C_R   0.736207 0.037168 0.561112 -0.123157
C40   C     C_R   0.677817 0.188317 0.509827 0.171432
C41   C     C_R   0.822118 0.226336 0.562559 -0.430989
C42   C     C_R   0.929364 0.171722 0.609527 0.156174
C43   C     C_R   0.876314 0.080082 0.618530 0.400925
C44   C     C_R   0.489777 0.050551 0.456435 -0.020512
H41   H     H_    0.210349 0.963501 0.376568 0.198753
H42   H     H_    0.854814 0.299350 0.564060 0.196150
H43   H     H_    0.787079 0.896823 0.582163 0.238042
H44   H     H_    0.407382 0.091568 0.417917 0.160379
S1    S     S_3+6 0.307001 0.826755 0.891644 -0.016479
O25   O     O_2   0.185797 0.765643 0.928428 -0.308247
O26   O     O_2   0.465620 0.781306 0.889440 -0.313439
O27   O     O_3   0.341142 0.927110 0.959124 -0.404596
H45   H     H_    0.420163 0.964483 0.930799 0.361779
N1    N     N_R   0.079457 0.220782 0.393239 0.224345
O28   O     O_R   0.080595 0.134973 0.409885 -0.428095
O29   O     O_R   0.047337 0.283226 0.455114 -0.377041
N2    N     N_R   0.018076 0.114746 0.198176 0.279458
O30   O     O_R   0.982610 0.109322 0.110579 -0.319134
O31   O     O_R   0.942088 0.058011 0.242754 -0.280122
N3    N     N_R   0.537665 0.088415 0.184965 0.275852
O32   O     O_R   0.407285 0.061839 0.127749 -0.305533
O33   O     O_R   0.602493 0.030542 0.237353 -0.367561
S2    S     S_3+6 0.323290 0.290522 0.988041 -0.021737
O34   O     O_2   0.285324 0.304137 0.083531 -0.365810
O35   O     O_2   0.427999 0.210014 0.976838 -0.252282
O36   O     O_3   0.424839 0.386781 0.967374 -0.504360
H46   H     H_    0.520816 0.396538 0.015214 0.361923
S3    S     S_3+6 0.958163 0.033934 0.717836 -0.064854
O37   O     O_2   0.139055 0.027573 0.716283 -0.253727
O38   O     O_2   0.935399 0.100218 0.797525 -0.383588
O39   O     O_3   0.867891 0.931366 0.732931 -0.567657
H47   H     H_    0.771035 0.945970 0.763303 0.363144
S4    S     S_3+6 0.948494 0.866432 0.070702 0.111453
O40   O     O_2   0.812538 0.909896 0.113739 -0.181142
O41   O     O_2   0.108415 0.918512 0.108603 -0.188502
O42   O     O_3   0.914446 0.872433 0.958652 -0.489428
H48   H     H_    0.923298 0.939263 0.951775 0.404297
N4    N     N_R   0.107945 0.787240 0.624806 0.211604
O43   O     O_R   0.102365 0.872030 0.605939 -0.390686
O44   O     O_R   0.117164 0.723192 0.559180 -0.351771

loop_
_geom_bond_atom_site_label_1
_geom_bond_atom_site_label_2
_geom_bond_distance
_ccdc_geom_bond_type
P1    C18   1.866602 S    
C38   C44   1.404075 A    
C32   C37   1.438377 A    
C24   C25   1.426889 A    
P2    Ba1   3.449284 S    
C26   C27   1.387965 A    
S3    O39   1.684239 S    
P3    C34   1.843734 S    
N1    O28   1.301603 A    
C38   C40   1.422853 A    
C16   H32   1.107371 S    
S1    O25   1.497379 D    
C14   S2    1.781457 S    
C42   C43   1.409263 A    
S2    O35   1.501915 D    
C5    H8    1.111667 S    
O27   H45   0.990692 S    
P3    O11   1.752310 S    
P6    C17   1.846490 S    
P8    C20   1.832142 S    
O4    P6    1.545597 D    
C2    H5    1.104905 S    
C4    C5    1.543738 S    
O11   C2    1.406099 S    
C44   H44   1.079904 S    
C6    H10   1.110234 S    
O3    P6    1.739916 S    
O12   Ba2   2.847307 S    
S1    O26   1.498788 D    
C33   C34   1.407793 A    
C11   H21   1.113487 S    
C41   C42   1.393626 A    
C23   C27   1.396331 A    
C35   C36   1.398971 A    
O2    Ba1   2.944934 S    
P1    O1    1.530418 D    
P4    O15   1.755316 S    
C12   H23   1.104535 S    
C21   H38   1.076839 S    
H34   C29   1.081783 S    
C4    N4    1.463819 S    
S4    O40   1.499388 D    
C11   O22   1.389192 S    
C2    H4    1.111254 S    
P4    O12   1.530865 D    
C13   H25   1.108416 S    
P8    O23   1.537841 D    
P2    O10   1.751833 S    
C36   C44   1.405513 A    
C34   C35   1.388231 A    
C6    C7    1.541377 S    
C1    H2    1.104889 S    
O3    Ba1   2.850993 S    
C18   C29   1.385540 A    
C19   C20   1.388386 A    
O13   Ba2   2.945910 S    
C11   C12   1.521766 S    
C35   H41   1.083908 S    
C12   H22   1.105391 S    
P4    O13   1.576313 S    
C38   C39   1.423070 A    
C16   H33   1.110211 S    
C12   N3    1.458768 S    
O8    Ba1   2.757295 S    
P5    O18   1.550476 D    
C33   H40   1.081870 S    
C3    H6    1.108166 S    
P5    C42   1.872094 S    
S2    O36   1.672624 S    
C6    N1    1.456709 S    
S4    O41   1.499282 D    
P7    C40   1.862218 S    
Ba1   O16   2.783497 S    
P1    O5    1.759220 S    
C2    C3    1.535305 S    
C9    H15   1.106949 S    
C4    H7    1.100858 S    
C9    H17   1.110343 S    
P5    O17   1.739307 S    
H35   C26   1.079424 S    
H1    C10   1.110810 S    
C22   C23   1.438915 A    
C14   H28   1.103862 S    
C15   C16   1.522586 S    
S1    O27   1.680371 S    
P5    O19   1.759512 S    
C31   H43   1.069331 S    
O14   Ba2   2.850407 S    
C11   H20   1.097466 S    
O14   P8    1.740482 S    
P1    O2    1.576313 S    
C8    H13   1.106354 S    
C7    H12   1.109764 S    
C15   H29   1.108042 S    
C22   C24   1.443941 A    
O17   Ba2   2.757812 S    
C8    C9    1.528702 S    
P1    Ba1   3.410200 S    
C1    H19   1.108690 S    
C17   C25   1.418292 A    
O36   H46   0.990649 S    
C1    H3    1.109437 S    
C39   C43   1.422078 A    
P2    O20   1.575229 S    
O5    C6    1.402168 S    
Ba1   O20   2.921290 S    
O1    Ba1   2.846622 S    
Ba1   O13   2.830920 S    
S3    O38   1.495176 D    
C27   H39   1.074370 S    
C5    S1    1.778624 S    
O6    P6    1.745942 S    
O7    Ba1   2.891405 S    
N2    O30   1.301372 A    
C24   C28   1.431284 A    
S4    O42   1.679134 S    
C28   H36   1.076713 S    
C31   C37   1.405625 A    
C32   C33   1.404662 A    
C10   H18   1.112151 S    
C8    H14   1.103862 S    
S3    O37   1.500678 D    
C19   H37   1.081928 S    
O39   H47   0.989945 S    
N4    O44   1.297576 A    
H31   C16   1.109183 S    
N2    O31   1.299465 A    
N1    O29   1.293958 A    
N3    O33   1.300717 A    
O2    Ba2   2.831575 S    
C40   C41   1.394306 A    
N3    O32   1.300233 A    
C1    C10   1.514427 S    
S2    O34   1.499417 D    
C5    H9    1.090794 S    
C4    O15   1.385483 S    
C7    H11   1.104191 S    
P3    O8    1.733294 S    
C43   S3    1.766778 S    
P2    O7    1.494132 D    
C17   C29   1.395734 A    
C14   H27   1.106601 S    
C36   C37   1.422374 A    
P7    O21   1.560059 D    
C9    H16   1.106653 S    
C21   C22   1.416027 A    
P2    C32   1.898092 S    
C13   C14   1.537591 S    
O19   C13   1.409372 S    
C25   C26   1.403523 A    
C15   O24   1.403485 S    
C3    H24   1.107472 S    
C19   C30   1.391554 A    
O16   P7    1.772035 S    
Ba2   O20   2.783010 S    
C31   C39   1.418822 A    
O16   Ba2   2.920334 S    
C3    S4    1.792921 S    
C13   H26   1.111604 S    
C41   H42   1.081838 S    
P8    O24   1.751149 S    
P3    O9    1.546229 D    
P4    Ba2   3.410877 S    
O42   H48   0.990657 S    
N4    O43   1.298742 A    
O10   C8    1.405198 S    
O6    C10   1.406676 S    
C20   C21   1.395382 A    
P4    C30   1.884072 S    
C15   H30   1.108250 S    
C7    N2    1.455189 S    
Ba2   O21   2.891463 S    
C23   C30   1.433988 A    
P7    O22   1.739854 S    
C18   C28   1.410651 A    
Ba1   Ba2   4.494728 S    
