data_mof_unit_17967.cif
_audit_creation_date              2012-12-10T16:36:37-0500
_audit_creation_method            fapswitch 2.2
_symmetry_space_group_name_H-M    P1
_symmetry_Int_Tables_number       1
_space_group_crystal_system       triclinic
_cell_length_a                    14.192432
_cell_length_b                    16.552974
_cell_length_c                    15.057617
_cell_angle_alpha                 89.95543
_cell_angle_beta                  91.913426
_cell_angle_gamma                 90.182682
_cell_volume                      3535.44897819

loop_
_atom_site_label
_atom_site_type_symbol
_atom_type_description
_atom_site_fract_x
_atom_site_fract_y
_atom_site_fract_z
_atom_type_partial_charge
C1    C     C_R   0.680108 0.845607 0.520163 0.509117
C2    C     C_R   0.965244 0.526603 0.110095 -0.114201
C3    C     C_R   0.616986 0.035130 0.123771 0.007193
C4    C     C_R   0.097160 0.433017 0.127624 -0.003508
C5    C     C_R   0.626444 0.018162 0.032212 0.020669
C6    C     C_R   0.098367 0.423620 0.033609 0.013030
C7    C     C_2   0.247557 0.220693 0.473073 -0.026328
C8    C     C_2   0.239611 0.786811 0.485091 -0.020508
C9    C     C_2   0.741046 0.714864 0.482025 -0.021246
C10   C     C_2   0.748306 0.278427 0.472927 -0.023962
C11   C     C_2   0.753823 0.786330 0.527200 0.000392
C12   C     C_R   0.680377 0.153780 0.521756 0.504204
C13   C     C_2   0.751624 0.215062 0.531845 0.001339
C14   C     C_2   0.250974 0.284426 0.531472 -0.003412
C15   C     C_2   0.254782 0.713185 0.524771 0.000885
C16   C     C_R   0.319497 0.156358 0.480502 0.510136
C17   C     C_R   0.318023 0.845191 0.482735 0.512364
C18   C     C_R   0.818263 0.655180 0.482207 0.511895
C19   C     C_R   0.819724 0.343412 0.480374 0.509658
C20   C     C_R   0.521115 0.004528 0.260452 0.495996
C21   C     C_R   0.020946 0.496731 0.260721 0.493009
C22   C     C_R   0.476973 0.999837 0.738005 0.492894
C23   C     C_R   0.179900 0.345655 0.521006 0.503774
C24   C     C_R   0.976136 0.500165 0.738318 0.491920
C25   C     C_R   0.530741 0.013106 0.163522 0.000389
C26   C     C_R   0.029749 0.485594 0.164626 -0.008707
C27   C     C_R   0.465704 0.999410 0.832856 0.002505
C28   C     C_R   0.963521 0.501796 0.833832 0.002169
C29   C     C_R   0.370555 0.992604 0.963046 0.235896
C30   C     C_R   0.896813 0.560379 0.965620 0.242431
C31   C     C_R   0.376969 0.988396 0.870155 0.033109
C32   C     C_R   0.893131 0.549399 0.872226 -0.003238
C33   C     C_R   0.546597 0.010307 0.885637 -0.160058
C34   C     C_R   0.180151 0.654418 0.519707 0.510158
C35   C     C_R   0.028455 0.459226 0.886520 -0.162425
C36   C     C_3   0.695153 0.081298 0.175072 -0.242642
C37   C     C_3   0.720721 0.161626 0.129703 -0.318113
C38   C     C_3   0.804419 0.202720 0.177662 -0.461221
C39   C     C_3   0.165208 0.385631 0.188200 -0.236021
C40   C     C_3   0.258184 0.432414 0.202663 -0.274068
C41   C     C_3   0.326021 0.387831 0.265693 -0.456195
C42   C     C_3   0.723915 0.005854 0.993683 -0.259028
C43   C     C_3   0.737724 0.917722 0.964600 -0.295154
C44   C     C_3   0.831616 0.906606 0.919628 -0.456344
C45   C     C_R   0.543113 0.009290 0.978143 0.002856
C46   C     C_3   0.168012 0.365661 0.991805 -0.252193
C47   C     C_3   0.120353 0.283946 0.972322 -0.298251
C48   C     C_3   0.188576 0.224196 0.932613 -0.458089
C49   C     C_3   0.289227 0.973369 0.811453 -0.223508
C50   C     C_3   0.253228 0.051468 0.767199 -0.303538
C51   C     C_3   0.159275 0.037915 0.717077 -0.468163
C52   C     C_3   0.810176 0.581325 0.815559 -0.247051
C53   C     C_3   0.718537 0.538055 0.839310 -0.303408
C54   C     C_3   0.635893 0.566472 0.780408 -0.468823
C55   C     C_3   0.645024 0.697673 0.433940 -0.263834
C56   C     C_R   0.030689 0.466073 0.979281 -0.010876
C57   C     C_3   0.629878 0.614491 0.390019 -0.290316
C58   C     C_3   0.528443 0.603859 0.354758 -0.472597
C59   C     C_3   0.668125 0.280032 0.400850 -0.265981
C60   C     C_3   0.662223 0.351715 0.336113 -0.284497
C61   C     C_3   0.577888 0.342166 0.271563 -0.480852
C62   C     C_3   0.166847 0.218014 0.401352 -0.264037
C63   C     C_3   0.160895 0.146223 0.336714 -0.283828
C64   C     C_3   0.075984 0.154210 0.272225 -0.483056
C65   C     C_3   0.140229 0.808401 0.447420 -0.262891
C66   C     C_3   0.125299 0.893691 0.408739 -0.293973
C67   C     C_R   0.454135 0.000840 0.017232 0.006138
C68   C     C_3   0.021552 0.909162 0.384582 -0.470430
C69   C     C_3   0.319045 0.293114 0.612466 -0.242246
C70   C     C_3   0.300225 0.365451 0.673742 -0.315753
C71   C     C_3   0.371048 0.368192 0.752269 -0.469829
C72   C     C_3   0.350404 0.683986 0.563786 -0.241340
C73   C     C_3   0.356887 0.594045 0.589582 -0.309964
C74   C     C_3   0.452325 0.575421 0.634062 -0.480513
C75   C     C_3   0.844250 0.811557 0.579226 -0.242458
C76   C     C_3   0.846395 0.898181 0.616483 -0.317186
C77   C     C_3   0.938354 0.914192 0.669204 -0.475460
C78   C     C_R   0.964293 0.517781 0.018239 0.052574
C79   C     C_3   0.819823 0.206805 0.612769 -0.242198
C80   C     C_3   0.801387 0.134591 0.674530 -0.315722
C81   C     C_3   0.871637 0.133775 0.753615 -0.469705
C82   C     C_R   0.451098 0.996141 0.109539 -0.152135
H1    H     H_    0.386254 0.978923 0.140383 0.153057
H2    H     H_    0.673321 0.099698 0.241749 0.177119
H3    H     H_    0.856775 0.081373 0.797023 0.134516
H4    H     H_    0.729106 0.138422 0.700439 0.177960
H5    H     H_    0.807862 0.077184 0.637127 0.159231
H6    H     H_    0.892708 0.200142 0.588907 0.171811
H7    H     H_    0.814406 0.262075 0.654228 0.173816
H8    H     H_    0.758150 0.042249 0.184722 0.143608
H9    H     H_    0.293655 0.377408 0.330685 0.185898
H10   H     H_    0.345992 0.328889 0.236663 0.141374
H11   H     H_    0.390168 0.425418 0.276880 0.133776
H12   H     H_    0.292919 0.441799 0.138487 0.143833
H13   H     H_    0.244604 0.493153 0.230556 0.199238
H14   H     H_    0.133272 0.372013 0.252595 0.153476
H15   H     H_    0.178605 0.324405 0.161795 0.120446
H16   H     H_    0.280976 0.028248 0.048818 0.313107
H17   H     H_    0.914907 0.566115 0.140706 0.188639
H18   H     H_    0.810522 0.652329 0.966315 0.322668
H19   H     H_    0.833162 0.943313 0.857947 0.146124
H20   H     H_    0.891106 0.924903 0.965113 0.159187
H21   H     H_    0.840526 0.842079 0.901677 0.145295
H22   H     H_    0.736146 0.877800 0.023957 0.171864
H23   H     H_    0.680393 0.897959 0.917553 0.170109
H24   H     H_    0.734627 0.048305 0.937779 0.125211
H25   H     H_    0.781656 0.019115 0.042719 0.144269
H26   H     H_    0.213058 0.246937 0.867858 0.147759
H27   H     H_    0.250346 0.214356 0.978571 0.153753
H28   H     H_    0.612263 0.019457 0.852562 0.110963
H29   H     H_    0.151801 0.165558 0.921857 0.154758
H30   H     H_    0.093856 0.258046 0.034940 0.156917
H31   H     H_    0.059137 0.291821 0.925227 0.166998
H32   H     H_    0.198166 0.391890 0.931204 0.127995
H33   H     H_    0.231956 0.355771 0.034189 0.138965
H34   H     H_    0.166881 0.991347 0.664716 0.148807
H35   H     H_    0.104651 0.018187 0.763648 0.154082
H36   H     H_    0.135879 0.095211 0.684998 0.144434
H37   H     H_    0.244110 0.098395 0.818544 0.170126
H38   H     H_    0.304764 0.074458 0.719509 0.178465
H39   H     H_    0.078089 0.422116 0.852469 0.123480
H40   H     H_    0.304752 0.927854 0.759767 0.137028
H41   H     H_    0.232039 0.946645 0.850778 0.200014
H42   H     H_    0.624947 0.632420 0.788758 0.159705
H43   H     H_    0.649087 0.553305 0.709570 0.151761
H44   H     H_    0.570994 0.534055 0.799487 0.142375
H45   H     H_    0.727079 0.471820 0.830347 0.161122
H46   H     H_    0.701583 0.549332 0.909633 0.199319
H47   H     H_    0.803638 0.647779 0.822934 0.124620
H48   H     H_    0.819556 0.571263 0.743708 0.162064
H49   H     H_    0.478966 0.604908 0.410248 0.151237
H50   H     H_    0.789590 0.213022 0.248604 0.154078
H51   H     H_    0.509484 0.652568 0.306687 0.160655
H52   H     H_    0.521075 0.544686 0.320453 0.142061
H53   H     H_    0.676707 0.608412 0.332735 0.201484
H54   H     H_    0.644892 0.565740 0.439275 0.174900
H55   H     H_    0.589277 0.703839 0.483570 0.156652
H56   H     H_    0.632750 0.744706 0.382074 0.145875
H57   H     H_    0.586494 0.288143 0.229216 0.149556
H58   H     H_    0.512522 0.334971 0.309105 0.149636
H59   H     H_    0.571384 0.396386 0.228347 0.146750
H60   H     H_    0.652697 0.408785 0.373586 0.186007
H61   H     H_    0.868386 0.164605 0.173399 0.149424
H62   H     H_    0.726978 0.355066 0.296742 0.192977
H63   H     H_    0.672871 0.224140 0.360397 0.143455
H64   H     H_    0.600031 0.277924 0.435331 0.150898
H65   H     H_    0.009509 0.155423 0.309137 0.151751
H66   H     H_    0.081438 0.210344 0.232255 0.142202
H67   H     H_    0.073452 0.101726 0.226307 0.145466
H68   H     H_    0.225461 0.143962 0.296993 0.188367
H69   H     H_    0.152555 0.088997 0.374341 0.186449
H70   H     H_    0.098834 0.219864 0.435946 0.150873
H71   H     H_    0.171672 0.273582 0.360539 0.136963
H72   H     H_    0.818503 0.261971 0.146022 0.149687
H73   H     H_    0.993960 0.862560 0.337377 0.161367
H74   H     H_    0.979193 0.908551 0.445189 0.152618
H75   H     H_    0.014011 0.969445 0.352737 0.145352
H76   H     H_    0.148817 0.939919 0.458302 0.173853
H77   H     H_    0.165542 0.900417 0.347106 0.197821
H78   H     H_    0.119880 0.763904 0.394834 0.143296
H79   H     H_    0.090201 0.802015 0.502223 0.160413
H80   H     H_    0.364986 0.312779 0.793381 0.153068
H81   H     H_    0.444076 0.373182 0.728460 0.153801
H82   H     H_    0.356544 0.421513 0.794331 0.140225
H83   H     H_    0.739110 0.153018 0.059483 0.162337
H84   H     H_    0.305533 0.422677 0.635664 0.161639
H85   H     H_    0.228256 0.360650 0.700288 0.175969
H86   H     H_    0.313638 0.237894 0.654171 0.168152
H87   H     H_    0.391949 0.300150 0.588658 0.172543
H88   H     H_    0.510184 0.590397 0.588874 0.152520
H89   H     H_    0.461359 0.611070 0.696181 0.159223
H90   H     H_    0.456487 0.510217 0.650735 0.145752
H91   H     H_    0.300796 0.578429 0.636530 0.159738
H92   H     H_    0.348959 0.555550 0.529389 0.190023
H93   H     H_    0.405490 0.695002 0.514397 0.157195
H94   H     H_    0.658905 0.202505 0.129754 0.156210
H95   H     H_    0.366664 0.719109 0.625350 0.178394
H96   H     H_    0.945135 0.872326 0.726736 0.158255
H97   H     H_    0.999726 0.906279 0.626156 0.153002
H98   H     H_    0.938968 0.977030 0.694534 0.143867
H99   H     H_    0.841117 0.942468 0.561080 0.181546
H100  H     H_    0.786429 0.907364 0.661041 0.158841
H101  H     H_    0.853762 0.770379 0.637206 0.174833
H102  H     H_    0.904931 0.806195 0.534854 0.163055
H103  H     H_    0.944870 0.128682 0.730422 0.152563
H104  H     H_    0.865308 0.189932 0.793293 0.155935
O1    O     O_3   0.500000 0.000000 0.500000 -0.422490
O2    O     O_R   0.885830 0.337110 0.539910 -0.566127
O3    O     O_R   0.692160 0.095230 0.468550 -0.558959
O4    O     O_R   0.692160 0.904770 0.468550 -0.547162
O5    O     O_R   0.192160 0.595230 0.468550 -0.551540
O6    O     O_R   0.192160 0.404770 0.468550 -0.566660
O7    O     O_R   0.316720 0.904790 0.427870 -0.549804
O8    O     O_R   0.316720 0.095210 0.427870 -0.557456
O9    O     O_R   0.816720 0.404790 0.427870 -0.556649
O10   O     O_R   0.816720 0.595210 0.427870 -0.550348
O11   O     O_R   0.594900 0.000000 0.310900 -0.553570
O12   O     O_3   1.000000 0.500000 0.500000 -0.421831
O13   O     O_R   0.094900 0.500000 0.310900 -0.551353
O14   O     O_R   0.483090 0.932320 0.697550 -0.545285
O15   O     O_R   0.483090 0.067680 0.697550 -0.554595
O16   O     O_R   0.983090 0.432320 0.697550 -0.550873
O17   O     O_R   0.983090 0.567680 0.697550 -0.546978
O18   O     O_R   0.438930 0.000000 0.294000 -0.549236
O19   O     O_R   0.938930 0.500000 0.294000 -0.545389
O20   O     O_3   0.282118 0.989751 0.998559 -0.731225
O21   O     O_3   0.834956 0.610795 0.008068 -0.739696
O22   O     O_R   0.605310 0.837110 0.563680 -0.553590
O23   O     O_R   0.605310 0.162890 0.563680 -0.551079
O24   O     O_R   0.105310 0.337110 0.563680 -0.551213
O25   O     O_R   0.105310 0.662890 0.563680 -0.551200
O26   O     O_R   0.385830 0.162890 0.539910 -0.568258
O27   O     O_R   0.385830 0.837110 0.539910 -0.567378
O28   O     O_R   0.885830 0.662890 0.539910 -0.570469
Zn1   Zn    Zn3+2 0.493670 0.096680 0.574000 0.891559
Zn2   Zn    Zn3+2 0.493670 0.903320 0.574000 0.901077
Zn3   Zn    Zn3+2 0.993670 0.596680 0.574000 0.901088
Zn4   Zn    Zn3+2 0.993670 0.403320 0.574000 0.895117
Zn5   Zn    Zn3+2 0.617760 0.000000 0.438070 0.902563
Zn6   Zn    Zn3+2 0.117760 0.500000 0.438070 0.894743
Zn7   Zn    Zn3+2 0.394920 0.000000 0.413930 0.901498
Zn8   Zn    Zn3+2 0.894920 0.500000 0.413930 0.905195

loop_
_geom_bond_atom_site_label_1
_geom_bond_atom_site_label_2
_ccdc_geom_bond_type
C66   C68   S    
C5    C42   S    
C13   C79   S    
C24   O17   A    
C19   O9    A    
C71   H80   S    
O18   Zn7   S    
C33   C45   A    
C73   C74   S    
C17   O7    A    
C1    C11   S    
C75   C76   S    
C68   H73   S    
C75   H101  S    
O4    Zn5   S    
C63   H68   S    
O1    Zn5   S    
C53   C54   S    
C27   C33   A    
C12   O3    A    
C54   H44   S    
C24   O16   A    
C77   H97   S    
C55   H56   S    
C62   H70   S    
C46   H33   S    
C50   H38   S    
C52   H47   S    
C22   O14   A    
C36   C37   S    
O12   Zn8   S    
C37   C38   S    
C21   O13   A    
C12   O23   A    
C80   H5    S    
C70   H84   S    
C43   H23   S    
C17   O27   A    
C39   H15   S    
C20   C25   S    
C49   H40   S    
C47   H30   S    
C49   H41   S    
C69   H87   S    
O19   Zn8   S    
C51   H36   S    
C56   C78   A    
C38   H61   S    
C72   H93   S    
C21   O19   A    
C73   H92   S    
C1    O22   A    
C43   H22   S    
C32   C52   S    
C80   H4    S    
C53   H45   S    
C60   H60   S    
C29   C67   A    
C44   H21   S    
C7    C14   D    
C41   H11   S    
C28   C35   A    
C45   C67   A    
O26   Zn1   S    
C57   H54   S    
C70   C71   S    
C9    C55   S    
C42   H25   S    
C58   H49   S    
C15   C34   S    
C74   H90   S    
C72   C73   S    
C1    O4    A    
O7    Zn7   S    
C48   H27   S    
C59   C60   S    
O22   Zn2   S    
C64   H66   S    
C18   O28   A    
C72   H95   S    
C31   C49   S    
C65   H78   S    
C76   H100  S    
C75   H102  S    
C28   C32   A    
C81   H103  S    
C66   H77   S    
H18   O21   S    
C58   H51   S    
C20   O11   A    
C54   H43   S    
O1    Zn1   S    
C77   H98   S    
C74   H88   S    
C71   H82   S    
O17   Zn3   S    
C18   O10   A    
C50   H37   S    
C35   H39   S    
C76   C77   S    
C20   O18   A    
C4    C6    A    
C40   H12   S    
C39   C40   S    
C44   H20   S    
C61   H57   S    
C51   H34   S    
C37   H83   S    
O1    Zn7   S    
C3    C5    A    
C27   C31   A    
C10   C13   D    
C58   H52   S    
C29   O20   S    
C79   C80   S    
C60   C61   S    
C38   H50   S    
C14   C23   S    
C43   C44   S    
C7    C62   S    
C62   C63   S    
C15   C72   S    
C53   H46   S    
C19   O2    A    
C9    C11   D    
C47   C48   S    
C4    C39   S    
C16   O26   A    
C10   C19   S    
C48   H29   S    
C50   C51   S    
C71   H81   S    
C2    C26   A    
O23   Zn1   S    
C52   C53   S    
C42   H24   S    
C63   H69   S    
C74   H89   S    
C79   H6    S    
O8    Zn7   S    
C59   H63   S    
O25   Zn3   S    
C61   H59   S    
C40   C41   S    
C41   H9    S    
C2    H17   S    
C49   C50   S    
C8    C15   D    
C22   C27   S    
C55   C57   S    
C64   H65   S    
O15   Zn1   S    
C25   C82   A    
C51   H35   S    
C14   C69   S    
O12   Zn3   S    
C42   C43   S    
C38   H72   S    
C40   H13   S    
C68   H75   S    
C81   H104  S    
C66   H76   S    
C2    C78   A    
O27   Zn2   S    
C36   H8    S    
C47   H31   S    
C54   H42   S    
O1    Zn2   S    
C34   O5    A    
C6    C46   S    
C22   O15   A    
C35   C56   A    
O12   Zn6   S    
C7    C16   S    
O13   Zn6   S    
C24   C28   S    
C46   H32   S    
C6    C56   A    
C80   C81   S    
C68   H74   S    
O28   Zn3   S    
O24   Zn4   S    
O5    Zn6   S    
O9    Zn8   S    
C4    C26   A    
C44   H19   S    
C61   H58   S    
C23   O24   A    
O2    Zn4   S    
C39   H14   S    
C8    C17   S    
C55   H55   S    
C62   H71   S    
C64   H67   S    
C77   H96   S    
C52   H48   S    
O16   Zn4   S    
C10   C59   S    
C69   H86   S    
C57   H53   S    
C29   C31   A    
C11   C75   S    
C70   H85   S    
C60   H62   S    
C37   H94   S    
C30   C32   A    
C57   C58   S    
C48   H26   S    
C5    C45   A    
C3    C36   S    
C36   H2    S    
C30   O21   S    
C21   C26   S    
O14   Zn2   S    
C3    C25   A    
C73   H91   S    
C69   C70   S    
C23   O6    A    
C81   H3    S    
O12   Zn4   S    
C79   H7    S    
C46   C47   S    
C16   O8    A    
C34   O25   A    
C63   C64   S    
C30   C78   A    
C59   H64   S    
O3    Zn5   S    
C9    C18   S    
C8    C65   S    
C41   H10   S    
C12   C13   S    
C67   C82   A    
C65   C66   S    
C65   H79   S    
O6    Zn6   S    
H16   O20   S    
C33   H28   S    
C82   H1    S    
O11   Zn5   S    
O10   Zn8   S    
C76   H99   S    
