data_mof_unit_32776.cif
_audit_creation_date              2013-03-05T15:46:14-0500
_audit_creation_method            fapswitch 2.2
_symmetry_space_group_name_H-M    P1
_symmetry_Int_Tables_number       1
_space_group_crystal_system       triclinic
_cell_length_a                    10.743677
_cell_length_b                    10.978867
_cell_length_c                    9.841737
_cell_angle_alpha                 110.592156
_cell_angle_beta                  99.059142
_cell_angle_gamma                 90.780627
_cell_volume                      1070.1470887

loop_
_atom_site_label
_atom_site_type_symbol
_atom_site_description
_atom_site_fract_x
_atom_site_fract_y
_atom_site_fract_z
_atom_type_partial_charge
O1    O     O_R   0.511820 0.332340 0.577400 -0.613282
O2    O     O_R   0.474400 0.295500 0.332650 -0.511634
C1    C     C_R   0.485504 0.253657 0.441422 0.746732
O3    O     O_R   0.336400 0.518400 0.622370 -0.590316
O4    O     O_R   0.298980 0.481560 0.377620 -0.554158
C2    C     C_R   0.259832 0.498893 0.500069 0.739079
Cu1   Cu    Cu3+1 0.522160 0.521810 0.644910 0.956575
Cu2   Cu    Cu3+1 0.477840 0.478190 0.355090 1.033975
O5    O     O_R   0.525600 0.704500 0.667350 -0.572969
O6    O     O_R   0.488180 0.667660 0.422600 -0.512649
O7    O     O_R   0.701020 0.518440 0.622380 -0.615975
O8    O     O_R   0.663600 0.481600 0.377630 -0.595578
C3    C     C_R   0.503636 0.745664 0.558260 0.882783
C4    C     C_R   0.740124 0.500821 0.500092 0.767315
C5    C     C_3   0.094735 0.534533 0.659377 -0.352060
H1    H     H_    0.139197 0.634082 0.727324 0.204824
H2    H     H_    0.136493 0.467315 0.713380 0.181570
C6    C     C_3   0.952260 0.533442 0.659217 -0.354791
H3    H     H_    0.924888 0.460959 0.706940 0.189620
H4    H     H_    0.929355 0.631156 0.731112 0.177309
H5    H     H_    0.109465 0.697777 0.508511 0.209355
H6    H     H_    0.896242 0.698102 0.500145 0.186619
C7    C     C_3   0.064483 0.599143 0.437780 -0.346949
C8    C     C_3   0.054445 0.354352 0.403756 -0.052977
C9    C     C_3   0.121298 0.495047 0.498854 -0.018560
C10   C     C_3   0.877854 0.498710 0.499934 0.084995
C11   C     C_3   0.920852 0.598738 0.435171 -0.385195
C12   C     C_3   0.908529 0.360562 0.404740 -0.376163
H7    H     H_    0.869951 0.288564 0.446154 0.205541
H8    H     H_    0.854188 0.335076 0.290958 0.151053
H9    H     H_    0.084313 0.582084 0.325342 0.192384
H10   H     H_    0.871192 0.574029 0.319627 0.178559
H11   H     H_    0.487339 0.142215 0.638813 0.152078
C13   C     C_2   0.462794 0.113811 0.411222 0.178014
C14   C     C_2   0.462153 0.073959 0.525971 -0.345410
H12   H     H_    0.586851 0.944508 0.670271 0.141958
C15   C     C_2   0.509437 0.884812 0.587267 -0.425859
C16   C     C_2   0.431685 0.938171 0.506495 0.433931
H13   H     H_    0.413194 0.423230 0.851358 0.136563
H14   H     H_    0.600651 0.560444 0.155183 0.192580
N1    N     N_2   0.444530 0.445420 0.137360 -0.281380
C17   C     C_2   0.517691 0.503348 0.082372 0.014832
N2    N     N_2   0.555520 0.554510 0.862630 -0.238138
C18   C     C_2   0.490670 0.491733 0.922532 -0.029418
H15   H     H_    0.364793 0.392010 0.068278 0.215137
N3    N     N_R   0.314331 0.872531 0.414948 0.134614
O9    O     O_R   0.211229 0.932990 0.430086 -0.326311
O10   O     O_R   0.313467 0.768617 0.298487 -0.298423
N4    N     N_R   0.439611 0.023073 0.261244 0.163947
O11   O     O_R   0.371603 0.053529 0.157877 -0.277668
O12   O     O_R   0.497699 0.916104 0.225084 -0.265828
C19   C     C_2   0.657624 0.648379 0.947323 0.583489
H16   H     H_    0.739783 0.656115 0.898806 0.045813
O13   O     O_2   0.650489 0.727814 0.068597 -0.523665
C20   C     C_2   0.073810 0.312845 0.243604 0.356461
H17   H     H_    0.033502 0.366798 0.175836 0.074883
O14   O     O_2   0.132504 0.218769 0.187700 -0.487050
C21   C     C_2   0.111356 0.255011 0.468431 0.488896
H18   H     H_    0.210883 0.238758 0.469747 0.071492
O15   O     O_2   0.049264 0.193542 0.519895 -0.520572

loop_
_geom_bond_atom_site_label_1
_geom_bond_atom_site_label_2
_geom_bond_distance
_ccdc_geom_bond_type
C5    C6    1.530344 S    
C20   H17   1.084969 S    
C5    H2    1.112747 S    
H13   C18   1.085313 S    
Cu1   N2    2.015496 S    
O4    Cu2   1.968115 S    
N1    C17   1.295229 D    
C10   C12   1.548564 S    
C6    C10   1.555140 S    
Cu2   O8    1.971374 S    
C4    C10   1.480457 S    
N4    O12   1.300478 A    
C12   H8    1.114627 S    
O2    C1    1.295557 A    
C21   H18   1.085288 S    
Cu1   Cu2   2.682739 S    
C7    C9    1.557781 S    
C8    C9    1.587131 S    
C8    C20   1.528363 S    
Cu1   O7    1.968115 S    
C12   H7    1.110694 S    
C10   C11   1.548215 S    
C15   C16   1.343394 D    
C17   C18   1.513032 S    
C3    C15   1.450605 S    
O3    Cu1   1.971374 S    
C8    C21   1.533777 S    
H12   C15   1.087740 S    
H11   C14   1.087452 S    
C19   O13   1.220423 D    
C13   C14   1.347894 D    
C7    C11   1.539203 S    
H6    C11   1.113229 S    
C20   O14   1.222464 D    
N2    C18   1.307702 D    
O4    C2    1.290696 A    
O7    C4    1.288440 A    
N3    O10   1.300736 A    
N2    C19   1.427311 S    
C5    C9    1.558462 S    
C2    C9    1.486427 S    
C16   N3    1.442757 S    
C21   O15   1.221297 D    
C5    H1    1.113978 S    
C14   C16   1.460236 S    
C19   H16   1.083314 S    
C6    H4    1.113624 S    
Cu2   O6    1.944000 S    
N4    O11   1.300944 A    
Cu1   O5    1.938274 S    
O5    C3    1.295008 A    
N3    O9    1.300854 A    
C6    H3    1.113721 S    
C13   N4    1.440932 S    
N1    H15   1.030745 S    
C1    C13   1.466668 S    
Cu2   N1    2.015435 S    
C11   H10   1.113273 S    
O1    Cu1   1.944000 S    
O3    C2    1.293605 A    
H5    C7    1.113705 S    
O2    Cu2   1.938274 S    
C8    C12   1.571484 S    
O8    C4    1.295141 A    
H14   C17   1.080974 S    
O1    C1    1.295419 A    
O6    C3    1.290572 A    
C7    H9    1.111102 S    
