data_mof_unit_35757.cif
_audit_creation_date              2012-12-11T14:10:49-0500
_audit_creation_method            fapswitch 2.2
_symmetry_space_group_name_H-M    P1
_symmetry_Int_Tables_number       1
_space_group_crystal_system       triclinic
_cell_length_a                    19.520753
_cell_length_b                    17.185204
_cell_length_c                    15.55173
_cell_angle_alpha                 89.983593
_cell_angle_beta                  52.84203
_cell_angle_gamma                 89.975375
_cell_volume                      4157.89627422

loop_
_atom_site_label
_atom_site_type_symbol
_atom_type_description
_atom_site_fract_x
_atom_site_fract_y
_atom_site_fract_z
_atom_type_partial_charge
C1    C     C_R   0.378012 0.198576 0.990040 -0.141218
C2    C     C_3   0.691970 0.754097 0.439792 -0.205317
C3    C     C_3   0.408283 0.404703 0.888667 -0.349385
C4    C     C_3   0.639825 0.272730 0.283707 -0.305576
C5    C     C_3   0.091467 0.903875 0.110316 -0.335566
C6    C     C_3   0.359859 0.272053 0.715754 -0.310746
C7    C     C_3   0.908041 0.904676 0.889723 -0.345810
C8    C     C_3   0.776959 0.197642 0.420989 -0.231800
C9    C     C_3   0.306733 0.754733 0.561444 -0.230806
C10   C     C_3   0.718604 0.695505 0.581591 -0.264224
C11   C     C_3   0.200371 0.260342 0.436613 -0.207951
C12   C     C_3   0.282837 0.695034 0.417723 -0.242854
C13   C     C_3   0.807858 0.253259 0.560004 -0.233505
C14   C     C_2   0.170171 0.752439 0.119347 0.397757
C15   C     C_2   0.698406 0.321620 0.066841 0.415798
C16   C     C_2   0.830090 0.752605 0.880342 0.398405
C17   C     C_R   0.662980 0.826258 0.948482 -0.231358
C18   C     C_2   0.302054 0.321773 0.932086 0.414778
C19   C     C_2   0.670186 0.252435 0.119331 0.391825
C20   C     C_2   0.198278 0.821697 0.067076 0.412420
C21   C     C_2   0.330149 0.252456 0.879912 0.399094
C22   C     C_2   0.801874 0.821813 0.932720 0.415363
C23   C     C_R   0.392534 0.802380 0.212655 0.586415
C24   C     C_R   0.650123 0.173732 0.778126 0.617802
C25   C     C_R   0.607976 0.802484 0.787112 0.588043
C26   C     C_R   0.351217 0.175071 0.222077 0.607827
C27   C     C_R   0.888532 0.303545 0.215005 0.578490
C28   C     C_R   0.622664 0.198399 0.009028 -0.159324
C29   C     C_R   0.149864 0.674005 0.778183 0.616084
C30   C     C_R   0.104783 0.301577 0.789442 0.592214
C31   C     C_R   0.850093 0.674041 0.221885 0.608581
C32   C     C_R   0.327133 0.912189 0.955020 0.094167
C33   C     C_R   0.621922 0.115742 0.116371 0.064833
C34   C     C_R   0.672896 0.912229 0.044917 0.093112
C35   C     C_R   0.378166 0.115714 0.883464 0.066537
C36   C     C_R   0.827179 0.412148 0.954926 0.094973
C37   C     C_R   0.121936 0.615758 0.116334 0.066566
C38   C     C_R   0.172967 0.412140 0.044748 0.092975
C39   C     C_R   0.337032 0.826291 0.051590 -0.231724
C40   C     C_R   0.878157 0.615830 0.883560 0.067308
C41   C     C_R   0.357274 0.080605 0.316172 -0.245665
C42   C     C_R   0.599448 0.893792 0.692472 -0.253104
C43   C     C_R   0.644061 0.078966 0.684564 -0.246081
C44   C     C_R   0.400899 0.893800 0.307333 -0.241229
C45   C     C_R   0.856256 0.579551 0.315689 -0.233788
C46   C     C_R   0.097444 0.392878 0.693758 -0.248094
C47   C     C_R   0.143886 0.579309 0.684401 -0.244544
C48   C     C_R   0.897993 0.394858 0.308929 -0.246614
C49   C     C_R   0.358309 0.191454 0.919197 -0.009895
C50   C     C_R   0.877596 0.698511 0.990719 -0.152839
C51   C     C_R   0.717748 0.853400 0.970075 -0.008879
C52   C     C_R   0.642103 0.191371 0.080157 -0.006476
C53   C     C_R   0.282306 0.853361 0.029871 -0.006063
C54   C     C_R   0.858133 0.691520 0.919611 -0.006168
C55   C     C_R   0.217840 0.353369 0.969697 -0.003047
C56   C     C_R   0.142012 0.691427 0.080200 -0.004274
C57   C     C_R   0.782475 0.353165 0.029510 -0.006732
C58   C     C_R   0.377565 0.818389 0.309174 -0.090360
C59   C     C_R   0.693409 0.139637 0.677502 -0.098553
C60   C     C_R   0.622896 0.818415 0.690744 -0.094396
C61   C     C_R   0.163066 0.326390 0.948030 -0.235610
C62   C     C_R   0.309144 0.142433 0.323108 -0.092794
C63   C     C_R   0.871814 0.320419 0.312127 -0.080066
C64   C     C_R   0.192978 0.640247 0.677463 -0.100986
C65   C     C_R   0.118514 0.316838 0.693730 -0.094252
C66   C     C_R   0.806995 0.640346 0.322636 -0.089913
C67   C     C_3   0.172929 0.153734 0.531855 0.032260
C68   C     C_3   0.732773 0.797192 0.485704 0.055236
C69   C     C_3   0.819455 0.152612 0.463558 0.047581
C70   C     C_3   0.266255 0.797074 0.514516 0.062263
C71   C     C_3   0.678055 0.651886 0.535436 0.038829
C72   C     C_R   0.122531 0.698457 0.009100 -0.157150
C73   C     C_3   0.236907 0.295773 0.492372 0.050073
C74   C     C_3   0.323004 0.652235 0.464949 0.038515
C75   C     C_3   0.764969 0.297837 0.517738 0.060381
C76   C     C_3   0.622435 0.722646 0.554705 -0.001163
C77   C     C_3   0.285092 0.221678 0.477803 0.000951
C78   C     C_3   0.377409 0.723708 0.446595 0.002022
C79   C     C_3   0.709731 0.228395 0.535944 0.014729
C80   C     C_3   0.123890 0.228744 0.547693 0.002777
C81   C     C_3   0.787521 0.727346 0.467744 0.002837
C82   C     C_3   0.875666 0.222927 0.443713 0.007595
C83   C     C_R   0.837262 0.325983 0.051060 -0.233458
C84   C     C_3   0.212799 0.726491 0.531344 0.020811
C85   C     C_3   0.662689 0.766866 0.599391 0.144563
C86   C     C_3   0.249618 0.184321 0.422103 0.141248
C87   C     C_3   0.337405 0.767150 0.400963 0.135086
C88   C     C_3   0.751219 0.182208 0.578426 0.128018
C89   C     C_3   0.159910 0.265621 0.602155 0.140003
C90   C     C_3   0.747948 0.682533 0.421846 0.150668
C91   C     C_3   0.833287 0.268583 0.402849 0.140147
C92   C     C_3   0.251986 0.682480 0.578327 0.133937
C93   C     C_3   0.470586 0.690676 0.143243 -0.261871
C94   C     C_3   0.209061 0.189937 0.588048 -0.250218
C95   C     C_3   0.595836 0.296214 0.829963 -0.288444
C96   C     C_3   0.528199 0.692430 0.862421 -0.270130
C97   C     C_3   0.400476 0.298632 0.170256 -0.310001
C98   C     C_3   0.973856 0.198334 0.127569 -0.246903
C99   C     C_3   0.096290 0.796689 0.827775 -0.290020
C100  C     C_3   0.026833 0.189365 0.855593 -0.296302
C101  C     C_3   0.902882 0.796897 0.172068 -0.292126
C102  C     C_3   0.139723 0.772137 0.283844 -0.311564
C103  C     C_3   0.589774 0.401836 0.111290 -0.339497
C104  C     C_3   0.860368 0.772638 0.715961 -0.315507
H1    H     H_    0.387621 0.252197 0.016054 0.217470
H2    H     H_    0.593719 0.921737 0.634752 0.138114
H3    H     H_    0.613920 0.450126 0.134122 0.157303
H4    H     H_    0.542518 0.365892 0.183348 0.121724
H5    H     H_    0.555554 0.428136 0.081796 0.180421
H6    H     H_    0.848267 0.750261 0.659337 0.180271
H7    H     H_    0.930363 0.766230 0.676188 0.142997
H8    H     H_    0.841699 0.835130 0.730824 0.133886
H9    H     H_    0.381244 0.453052 0.869907 0.156961
H10   H     H_    0.455905 0.371005 0.814213 0.126668
H11   H     H_    0.442953 0.430909 0.917566 0.179288
H12   H     H_    0.569831 0.266554 0.323355 0.140265
H13   H     H_    0.655300 0.044451 0.619153 0.138598
H14   H     H_    0.658709 0.335156 0.268634 0.135417
H15   H     H_    0.651697 0.250360 0.340570 0.180036
H16   H     H_    0.117641 0.952254 0.130218 0.157335
H17   H     H_    0.043837 0.869630 0.184154 0.124445
H18   H     H_    0.057055 0.930057 0.081018 0.180094
H19   H     H_    0.347228 0.249698 0.659607 0.190360
H20   H     H_    0.429898 0.265388 0.675514 0.142379
H21   H     H_    0.341500 0.334620 0.730453 0.132462
H22   H     H_    0.881142 0.953003 0.870724 0.155620
H23   H     H_    0.955821 0.870969 0.815359 0.125297
H24   H     H_    0.407438 0.921704 0.364320 0.124705
H25   H     H_    0.942487 0.930921 0.918910 0.179800
H26   H     H_    0.845024 0.545233 0.381252 0.135372
H27   H     H_    0.092614 0.421031 0.635388 0.135452
H28   H     H_    0.155382 0.544535 0.619010 0.138558
H29   H     H_    0.904900 0.422296 0.365840 0.125184
H30   H     H_    0.214029 0.160589 0.647643 0.177463
H31   H     H_    0.679720 0.777824 0.383840 0.164531
H32   H     H_    0.762765 0.174701 0.366587 0.173547
H33   H     H_    0.673143 0.778215 0.898483 0.236964
H34   H     H_    0.318249 0.778979 0.617831 0.167050
H35   H     H_    0.730870 0.671288 0.637297 0.176619
H36   H     H_    0.194232 0.289737 0.378048 0.173516
H37   H     H_    0.271471 0.670347 0.361406 0.175413
H38   H     H_    0.821914 0.275669 0.614777 0.165836
H39   H     H_    0.470941 0.681038 0.213624 0.156021
H40   H     H_    0.529171 0.722586 0.078631 0.165425
H41   H     H_    0.472535 0.632670 0.110571 0.170653
H42   H     H_    0.538022 0.279550 0.910910 0.132918
H43   H     H_    0.580700 0.294978 0.771630 0.141443
H44   H     H_    0.614326 0.251870 0.981381 0.219287
H45   H     H_    0.612448 0.356934 0.834878 0.183358
H46   H     H_    0.519502 0.688445 0.798157 0.145192
H47   H     H_    0.472664 0.722307 0.934593 0.176667
H48   H     H_    0.529692 0.632141 0.886728 0.168019
H49   H     H_    0.384823 0.356835 0.155544 0.195450
H50   H     H_    0.462263 0.279776 0.094825 0.135569
H51   H     H_    0.407821 0.304767 0.235256 0.128956
H52   H     H_    0.994984 0.201507 0.179902 0.144899
H53   H     H_    0.020801 0.227648 0.049393 0.183868
H54   H     H_    0.972462 0.135984 0.110278 0.169552
H55   H     H_    0.326815 0.778402 0.101874 0.235674
H56   H     H_    0.037597 0.780760 0.908439 0.135385
H57   H     H_    0.082643 0.794956 0.767968 0.140277
H58   H     H_    0.113106 0.857442 0.832204 0.183446
H59   H     H_    0.022616 0.132254 0.891758 0.172086
H60   H     H_    0.031350 0.177763 0.782067 0.151611
H61   H     H_    0.966925 0.221758 0.915655 0.168250
H62   H     H_    0.886644 0.857160 0.164650 0.186642
H63   H     H_    0.962387 0.779887 0.092735 0.134675
H64   H     H_    0.914791 0.797123 0.233521 0.141212
H65   H     H_    0.356960 0.946228 0.811883 0.083818
H66   H     H_    0.886337 0.751980 0.018011 0.218817
H67   H     H_    0.277874 0.999954 0.922542 0.115652
H68   H     H_    0.549447 0.048008 0.250664 0.085061
H69   H     H_    0.643184 0.080399 0.222750 0.140176
H70   H     H_    0.722191 0.999894 0.077397 0.115558
H71   H     H_    0.642942 0.946343 0.188078 0.085096
H72   H     H_    0.450541 0.047702 0.749434 0.086082
H73   H     H_    0.356883 0.080255 0.777157 0.138550
H74   H     H_    0.856840 0.446498 0.811992 0.083953
H75   H     H_    0.777871 0.500139 0.922856 0.115733
H76   H     H_    0.049704 0.547867 0.250488 0.085128
H77   H     H_    0.173417 0.278873 0.897087 0.233725
H78   H     H_    0.143449 0.580345 0.222448 0.138955
H79   H     H_    0.222324 0.499926 0.076948 0.114974
H80   H     H_    0.143392 0.446255 0.187708 0.084455
H81   H     H_    0.950506 0.547957 0.749392 0.085899
H82   H     H_    0.856804 0.580517 0.777283 0.138099
H83   H     H_    0.511336 0.775518 0.603463 0.102243
H84   H     H_    0.521686 0.683594 0.560647 0.102674
H85   H     H_    0.388476 0.163237 0.447471 0.110492
H86   H     H_    0.413876 0.234504 0.358789 0.095164
H87   H     H_    0.487486 0.778089 0.398826 0.101230
H88   H     H_    0.113995 0.751919 0.981543 0.219477
H89   H     H_    0.477739 0.686681 0.442935 0.100044
H90   H     H_    0.598052 0.179007 0.579987 0.111237
H91   H     H_    0.609653 0.272585 0.543552 0.087278
H92   H     H_    0.019437 0.289934 0.587733 0.100349
H93   H     H_    0.027629 0.200658 0.538673 0.103481
H94   H     H_    0.898393 0.677177 0.425441 0.112594
H95   H     H_    0.886053 0.770031 0.464675 0.078981
H96   H     H_    0.987493 0.274501 0.394300 0.099593
H97   H     H_    0.978650 0.180837 0.430521 0.101442
H98   H     H_    0.103376 0.675325 0.570379 0.109989
H99   H     H_    0.827429 0.277552 0.100367 0.236836
H100  H     H_    0.114456 0.768810 0.533744 0.086680
H101  H     H_    0.085432 0.071918 0.632460 0.096685
H102  H     H_    0.183795 0.036790 0.537438 0.103568
H103  H     H_    0.811418 0.880997 0.377379 0.112005
H104  H     H_    0.792088 0.889158 0.497810 0.093262
H105  H     H_    0.801109 0.038514 0.449580 0.100288
H106  H     H_    0.864747 0.054698 0.486707 0.095293
H107  H     H_    0.175376 0.876590 0.617692 0.103005
H108  H     H_    0.275992 0.910254 0.543992 0.091549
H109  H     H_    0.596966 0.569721 0.643509 0.103637
H110  H     H_    0.345841 0.045925 0.381639 0.137283
H111  H     H_    0.696172 0.537339 0.547028 0.100503
H112  H     H_    0.324813 0.378040 0.391782 0.097826
H113  H     H_    0.296329 0.380028 0.517335 0.103406
H114  H     H_    0.306309 0.537067 0.454329 0.102898
H115  H     H_    0.368858 0.556818 0.492131 0.097572
H116  H     H_    0.676494 0.377628 0.624184 0.107031
H117  H     H_    0.777704 0.409851 0.548028 0.091011
H118  H     H_    0.069765 0.765468 0.323580 0.141707
H119  H     H_    0.158049 0.834702 0.269280 0.136316
H120  H     H_    0.151945 0.749732 0.340356 0.180652
N1    N     N_R   0.408680 0.130810 0.995780 -0.062575
N2    N     N_R   0.578590 0.132790 0.846380 -0.105043
N3    N     N_R   0.578590 0.867210 0.846380 -0.092485
N4    N     N_R   0.421410 0.132790 0.153620 -0.103935
N5    N     N_R   0.921410 0.367210 0.153620 -0.093938
N6    N     N_R   0.078590 0.632790 0.846380 -0.104030
N7    N     N_R   0.078590 0.367210 0.846380 -0.092764
N8    N     N_R   0.921410 0.632790 0.153620 -0.103928
N9    N     N_R   0.403840 0.921910 0.935760 -0.067235
N10   N     N_R   0.596160 0.078090 0.064240 -0.066926
N11   N     N_R   0.596160 0.921910 0.064240 -0.067974
N12   N     N_R   0.591320 0.869190 0.004220 -0.054658
N13   N     N_R   0.403840 0.078090 0.935760 -0.067321
N14   N     N_R   0.903840 0.421910 0.935760 -0.067281
N15   N     N_R   0.096160 0.578090 0.064240 -0.067350
N16   N     N_R   0.096160 0.421910 0.064240 -0.067189
N17   N     N_R   0.903840 0.578090 0.935760 -0.067236
N18   N     N_R   0.426250 0.076100 0.213650 -0.062579
N19   N     N_R   0.573750 0.923900 0.786350 -0.059688
N20   N     N_R   0.573750 0.076100 0.786350 -0.060779
N21   N     N_R   0.426250 0.923900 0.213650 -0.058338
N22   N     N_R   0.926250 0.576100 0.213650 -0.062396
N23   N     N_R   0.591320 0.130810 0.004220 -0.064442
N24   N     N_R   0.073750 0.423900 0.786350 -0.060100
N25   N     N_R   0.073750 0.576100 0.786350 -0.060596
N26   N     N_R   0.926250 0.423900 0.213650 -0.058096
N27   N     N_3   0.303033 0.944667 0.892591 -0.166895
N28   N     N_3   0.590937 0.095612 0.223755 -0.199308
N29   N     N_3   0.696935 0.944649 0.107415 -0.165951
N30   N     N_3   0.409137 0.095383 0.776151 -0.197689
N31   N     N_3   0.802971 0.444865 0.892731 -0.166451
N32   N     N_3   0.091115 0.595530 0.223625 -0.197793
N33   N     N_3   0.197244 0.444637 0.106956 -0.166781
N34   N     N_R   0.408680 0.869190 0.995780 -0.054878
N35   N     N_3   0.909086 0.595637 0.776224 -0.197282
N36   N     N_3   0.530535 0.719649 0.607241 -0.219479
N37   N     N_3   0.373893 0.220332 0.440663 -0.228820
N38   N     N_3   0.469130 0.721771 0.395317 -0.215062
N39   N     N_3   0.617821 0.233252 0.587956 -0.224183
N40   N     N_3   0.033775 0.231955 0.591200 -0.217066
N41   N     N_3   0.879018 0.731898 0.418180 -0.224690
N42   N     N_3   0.968036 0.219547 0.387905 -0.212447
N43   N     N_3   0.121493 0.730017 0.579673 -0.223760
N44   N     N_3   0.137257 0.075799 0.550654 -0.214263
N45   N     N_R   0.908680 0.630810 0.995780 -0.063795
N46   N     N_3   0.763254 0.877364 0.460399 -0.222599
N47   N     N_3   0.851340 0.073111 0.434246 -0.212425
N48   N     N_3   0.233416 0.876571 0.540078 -0.217841
N49   N     N_3   0.646619 0.572139 0.560690 -0.215179
N50   N     N_3   0.272352 0.374001 0.473089 -0.221285
N51   N     N_3   0.355902 0.572944 0.438470 -0.216592
N52   N     N_3   0.733492 0.377675 0.545643 -0.217680
N53   N     N_R   0.091320 0.369190 0.004220 -0.056896
N54   N     N_R   0.091320 0.630810 0.004220 -0.064337
N55   N     N_R   0.908680 0.369190 0.995780 -0.054334
N56   N     N_R   0.421410 0.867210 0.153620 -0.091590
Ni1   Ni    Ni4+2 0.500000 0.131570 0.000000 0.195504
Ni2   Ni    Ni4+2 0.500000 0.868430 0.000000 0.231293
Ni3   Ni    Ni4+2 0.000000 0.631570 0.000000 0.196156
Ni4   Ni    Ni4+2 0.000000 0.368430 0.000000 0.226056
Ni5   Ni    Ni4+2 0.488900 1.000000 0.862310 0.175789
Ni6   Ni    Ni4+2 0.511100 1.000000 0.137690 0.174855
Ni7   Ni    Ni4+2 0.988900 0.500000 0.862310 0.175727
Ni8   Ni    Ni4+2 0.011100 0.500000 0.137690 0.175401
O1    O     O_3   0.395580 0.729476 0.172942 -0.651505
O2    O     O_3   0.658288 0.356408 0.027863 -0.623321
O3    O     O_3   0.810734 0.728860 0.812093 -0.629089
O4    O     O_3   0.342417 0.356527 0.970698 -0.623772
O5    O     O_3   0.689432 0.228761 0.187740 -0.629112
O6    O     O_3   0.158125 0.856361 0.028087 -0.624257
O7    O     O_3   0.310425 0.228488 0.812106 -0.630999
O8    O     O_3   0.842076 0.856487 0.971600 -0.622359
O9    O     O_3   0.666156 0.247696 0.796781 -0.636061
O10   O     O_3   0.605775 0.729460 0.825918 -0.648751
O11   O     O_3   0.333280 0.246951 0.200479 -0.637049
O12   O     O_3   0.891140 0.229648 0.178227 -0.649518
O13   O     O_3   0.165698 0.747850 0.797315 -0.637736
O14   O     O_3   0.099770 0.229044 0.831447 -0.653030
O15   O     O_3   0.833810 0.747633 0.202538 -0.636885
O16   O     O_3   0.189600 0.728616 0.187508 -0.630029

loop_
_geom_bond_atom_site_label_1
_geom_bond_atom_site_label_2
_ccdc_geom_bond_type
C23   C58   A    
C10   C85   S    
C18   C21   D    
N1    N13   A    
C102  H120  S    
H95   N41   S    
C65   C89   S    
C76   N36   S    
C8    C69   S    
C77   N37   S    
C34   N29   S    
C68   C81   S    
C3    O4    S    
C29   N6    A    
C83   N55   A    
C37   N15   A    
H103  N46   S    
C34   N11   A    
C11   C86   S    
H67   N27   S    
C20   O6    S    
C12   C84   S    
C74   C92   S    
C89   C94   S    
C2    C90   S    
C37   C56   A    
C27   N5    A    
C38   C55   A    
C56   C72   A    
C21   O7    S    
C25   O10   S    
C35   N30   S    
C57   C83   A    
C25   C60   A    
C70   C84   S    
C99   O13   S    
C10   C71   S    
C29   C64   A    
N13   Ni5   S    
C45   H26   S    
C95   O9    S    
C95   H42   S    
H69   N28   S    
C98   H52   S    
C36   N31   S    
H92   N40   S    
C9    C70   S    
C46   C65   A    
C47   C64   A    
C48   C63   A    
C18   O4    S    
C13   C82   S    
C82   C91   S    
C84   N43   S    
C28   N23   A    
C11   H36   S    
N10   N23   A    
C99   H58   S    
C9    H34   S    
C48   H29   S    
H70   N29   S    
N2    N20   A    
C98   H53   S    
C96   H46   S    
H115  N51   S    
C95   H43   S    
C13   H38   S    
C42   H2    S    
C69   C88   S    
C44   N21   A    
C81   C90   S    
H104  N46   S    
C50   H66   S    
N3    Ni2   S    
C32   C53   A    
C102  H118  S    
N16   Ni8   S    
C6    H21   S    
C45   N22   A    
C43   N20   A    
C15   O2    S    
H65   N27   S    
C46   N24   A    
C31   O15   S    
C5    O6    S    
C104  H6    S    
C71   N49   S    
C26   O11   S    
C100  H59   S    
C72   N54   A    
C7    H22   S    
C101  H62   S    
C16   C54   S    
C38   N16   A    
C63   C91   S    
C73   C77   S    
N45   Ni3   S    
C17   H33   S    
C75   C79   S    
C76   C85   S    
N14   Ni7   S    
C1    H1    S    
N4    Ni1   S    
H114  N51   S    
C33   N28   S    
C42   N19   A    
N22   Ni8   S    
C35   N13   A    
C21   C49   S    
C33   C52   A    
C62   C86   S    
C34   C51   A    
H93   N40   S    
C2    C68   S    
C96   H48   S    
N15   N54   A    
C77   C94   S    
C12   H37   S    
C69   C82   S    
C13   C75   S    
H102  N44   S    
C35   C49   A    
N21   N56   A    
H82   N35   S    
N8    N22   A    
C43   C59   A    
H75   N31   S    
H96   N42   S    
C81   N41   S    
C68   C85   S    
C78   N38   S    
C6    H19   S    
C70   C87   S    
C9    C92   S    
C30   O14   S    
N12   Ni2   S    
C4    O5    S    
H94   N41   S    
C36   C57   A    
C44   C58   A    
C104  H8    S    
C6    O7    S    
C5    H18   S    
C25   N3    A    
C100  H61   S    
C30   N7    A    
C101  H64   S    
C39   N34   A    
C67   C94   S    
C73   N50   S    
C37   N32   S    
N17   Ni7   S    
C93   H40   S    
C18   C55   S    
N53   Ni4   S    
C40   C54   A    
N54   Ni3   S    
C16   O3    S    
C17   N12   A    
C19   O5    S    
C61   N53   A    
H109  N49   S    
C23   O1    S    
C3    H10   S    
N24   Ni7   S    
C103  H3    S    
C7    O8    S    
N9    N34   A    
C2    H31   S    
C24   O9    S    
C71   C90   S    
C24   C59   A    
C55   C61   A    
N17   N45   A    
N8    Ni3   S    
C47   N25   A    
C30   C65   A    
C84   C92   S    
C7    H23   S    
C72   H88   S    
C78   C87   S    
C12   C74   S    
C8    H32   S    
C79   N39   S    
C80   N40   S    
C22   O8    S    
C17   C51   A    
C66   C90   S    
C15   C19   D    
H73   N30   S    
C32   N27   S    
C50   C54   A    
H86   N37   S    
C71   C76   S    
H108  N48   S    
C74   N51   S    
N11   Ni6   S    
C80   C89   S    
N18   Ni6   S    
C99   H57   S    
C19   C52   S    
N9    Ni5   S    
C98   H54   S    
C26   N4    A    
C8    C79   S    
N11   N12   A    
C4    H15   S    
C97   H49   S    
N6    N25   A    
C40   N17   A    
C104  O3    S    
C41   C62   A    
C79   C88   S    
C102  H119  S    
C32   N9    A    
C36   N14   A    
C28   H44   S    
C5    H16   S    
H90   N39   S    
H87   N38   S    
C14   C20   D    
C83   H99   S    
C11   C73   S    
N6    Ni3   S    
C50   N45   A    
C31   N8    A    
H84   N36   S    
H85   N37   S    
N34   Ni2   S    
C8    C91   S    
C96   O10   S    
N55   Ni4   S    
C27   C63   A    
N19   Ni5   S    
H107  N48   S    
H97   N42   S    
C64   C92   S    
C2    C76   S    
H100  N43   S    
C1    N1    A    
C67   C86   S    
C16   C22   D    
H111  N49   S    
C39   H55   S    
N21   Ni6   S    
C27   O12   S    
C4    H12   S    
C67   C80   S    
H89   N38   S    
C20   C53   S    
C60   C85   S    
C10   C81   S    
C61   H77   S    
C93   O1    S    
C47   H28   S    
C103  H5    S    
N2    Ni1   S    
C73   C89   S    
N23   Ni1   S    
C3    H11   S    
C41   H110  S    
C39   C53   A    
N10   Ni6   S    
C9    C78   S    
C97   H51   S    
C7    H25   S    
C11   C80   S    
H72   N30   S    
C74   C78   S    
N1    Ni1   S    
C29   O13   S    
C31   C66   A    
C14   C56   S    
N15   Ni8   S    
C67   N44   S    
C75   N52   S    
H116  N52   S    
N7    N24   A    
C97   O11   S    
C6    H20   S    
C98   O12   S    
C58   C87   S    
H76   N32   S    
N56   Ni2   S    
N3    N19   A    
C5    H17   S    
H117  N52   S    
C101  H63   S    
C59   C88   S    
H81   N35   S    
H106  N47   S    
H79   N33   S    
C93   H41   S    
C103  H4    S    
C95   H45   S    
H98   N43   S    
N5    N26   A    
C93   H39   S    
N20   Ni5   S    
C99   H56   S    
C48   N26   A    
C15   C57   S    
C4    H14   S    
C24   N2    A    
C40   N35   S    
H71   N29   S    
H113  N50   S    
H83   N36   S    
N7    Ni4   S    
C82   N42   S    
N14   N55   A    
C3    H9    S    
C42   C60   A    
C46   H27   S    
C103  O2    S    
H74   N31   S    
N5    Ni4   S    
C97   H50   S    
C96   H47   S    
H68   N28   S    
H91   N39   S    
C100  H60   S    
C68   N46   S    
C69   N47   S    
C70   N48   S    
H101  N44   S    
C43   H13   S    
C77   C86   S    
N25   Ni7   S    
C38   N33   S    
C44   H24   S    
N26   Ni8   S    
C12   C87   S    
C104  H7    S    
C23   N56   A    
C75   C91   S    
H80   N33   S    
C41   N18   A    
C26   C62   A    
C28   C52   A    
H78   N32   S    
C13   C88   S    
C94   H30   S    
C100  O14   S    
C101  O15   S    
C102  O16   S    
H105  N47   S    
N4    N18   A    
C10   H35   S    
C45   C66   A    
H112  N50   S    
N16   N53   A    
C14   O16   S    
C1    C49   A    
C33   N10   A    
C22   C51   S    
