data_mof_unit_62527.cif
_audit_creation_date              2012-12-10T20:26:53-0500
_audit_creation_method            fapswitch 2.2
_symmetry_space_group_name_H-M    P1
_symmetry_Int_Tables_number       1
_space_group_crystal_system       triclinic
_cell_length_a                    41.359061
_cell_length_b                    35.490197
_cell_length_c                    21.676876
_cell_angle_alpha                 90.000567
_cell_angle_beta                  120.900477
_cell_angle_gamma                 89.999814
_cell_volume                      27301.9551902

loop_
_atom_site_label
_atom_site_type_symbol
_atom_type_description
_atom_site_fract_x
_atom_site_fract_y
_atom_site_fract_z
_atom_type_partial_charge
C1    C     C_R   0.073426 0.000026 0.073348 0.924519
C2    C     C_R   0.926574 0.000026 0.926652 0.924503
C3    C     C_R   0.573426 0.500026 0.073348 0.924552
C4    C     C_R   0.426574 0.500026 0.926653 0.924562
C5    C     C_R   0.000757 0.999457 0.314338 -0.171538
C6    C     C_R   0.999243 0.999457 0.685662 -0.171529
C7    C     C_R   0.500757 0.499458 0.314338 -0.171540
C8    C     C_R   0.499243 0.499459 0.685666 -0.171571
C9    C     C_R   0.024893 0.024393 0.306306 -0.100187
C10   C     C_R   0.975107 0.024393 0.693694 -0.100176
C11   C     C_R   0.524893 0.524394 0.306306 -0.100176
C12   C     C_R   0.475083 0.524372 0.693676 -0.100143
C13   C     C_R   0.026109 0.023164 0.243235 -0.061884
C14   C     C_R   0.973891 0.023165 0.756766 -0.061887
C15   C     C_R   0.526109 0.523165 0.243234 -0.061887
C16   C     C_R   0.473870 0.523143 0.756751 -0.061925
C17   C     C_R   0.000314 0.999751 0.186642 -0.167468
C18   C     C_R   0.999685 0.999750 0.813357 -0.167457
C19   C     C_R   0.500314 0.499751 0.186642 -0.167455
C20   C     C_R   0.499686 0.499751 0.813361 -0.167382
C21   C     C_R   0.974677 0.976412 0.193255 -0.090322
C22   C     C_R   0.025323 0.976411 0.806744 -0.090315
C23   C     C_R   0.474677 0.476413 0.193255 -0.090308
C24   C     C_R   0.525346 0.476439 0.806771 -0.090310
C25   C     C_R   0.086750 0.045567 0.410853 -0.092628
C26   C     C_R   0.913249 0.045572 0.589154 -0.092646
C27   C     C_R   0.586750 0.545571 0.410850 -0.092643
C28   C     C_R   0.413198 0.545494 0.589142 -0.092677
C29   C     C_R   0.108634 0.072246 0.463450 -0.128625
C30   C     C_R   0.891366 0.072252 0.536560 -0.128624
C31   C     C_R   0.608633 0.572251 0.463446 -0.128616
C32   C     C_R   0.391287 0.572149 0.536516 -0.128634
C33   C     C_R   0.092302 0.105809 0.468099 -0.100000
C34   C     C_R   0.907700 0.105813 0.531909 -0.100000
C35   C     C_R   0.592300 0.605813 0.468096 -0.099993
C36   C     C_R   0.407591 0.605716 0.531797 -0.100013
C37   C     C_R   0.054050 0.112711 0.420252 -0.115619
C38   C     C_R   0.945954 0.112712 0.579753 -0.115621
C39   C     C_R   0.554046 0.612713 0.420250 -0.115620
C40   C     C_R   0.445842 0.612646 0.579605 -0.115633
C41   C     C_R   0.031949 0.085893 0.368278 -0.099874
C42   C     C_R   0.968054 0.085892 0.631724 -0.099872
C43   C     C_R   0.531946 0.585893 0.368277 -0.099870
C44   C     C_R   0.467970 0.585852 0.631609 -0.099794
C45   C     C_R   0.999739 0.999966 0.119912 0.925397
C46   C     C_R   0.000260 0.999965 0.880087 0.925383
C47   C     C_R   0.499739 0.499966 0.119912 0.925385
C48   C     C_R   0.500261 0.499966 0.880089 0.925465
C49   C     C_R   0.048252 0.052261 0.363100 0.159469
C50   C     C_R   0.951749 0.052262 0.636903 0.159455
C51   C     C_R   0.548251 0.552262 0.363099 0.159458
C52   C     C_R   0.451696 0.552215 0.636856 0.159589
C53   C     C_R   0.326829 0.017023 0.284441 -0.134762
C54   C     C_R   0.673170 0.017024 0.715560 -0.134748
C55   C     C_R   0.826829 0.517023 0.284444 -0.134774
C56   C     C_R   0.173171 0.517022 0.715561 -0.134763
C57   C     C_R   0.365822 0.017422 0.323398 -0.201377
C58   C     C_R   0.634177 0.017422 0.676603 -0.201393
C59   C     C_R   0.865822 0.517421 0.323399 -0.201369
C60   C     C_R   0.134178 0.517420 0.676604 -0.201379
C61   C     C_R   0.385588 0.996671 0.387020 -0.108439
C62   C     C_R   0.614412 0.996671 0.612980 -0.108432
C63   C     C_R   0.885588 0.496671 0.387021 -0.108434
C64   C     C_R   0.114412 0.496671 0.612980 -0.108437
C65   C     C_R   0.365939 0.974378 0.411518 -0.099753
C66   C     C_R   0.634061 0.974379 0.588481 -0.099769
C67   C     C_R   0.865940 0.474378 0.411520 -0.099756
C68   C     C_R   0.134061 0.474380 0.588479 -0.099752
C69   C     C_R   0.326050 0.973898 0.371499 -0.075697
C70   C     C_R   0.673950 0.973901 0.628499 -0.075678
C71   C     C_R   0.826051 0.473898 0.371503 -0.075689
C72   C     C_R   0.173950 0.473900 0.628498 -0.075692
C73   C     C_R   0.307033 0.995643 0.308136 0.051679
C74   C     C_R   0.692967 0.995645 0.691863 0.051675
C75   C     C_R   0.807034 0.495643 0.308141 0.051692
C76   C     C_R   0.192967 0.495643 0.691863 0.051680
C77   C     C_1   0.266912 0.997409 0.267282 0.065001
C78   C     C_1   0.733088 0.997411 0.732718 0.064975
C79   C     C_1   0.766912 0.497410 0.267289 0.064980
C80   C     C_1   0.233088 0.497410 0.732718 0.064993
C81   C     C_1   0.233298 0.999030 0.233186 0.052546
C82   C     C_1   0.766702 0.999032 0.766814 0.052534
C83   C     C_1   0.733298 0.499031 0.233196 0.052576
C84   C     C_1   0.266702 0.499030 0.766813 0.052537
C85   C     C_R   0.173732 0.034385 0.159105 0.000621
C86   C     C_R   0.826269 0.034386 0.840898 0.000623
C87   C     C_R   0.673732 0.534392 0.159154 0.000494
C88   C     C_R   0.326268 0.534385 0.840896 0.000630
C89   C     C_R   0.922283 0.897419 0.061769 -0.163462
C90   C     C_R   0.077716 0.897417 0.938227 -0.163462
C91   C     C_R   0.422283 0.397417 0.061771 -0.163453
C92   C     C_R   0.577820 0.397500 0.938339 -0.163445
C93   C     C_R   0.134241 0.033639 0.120846 -0.194849
C94   C     C_R   0.865760 0.033639 0.879158 -0.194843
C95   C     C_R   0.634241 0.533645 0.120891 -0.194833
C96   C     C_R   0.365759 0.533639 0.879156 -0.194886
C97   C     C_R   0.114613 0.000267 0.114691 -0.051961
C98   C     C_R   0.885387 0.000267 0.885309 -0.051964
C99   C     C_R   0.614614 0.500267 0.114695 -0.051949
C100  C     C_R   0.385387 0.500267 0.885309 -0.051923
C101  C     C_R   0.134494 0.967301 0.148010 -0.191591
C102  C     C_R   0.865506 0.967302 0.851988 -0.191584
C103  C     C_R   0.634495 0.467295 0.147976 -0.191729
C104  C     C_R   0.365506 0.467301 0.851989 -0.191547
C105  C     C_R   0.173578 0.967665 0.187128 -0.124502
C106  C     C_R   0.826421 0.967666 0.812870 -0.124504
C107  C     C_R   0.673579 0.467659 0.187095 -0.124460
C108  C     C_R   0.326422 0.467665 0.812871 -0.124510
C109  C     C_R   0.193225 0.000739 0.192490 0.049532
C110  C     C_R   0.806775 0.000740 0.807511 0.049534
C111  C     C_R   0.693226 0.500739 0.192499 0.049564
C112  C     C_R   0.306775 0.500738 0.807510 0.049530
C113  C     C_R   0.000000 0.073413 0.500000 0.861693
C114  C     C_R   0.500000 0.573413 0.500001 0.861674
C115  C     C_R   0.000233 0.000059 0.380051 0.921462
C116  C     C_R   0.999767 0.000058 0.619949 0.921440
C117  C     C_R   0.500233 0.500059 0.380051 0.921444
C118  C     C_R   0.499767 0.500057 0.619950 0.921286
C119  C     C_R   1.000000 0.926587 0.500000 0.961467
C120  C     C_R   0.500000 0.426586 0.500001 0.961304
C121  C     C_R   0.500000 0.073251 0.500000 0.856534
C122  C     C_R   1.000000 0.573252 0.500000 0.856532
C123  C     C_R   0.426761 0.998941 0.427175 0.898995
C124  C     C_R   0.573239 0.998940 0.572825 0.899045
C125  C     C_R   0.926761 0.498940 0.427175 0.899001
C126  C     C_R   0.073239 0.498941 0.572825 0.898996
C127  C     C_R   0.951128 0.917769 0.118476 -0.076356
C128  C     C_R   0.048870 0.917767 0.881521 -0.076371
C129  C     C_R   0.451128 0.417768 0.118478 -0.076370
C130  C     C_R   0.548952 0.417823 0.881619 -0.076465
C131  C     C_R   0.500000 0.926560 0.500000 0.931223
C132  C     C_R   0.000000 0.426560 0.500000 0.931194
C133  C     C_R   0.499558 0.826206 0.555524 -0.146784
C134  C     C_R   0.500444 0.826205 0.444475 -0.146791
C135  C     C_R   0.999551 0.326205 0.555516 -0.146789
C136  C     C_R   0.000450 0.326205 0.444481 -0.146791
C137  C     C_R   0.499575 0.865403 0.555619 -0.178809
C138  C     C_R   0.500425 0.865403 0.444379 -0.178803
C139  C     C_R   0.999569 0.365403 0.555613 -0.178808
C140  C     C_R   0.000432 0.365403 0.444386 -0.178794
C141  C     C_R   0.500000 0.885297 0.499999 -0.009575
C142  C     C_R   0.000000 0.385297 0.499999 -0.009572
C143  C     C_R   0.500001 0.806746 0.499999 0.152957
C144  C     C_R   0.000001 0.306746 0.499998 0.152957
C145  C     C_1   0.500001 0.766703 0.499999 -0.052901
C146  C     C_1   0.000001 0.266703 0.499998 -0.052906
C147  C     C_1   0.000001 0.233039 0.499998 -0.054988
C148  C     C_1   0.500001 0.733039 0.500000 -0.054990
C149  C     C_R   0.032427 0.173546 0.549554 -0.173962
C150  C     C_R   0.967574 0.173546 0.450442 -0.173960
C151  C     C_R   0.532426 0.673546 0.549560 -0.173916
C152  C     C_R   0.467575 0.673546 0.450443 -0.173930
C153  C     C_R   0.032464 0.134357 0.549617 -0.220599
C154  C     C_R   0.967536 0.134356 0.450381 -0.220598
C155  C     C_R   0.532464 0.634357 0.549623 -0.220538
C156  C     C_R   0.467537 0.634356 0.450381 -0.220664
C157  C     C_R   0.000000 0.114547 0.499999 -0.039189
C158  C     C_R   0.500000 0.614547 0.500003 -0.039227
C159  C     C_R   0.944977 0.955129 0.130764 0.121889
C160  C     C_R   0.055023 0.955128 0.869235 0.121860
C161  C     C_R   0.444976 0.455129 0.130764 0.121855
C162  C     C_R   0.555069 0.455186 0.869280 0.121550
C163  C     C_R   0.000001 0.193002 0.499998 0.153399
C164  C     C_R   0.500001 0.693002 0.500001 0.153415
C165  C     C_R   0.499836 0.173621 0.443882 -0.155759
C166  C     C_R   0.500165 0.173621 0.556120 -0.155756
C167  C     C_R   0.999758 0.673621 0.443802 -0.155758
C168  C     C_R   0.000243 0.673622 0.556200 -0.155756
C169  C     C_R   0.499837 0.134421 0.443802 -0.189580
C170  C     C_R   0.500163 0.134421 0.556199 -0.189581
C171  C     C_R   0.999759 0.634421 0.443723 -0.189572
C172  C     C_R   0.000241 0.634422 0.556278 -0.189573
C173  C     C_R   0.500000 0.114523 0.500000 -0.039831
C174  C     C_R   0.000000 0.614523 0.500001 -0.039810
C175  C     C_R   0.500000 0.193079 0.500001 0.154527
C176  C     C_R   0.000000 0.693080 0.500001 0.154544
C177  C     C_1   0.500000 0.233120 0.500001 -0.057952
C178  C     C_1   0.000000 0.733121 0.500001 -0.057957
C179  C     C_1   0.000000 0.766784 0.500001 -0.052044
C180  C     C_1   0.500000 0.266784 0.500001 -0.052061
C181  C     C_R   0.034023 0.826282 0.538826 -0.157783
C182  C     C_R   0.965977 0.826282 0.461175 -0.157784
C183  C     C_R   0.534035 0.326281 0.538591 -0.157718
C184  C     C_R   0.465965 0.326281 0.461410 -0.157733
C185  C     C_R   0.034071 0.865479 0.538852 -0.155322
C186  C     C_R   0.965929 0.865479 0.461149 -0.155331
C187  C     C_R   0.534083 0.365478 0.538620 -0.155415
C188  C     C_R   0.465917 0.365478 0.461382 -0.155462
C189  C     C_R   1.000000 0.885353 0.500001 -0.010728
C190  C     C_R   0.500000 0.385352 0.500001 -0.010581
C191  C     C_R   0.909643 0.971828 0.086358 -0.162774
C192  C     C_R   0.090358 0.971826 0.913641 -0.162762
C193  C     C_R   0.409642 0.471827 0.086357 -0.162771
C194  C     C_R   0.590392 0.471914 0.913648 -0.162735
C195  C     C_R   0.000000 0.806824 0.500000 0.149922
C196  C     C_R   0.500000 0.306823 0.500000 0.149927
C197  C     C_R   0.880064 0.951066 0.030742 0.018207
C198  C     C_R   0.119937 0.951063 0.969256 0.018194
C199  C     C_R   0.380062 0.451064 0.030743 0.018192
C200  C     C_R   0.619994 0.451180 0.969275 0.018189
C201  C     C_R   0.886881 0.913840 0.018302 -0.157308
C202  C     C_R   0.113119 0.913837 0.981695 -0.157313
C203  C     C_R   0.386880 0.413838 0.018304 -0.157313
C204  C     C_R   0.613211 0.413951 0.981766 -0.157368
C205  C     C_R   0.976411 0.974595 0.259110 -0.053706
C206  C     C_R   0.023590 0.974596 0.740890 -0.053702
C207  C     C_R   0.476410 0.474597 0.259109 -0.053736
C208  C     C_R   0.523615 0.474624 0.740921 -0.053664
H1    H     H_    0.864787 0.897281 0.975413 0.178846
H2    H     H_    0.135213 0.897278 0.024584 0.178845
H3    H     H_    0.364786 0.397279 0.975414 0.178847
H4    H     H_    0.635324 0.397414 0.024666 0.178851
H5    H     H_    0.109296 0.126513 0.508620 0.133115
H6    H     H_    0.890707 0.126518 0.491391 0.133115
H7    H     H_    0.609293 0.626518 0.508615 0.133118
H8    H     H_    0.390576 0.626401 0.491254 0.133113
H9    H     H_    0.041506 0.138843 0.423437 0.150945
H10   H     H_    0.958500 0.138843 0.576567 0.150945
H11   H     H_    0.541501 0.638844 0.423435 0.150942
H12   H     H_    0.458364 0.638781 0.576367 0.150923
H13   H     H_    0.002301 0.091445 0.331622 0.126581
H14   H     H_    0.997703 0.091442 0.668377 0.126581
H15   H     H_    0.502297 0.591444 0.331622 0.126584
H16   H     H_    0.497617 0.591425 0.668234 0.126527
H17   H     H_    0.311992 0.033730 0.235792 0.172569
H18   H     H_    0.688007 0.033730 0.764210 0.172567
H19   H     H_    0.811991 0.533730 0.235795 0.172548
H20   H     H_    0.188008 0.533727 0.764213 0.172567
H21   H     H_    0.380656 0.034547 0.304413 0.160285
H22   H     H_    0.619344 0.034546 0.695589 0.160286
H23   H     H_    0.880655 0.534546 0.304413 0.160276
H24   H     H_    0.119345 0.534544 0.695592 0.160279
H25   H     H_    0.118663 0.058979 0.094320 0.192648
H26   H     H_    0.881339 0.058979 0.905685 0.192651
H27   H     H_    0.618664 0.558991 0.094395 0.192674
H28   H     H_    0.381337 0.558979 0.905682 0.192641
H29   H     H_    0.119863 0.941284 0.144075 0.163079
H30   H     H_    0.880136 0.941285 0.855920 0.163078
H31   H     H_    0.619864 0.441273 0.144009 0.163090
H32   H     H_    0.380137 0.441284 0.855923 0.163077
H33   H     H_    0.927189 0.868645 0.052118 0.141221
H34   H     H_    0.072809 0.868643 0.947877 0.141222
H35   H     H_    0.427189 0.368644 0.052121 0.141225
H36   H     H_    0.572941 0.368725 0.948030 0.141241
H37   H     H_    0.188594 0.941920 0.212823 0.173648
H38   H     H_    0.811405 0.941921 0.787173 0.173639
H39   H     H_    0.688595 0.441909 0.212760 0.173624
H40   H     H_    0.311405 0.441920 0.787174 0.173647
H41   H     H_    0.499205 0.811098 0.598621 0.143687
H42   H     H_    0.500797 0.811097 0.401378 0.143684
H43   H     H_    0.999193 0.311097 0.598608 0.143684
H44   H     H_    0.000808 0.311097 0.401389 0.143683
H45   H     H_    0.499215 0.880062 0.599078 0.161049
H46   H     H_    0.500785 0.880061 0.400921 0.161045
H47   H     H_    0.999204 0.380062 0.599066 0.161047
H48   H     H_    0.000797 0.380061 0.400933 0.161044
H49   H     H_    0.057592 0.188648 0.588006 0.147001
H50   H     H_    0.942409 0.188647 0.411990 0.147000
H51   H     H_    0.557592 0.688647 0.588013 0.146992
H52   H     H_    0.442410 0.688647 0.411988 0.147002
H53   H     H_    0.057762 0.119589 0.588420 0.165860
H54   H     H_    0.942238 0.119589 0.411578 0.165859
H55   H     H_    0.557761 0.619589 0.588428 0.165858
H56   H     H_    0.442239 0.619589 0.411577 0.165869
H57   H     H_    0.499707 0.188731 0.400315 0.141700
H58   H     H_    0.500293 0.188732 0.599687 0.141701
H59   H     H_    0.999567 0.688731 0.400173 0.141690
H60   H     H_    0.000434 0.688732 0.599829 0.141690
H61   H     H_    0.499704 0.119764 0.399859 0.164174
H62   H     H_    0.500296 0.119765 0.600142 0.164174
H63   H     H_    0.999564 0.619765 0.399717 0.164157
H64   H     H_    0.000436 0.619765 0.600284 0.164155
H65   H     H_    0.060431 0.811174 0.569000 0.142840
H66   H     H_    0.939569 0.811173 0.431001 0.142841
H67   H     H_    0.560453 0.311173 0.568580 0.142839
H68   H     H_    0.439547 0.311173 0.431421 0.142837
H69   H     H_    0.060687 0.880164 0.569354 0.164082
H70   H     H_    0.939313 0.880163 0.430647 0.164082
H71   H     H_    0.560709 0.380162 0.568934 0.164010
H72   H     H_    0.439291 0.380161 0.431068 0.163995
H73   H     H_    0.978185 0.904500 0.152868 0.131773
H74   H     H_    0.021813 0.904499 0.847129 0.131782
H75   H     H_    0.478185 0.404500 0.152870 0.131781
H76   H     H_    0.521904 0.404531 0.847257 0.131846
H77   H     H_    0.904984 0.000524 0.097080 0.172935
H78   H     H_    0.095017 0.000522 0.902920 0.172943
H79   H     H_    0.404983 0.500524 0.097079 0.172943
H80   H     H_    0.595024 0.500612 0.902885 0.173019
H81   H     H_    0.099663 0.019753 0.407291 0.130251
H82   H     H_    0.900334 0.019759 0.592717 0.130259
H83   H     H_    0.599664 0.519758 0.407288 0.130252
H84   H     H_    0.400307 0.519676 0.592756 0.130240
H85   H     H_    0.138282 0.066982 0.500392 0.137803
H86   H     H_    0.861717 0.066991 0.499621 0.137806
H87   H     H_    0.638282 0.566989 0.500386 0.137807
H88   H     H_    0.361640 0.566864 0.499605 0.137819
O1    O     O_R   0.055440 0.968710 0.055440 -0.630997
O2    O     O_R   0.944560 0.968710 0.944560 -0.630999
O3    O     O_R   0.555440 0.468710 0.055440 -0.630993
O4    O     O_R   0.444560 0.468710 0.944560 -0.630993
O5    O     O_R   0.444560 0.999900 0.496290 -0.604579
O6    O     O_R   0.555440 0.999900 0.503710 -0.604580
O7    O     O_R   0.944560 0.499900 0.496290 -0.604570
O8    O     O_R   0.055440 0.499900 0.503710 -0.604568
O9    O     O_R   0.444560 0.999880 0.392840 -0.616781
O10   O     O_R   0.555440 0.999880 0.607160 -0.616784
O11   O     O_R   0.944560 0.499880 0.392840 -0.616789
O12   O     O_R   0.055440 0.499880 0.607160 -0.616791
O13   O     O_R   0.500000 0.944470 0.551750 -0.617669
O14   O     O_R   0.500000 0.944470 0.448250 -0.617659
O15   O     O_R   0.000000 0.444470 0.551750 -0.617667
O16   O     O_R   0.000000 0.444470 0.448250 -0.617665
O17   O     O_R   0.055440 0.031290 0.055450 -0.607420
O18   O     O_R   0.944560 0.031290 0.944550 -0.607425
O19   O     O_R   0.555440 0.531290 0.055450 -0.607441
O20   O     O_R   0.444560 0.531290 0.944550 -0.607443
O21   O     O_R   0.000000 0.968710 0.091620 -0.623453
O22   O     O_R   0.000000 0.968710 0.908380 -0.623453
O23   O     O_R   0.500000 0.468710 0.091620 -0.623455
O24   O     O_R   0.500000 0.468710 0.908380 -0.623446
O25   O     O_R   1.000000 0.031290 0.091630 -0.612139
O26   O     O_R   1.000000 0.031290 0.908370 -0.612140
O27   O     O_R   0.500000 0.531290 0.091630 -0.612142
O28   O     O_R   0.500000 0.531290 0.908370 -0.612160
O29   O     O_R   0.968720 0.055450 0.468730 -0.623431
O30   O     O_R   0.031280 0.055450 0.531270 -0.623430
O31   O     O_R   0.468720 0.555450 0.468730 -0.623425
O32   O     O_R   0.531280 0.555450 0.531270 -0.623413
O33   O     O_R   0.968700 0.000020 0.377090 -0.614129
O34   O     O_R   0.031300 0.000020 0.622910 -0.614132
O35   O     O_R   0.468700 0.500020 0.377090 -0.614114
O36   O     O_R   0.531300 0.500020 0.622910 -0.614074
O37   O     O_R   0.031300 1.000000 0.439680 -0.618389
O38   O     O_R   0.968700 0.000000 0.560320 -0.618387
O39   O     O_R   0.531300 0.500000 0.439680 -0.618395
O40   O     O_R   0.468700 0.500000 0.560320 -0.618404
O41   O     O_R   0.968690 0.944590 0.468690 -0.616834
O42   O     O_R   0.031310 0.944590 0.531310 -0.616839
O43   O     O_R   0.468690 0.444590 0.468690 -0.616849
O44   O     O_R   0.531310 0.444590 0.531310 -0.616839
O45   O     O_R   0.500000 0.055330 0.551710 -0.624195
O46   O     O_R   0.500000 0.055330 0.448290 -0.624197
O47   O     O_R   0.000000 0.555330 0.551710 -0.624192
O48   O     O_R   1.000000 0.555330 0.448290 -0.624190
Zn1   Zn    Zn3+2 0.000000 0.958210 0.000000 0.964313
Zn2   Zn    Zn3+2 0.500000 0.458210 0.000000 0.964316
Zn3   Zn    Zn3+2 0.000000 0.041790 0.000000 1.034104
Zn4   Zn    Zn3+2 0.500000 0.541790 0.000000 1.034090
Zn5   Zn    Zn3+2 0.958200 0.000020 0.458210 0.996664
Zn6   Zn    Zn3+2 0.041800 0.000020 0.541790 0.996661
Zn7   Zn    Zn3+2 0.458200 0.500020 0.458210 0.996657
Zn8   Zn    Zn3+2 0.541800 0.500020 0.541790 0.996698
Zn9   Zn    Zn3+2 0.500000 0.999910 0.569080 1.006577
Zn10  Zn    Zn3+2 0.500000 0.999910 0.430920 1.006565
Zn11  Zn    Zn3+2 0.000000 0.499910 0.569080 1.006578
Zn12  Zn    Zn3+2 0.000000 0.499910 0.430920 1.006579
C209  C     C_2   0.387187 0.949093 0.474273 0.950692
O49   O     O_2   0.385974 0.953913 0.528878 -0.560863
O50   O     O_R   0.409681 0.920572 0.471402 -0.815488
H89   H     H_    0.423279 0.905482 0.517607 0.342185
C210  C     C_2   0.612814 0.949093 0.525726 0.950646
O51   O     O_2   0.614042 0.953900 0.471134 -0.560874
O52   O     O_R   0.590305 0.920584 0.528581 -0.815485
H90   H     H_    0.576711 0.905491 0.482379 0.342184
C211  C     C_2   0.887188 0.449093 0.474275 0.950684
O53   O     O_2   0.885974 0.453911 0.528880 -0.560862
O54   O     O_R   0.909683 0.420572 0.471404 -0.815488
H91   H     H_    0.923281 0.405482 0.517608 0.342181
C212  C     C_2   0.112813 0.449097 0.525721 0.950689
O55   O     O_2   0.114027 0.453918 0.471116 -0.560866
O56   O     O_R   0.090319 0.420574 0.528587 -0.815485
H92   H     H_    0.076721 0.405485 0.482380 0.342182
C213  C     C_2   0.304062 0.949785 0.393110 0.904486
O57   O     O_2   0.310179 0.950934 0.454553 -0.566241
O58   O     O_R   0.275684 0.926334 0.342302 -0.806863
H93   H     H_    0.262373 0.911670 0.362966 0.347870
C214  C     C_2   0.695939 0.949791 0.606886 0.904510
O59   O     O_2   0.689835 0.950955 0.545453 -0.566218
O60   O     O_R   0.724306 0.926327 0.657685 -0.806857
H94   H     H_    0.737620 0.911668 0.637023 0.347868
C215  C     C_2   0.804064 0.449786 0.393116 0.904491
O61   O     O_2   0.810180 0.450936 0.454559 -0.566239
O62   O     O_R   0.775686 0.426333 0.342309 -0.806860
H95   H     H_    0.762375 0.411671 0.362974 0.347867
C216  C     C_2   0.195937 0.449790 0.606882 0.904484
O63   O     O_2   0.189822 0.450943 0.545440 -0.566245
O64   O     O_R   0.224314 0.426336 0.657686 -0.806861
H96   H     H_    0.237626 0.411675 0.637019 0.347867
C217  C     C_2   0.193305 0.070328 0.162292 0.934623
O65   O     O_2   0.176107 0.100174 0.147810 -0.615706
O66   O     O_R   0.230995 0.070369 0.180413 -0.812962
H97   H     H_    0.240713 0.096576 0.180269 0.350880
C218  C     C_2   0.806696 0.070329 0.837714 0.934632
O67   O     O_2   0.823897 0.100174 0.852210 -0.615708
O68   O     O_R   0.769004 0.070371 0.819581 -0.812965
H98   H     H_    0.759287 0.096578 0.819728 0.350881
C219  C     C_2   0.693306 0.570342 0.162386 0.934672
O69   O     O_2   0.676110 0.600188 0.147954 -0.615684
O70   O     O_R   0.730993 0.570389 0.180490 -0.812963
H99   H     H_    0.740712 0.596602 0.180382 0.350888
C220  C     C_2   0.306695 0.570327 0.837710 0.934620
O71   O     O_2   0.323892 0.600174 0.852186 -0.615710
O72   O     O_R   0.269007 0.570367 0.819600 -0.812957
H100  H     H_    0.259288 0.596575 0.819743 0.350879
C221  C     C_2   0.841892 0.967653 0.987369 0.912440
O73   O     O_2   0.836537 0.000811 0.994799 -0.624198
O74   O     O_R   0.811734 0.945258 0.938292 -0.806920
H101  H     H_    0.787119 0.959714 0.912255 0.354472
C222  C     C_2   0.158109 0.967649 0.012629 0.912440
O75   O     O_2   0.163466 0.000808 0.005201 -0.624187
O76   O     O_R   0.188267 0.945254 0.061706 -0.806916
H102  H     H_    0.212883 0.959710 0.087743 0.354472
C223  C     C_2   0.341891 0.467651 0.987369 0.912442
O77   O     O_2   0.336534 0.500809 0.994799 -0.624187
O78   O     O_R   0.311733 0.445256 0.938291 -0.806918
H103  H     H_    0.287117 0.459711 0.912254 0.354473
C224  C     C_2   0.658153 0.467799 0.012606 0.912478
O79   O     O_2   0.663476 0.500964 0.005149 -0.624166
O80   O     O_R   0.688338 0.445429 0.061673 -0.806913
H104  H     H_    0.712941 0.459906 0.087679 0.354465
C225  C     C_2   0.953889 0.945803 0.271004 0.930691
O81   O     O_2   0.969610 0.924302 0.322203 -0.653042
O82   O     O_R   0.914940 0.943418 0.224102 -0.789433
H105  H     H_    0.902994 0.922700 0.237971 0.345052
C226  C     C_2   0.046115 0.945806 0.728998 0.930678
O83   O     O_2   0.030394 0.924298 0.677808 -0.653035
O84   O     O_R   0.085068 0.943432 0.775893 -0.789422
H106  H     H_    0.097017 0.922715 0.762028 0.345049
C227  C     C_2   0.453886 0.445806 0.271001 0.930698
O85   O     O_2   0.469608 0.424298 0.322190 -0.652947
O86   O     O_R   0.414932 0.443432 0.224107 -0.789412
H107  H     H_    0.402984 0.422714 0.237972 0.345081
C228  C     C_2   0.546176 0.445863 0.729066 0.930729
O87   O     O_2   0.530472 0.424306 0.677943 -0.652899
O88   O     O_R   0.585147 0.443586 0.775903 -0.789370
H108  H     H_    0.597124 0.422887 0.762063 0.345071
C229  C     C_2   0.054731 0.045785 0.237178 0.928580
O89   O     O_2   0.075479 0.030395 0.220175 -0.640708
O90   O     O_R   0.057949 0.084490 0.251094 -0.788165
H109  H     H_    0.078501 0.096588 0.245490 0.351858
C230  C     C_2   0.945271 0.045788 0.762826 0.928566
O91   O     O_2   0.924517 0.030398 0.779816 -0.640703
O92   O     O_R   0.942063 0.084497 0.748927 -0.788150
H110  H     H_    0.921511 0.096597 0.754531 0.351853
C231  C     C_2   0.554729 0.545787 0.237176 0.928580
O93   O     O_2   0.575481 0.530398 0.220180 -0.640701
O94   O     O_R   0.557941 0.584495 0.251082 -0.788157
H111  H     H_    0.578493 0.596594 0.245478 0.351863
C232  C     C_2   0.445234 0.545743 0.762799 0.928504
O95   O     O_2   0.424500 0.530339 0.779821 -0.640753
O96   O     O_R   0.441988 0.584446 0.748852 -0.788143
H112  H     H_    0.421428 0.596530 0.754453 0.351863

loop_
_geom_bond_atom_site_label_1
_geom_bond_atom_site_label_2
_ccdc_geom_bond_type
C99   C103  A    
O84   H106  S    
C133  C137  A    
C209  O49   D    
C55   C59   A    
C226  O83   D    
C38   H10   S    
C136  C140  A    
C4    O20   A    
C120  O43   A    
C175  C177  S    
C179  C195  S    
C229  O89   D    
C135  C139  A    
C150  C163  A    
C84   C112  S    
C119  C189  S    
C123  O5    A    
C202  H2    S    
C13   C229  S    
C219  O70   S    
C188  H72   S    
C139  C142  A    
C95   C99   A    
C66   C210  S    
C29   C33   A    
C100  C104  A    
C69   C213  S    
C129  H75   S    
C9    C13   A    
C53   H17   S    
C134  C143  A    
C54   C74   A    
C11   C15   A    
C121  C173  S    
C12   C16   A    
O21   Zn1   S    
C232  O96   S    
C170  H62   S    
C2    O18   A    
C151  C155  A    
C180  C196  S    
C80   C84   T    
C23   C207  A    
O20   Zn4   S    
C223  O78   S    
C40   H12   S    
C155  C158  A    
C132  C142  S    
C21   C159  S    
C168  H60   S    
C41   C49   A    
C26   H82   S    
O47   Zn11  S    
C25   C29   A    
O3    Zn2   S    
C102  H30   S    
C56   H20   S    
C27   C31   A    
C28   C32   A    
C28   H84   S    
C62   C66   A    
C94   H26   S    
C167  C171  A    
C193  C199  A    
C17   C21   A    
C85   C217  S    
C19   C23   A    
O41   Zn5   S    
C78   C82   T    
C16   C20   A    
O43   Zn7   S    
C204  H4    S    
C183  C196  A    
C166  H58   S    
C72   C216  S    
C114  O32   A    
O30   Zn6   S    
C6    C116  S    
C63   C125  S    
C46   O26   A    
C47   O23   A    
C215  O61   D    
C48   O24   A    
O16   Zn12  S    
C192  H78   S    
O62   H95   S    
C145  C148  T    
C146  C147  T    
C89   C127  A    
C104  H32   S    
C207  C227  S    
C86   C110  A    
C59   C63   A    
C67   C211  S    
C138  C141  A    
C185  H69   S    
O58   H93   S    
C57   C61   A    
O26   Zn3   S    
C91   C129  A    
C187  H71   S    
C218  O67   D    
C108  H40   S    
O29   Zn5   S    
C60   C64   A    
C156  C158  A    
C221  O73   D    
C66   C70   A    
O23   Zn2   S    
C90   C202  A    
O19   Zn4   S    
C231  O93   D    
O46   Zn10  S    
C61   C65   A    
O50   H89   S    
C73   C77   S    
C92   C130  A    
O14   Zn10  S    
C103  C107  A    
C4    O4    A    
C113  C157  S    
C222  O75   D    
C211  O53   D    
C75   C79   S    
C117  O39   A    
C26   C30   A    
C200  C224  S    
C225  O81   D    
O42   Zn6   S    
O72   H100  S    
C7    C117  S    
C43   H15   S    
O80   H104  S    
O33   Zn5   S    
C59   H23   S    
C26   C50   A    
C62   C124  S    
C220  O71   D    
C151  H51   S    
C227  O85   D    
C48   O28   A    
C131  O13   A    
C171  H63   S    
C137  H45   S    
C64   C68   A    
C39   H11   S    
C122  O48   A    
C199  C223  S    
C19   C47   S    
O31   Zn7   S    
O38   Zn5   S    
O70   H99   S    
C22   C206  A    
C188  C190  A    
O44   Zn8   S    
C55   H19   S    
C149  C153  A    
C156  H56   S    
C85   C93   A    
C206  C226  S    
C194  C200  A    
C87   C95   A    
C198  C202  A    
C153  H53   S    
C131  C141  S    
C200  C204  A    
C55   C75   A    
C130  C162  A    
C176  C178  S    
O9    Zn10  S    
C5    C115  S    
C70   C214  S    
C203  H3    S    
C199  C203  A    
C201  H1    S    
C224  O80   S    
C27   C51   A    
C115  O37   A    
O8    Zn12  S    
C30   C34   A    
C101  H29   S    
C148  C164  S    
C152  C156  A    
C9    C49   S    
C7    C207  A    
C10   C14   A    
C29   H85   S    
C71   C215  S    
C119  O42   A    
O13   Zn9   S    
C122  C174  S    
C106  H38   S    
C3    O19   A    
C116  O34   A    
C113  O30   A    
C5    C9    A    
C58   H22   S    
O86   H107  S    
C8    C12   A    
C149  H49   S    
C208  C228  S    
C129  C161  A    
O48   Zn12  S    
C105  H37   S    
C42   C50   A    
C166  C170  A    
C192  C198  A    
C90   H34   S    
C191  H77   S    
C133  H41   S    
O4    Zn2   S    
C217  O66   S    
O25   Zn3   S    
C105  C109  A    
O10   Zn9   S    
C16   C232  S    
C18   C22   A    
C107  C111  A    
C136  H44   S    
C76   C80   S    
C135  H43   S    
C120  O44   A    
C118  O40   A    
C185  C189  A    
O12   Zn11  S    
C13   C17   A    
C61   C123  S    
O2    Zn1   S    
C155  H55   S    
O39   Zn8   S    
O5    Zn9   S    
C219  O69   D    
C36   H8    S    
C22   C160  S    
C96   C100  A    
C47   O27   A    
C172  C174  A    
C132  O15   A    
C37   C41   A    
C167  H59   S    
C6    C206  A    
O96   H112  S    
O32   Zn8   S    
C3    C99   S    
C40   C44   A    
C126  O8    A    
C151  C164  A    
C169  C173  A    
C182  C195  A    
C216  O64   S    
C42   H14   S    
C35   H7    S    
C186  H70   S    
C212  O56   S    
C58   C62   A    
O1    Zn1   S    
C88   C96   A    
C223  O77   D    
C93   C97   A    
C37   H9    S    
C172  H64   S    
C121  O46   A    
O35   Zn7   S    
O60   H94   S    
C15   C19   A    
C210  O52   S    
C166  C175  A    
O45   Zn9   S    
C1    O1    A    
C140  C142  A    
C85   C109  A    
C213  O58   S    
C54   C58   A    
C230  O92   S    
C87   C111  A    
C94   C98   A    
O56   H92   S    
O7    Zn11  S    
C168  C176  A    
C182  C186  A    
C45   O21   A    
C14   C18   A    
C114  C158  S    
C187  C190  A    
C117  O35   A    
C124  O10   A    
C161  C193  A    
C228  O88   S    
O52   H90   S    
C69   C73   A    
C44   H16   S    
C128  H74   S    
O18   Zn3   S    
C92   C204  A    
C182  H66   S    
C229  O90   S    
C209  O50   S    
C165  C169  A    
C226  O84   S    
C18   C46   S    
C181  H65   S    
C12   C52   S    
C31   H87   S    
C178  C179  T    
C32   H88   S    
C171  C174  A    
C53   C73   A    
O94   H111  S    
C159  C191  A    
C160  C192  A    
C154  C157  A    
C144  C146  S    
C34   H6    S    
C53   C57   A    
C93   H25   S    
C184  C196  A    
C24   C208  A    
C33   C37   A    
C56   C60   A    
C125  O11   A    
C139  H47   S    
O90   H109  S    
C126  O12   A    
C154  H54   S    
C183  C187  A    
C57   H21   S    
C77   C81   T    
C193  H79   S    
C194  H80   S    
O40   Zn7   S    
C20   C48   S    
C46   O22   A    
C115  O33   A    
C81   C109  S    
C64   C126  S    
C83   C111  S    
C10   C50   S    
C32   C36   A    
C104  C108  A    
C30   H86   S    
C216  O63   D    
C137  C141  A    
C33   H5    S    
C60   H24   S    
C116  O38   A    
C17   C45   S    
C6    C10   A    
O68   H98   S    
C186  C189  A    
C221  O74   S    
C136  C144  A    
C98   C102  A    
O36   Zn8   S    
C79   C83   T    
C43   C51   A    
C65   C69   A    
O27   Zn4   S    
O28   Zn4   S    
C67   C71   A    
C114  O31   A    
C153  C157  A    
C181  C195  A    
C25   C49   A    
C124  O6    A    
C205  C225  S    
C88   C112  A    
C108  C112  A    
C168  C172  A    
C103  H31   S    
C74   C78   S    
O15   Zn11  S    
O76   H102  S    
C215  O62   S    
C147  C163  S    
C138  H46   S    
C118  O36   A    
C170  C173  A    
C184  H68   S    
C89   C201  A    
C169  H61   S    
C56   C76   A    
C88   C220  S    
C1    O17   A    
C92   H36   S    
O34   Zn6   S    
C35   C39   A    
O54   H91   S    
O24   Zn2   S    
C72   C76   A    
C224  O79   D    
C8    C118  S    
O66   H97   S    
C41   H13   S    
C87   C219  S    
C7    C11   A    
C218  O68   S    
C82   C110  S    
C107  H39   S    
C38   C42   A    
C120  C190  S    
C211  O54   S    
C45   O25   A    
C119  O41   A    
O22   Zn1   S    
O37   Zn6   S    
C8    C208  A    
C21   C205  A    
C231  O94   S    
C113  O29   A    
C70   C74   A    
C54   H18   S    
C130  H76   S    
C86   C94   A    
C20   C24   A    
O74   H101  S    
C197  C201  A    
C140  H48   S    
C222  O76   S    
C68   C72   A    
C197  C221  S    
C225  O82   S    
C165  H57   S    
C95   H27   S    
C2    O2    A    
C220  O72   S    
C227  O86   S    
C101  C105  A    
C131  O14   A    
C63   C67   A    
C133  C143  A    
C214  O60   S    
C36   C40   A    
C122  O47   A    
C1    C97   S    
O82   H105  S    
C181  C185  A    
C39   C43   A    
C184  C188  A    
C25   H81   S    
C125  O7    A    
C152  H52   S    
C183  H67   S    
O78   H103  S    
C65   C209  S    
C177  C180  T    
C3    O3    A    
C162  C194  A    
C96   H28   S    
C132  O16   A    
C214  O59   D    
C152  C164  A    
C149  C163  A    
C135  C144  A    
C91   H35   S    
C232  O95   D    
C4    C100  S    
C89   H33   S    
C127  C159  A    
C128  C160  A    
C212  O55   D    
C106  C110  A    
O11   Zn12  S    
C143  C145  S    
C90   C128  A    
O17   Zn3   S    
C86   C218  S    
C34   C38   A    
C24   C162  S    
C191  C197  A    
C121  O45   A    
C134  C138  A    
C165  C175  A    
C198  C222  S    
C210  O51   D    
C68   C212  S    
C123  O9    A    
C27   H83   S    
C127  H73   S    
C15   C231  S    
O92   H110  S    
C213  O57   D    
C150  H50   S    
C71   C75   A    
C28   C52   A    
C44   C52   A    
C230  O91   D    
C217  O65   D    
C102  C106  A    
C31   C35   A    
O6    Zn10  S    
C91   C203  A    
C11   C51   S    
C5    C205  A    
O88   H108  S    
C2    C98   S    
C228  O87   D    
C150  C154  A    
C14   C230  S    
C134  H42   S    
C97   C101  A    
O64   H96   S    
C167  C176  A    
C23   C161  S    
