data_mof_unit_8178.cif
_audit_creation_date              2012-12-11T20:24:22-0500
_audit_creation_method            fapswitch 2.2
_symmetry_space_group_name_H-M    P1
_symmetry_Int_Tables_number       1
_space_group_crystal_system       triclinic
_cell_length_a                    8.305238
_cell_length_b                    17.284106
_cell_length_c                    19.041672
_cell_angle_alpha                 102.791588
_cell_angle_beta                  91.928034
_cell_angle_gamma                 98.266745
_cell_volume                      2631.79195982

loop_
_atom_site_label
_atom_site_type_symbol
_atom_type_description
_atom_site_fract_x
_atom_site_fract_y
_atom_site_fract_z
_atom_type_partial_charge
Ba1   Ba    Ba6+2 0.854170 0.535040 0.467640 1.673729
Ba2   Ba    Ba6+2 0.335670 0.465030 0.532370 1.762691
C1    C     C_3   0.586159 0.788324 0.255640 0.393205
C2    C     C_R   0.022235 0.531470 0.729051 0.061956
C3    C     C_R   0.843006 0.443997 0.814262 -0.156021
C4    C     C_3   0.116913 0.706783 0.284293 0.530060
C5    C     C_R   0.779786 0.445010 0.745228 0.008812
C6    C     C_R   0.359920 0.555373 0.185397 -0.106271
C7    C     C_R   0.420663 0.543874 0.251006 -0.030188
C8    C     C_R   0.101459 0.479528 0.200360 -0.091681
C9    C     C_R   0.160918 0.473722 0.270088 0.101378
C10   C     C_R   0.980383 0.500374 0.848103 0.012817
C11   C     C_R   0.877572 0.481786 0.700707 -0.271159
C12   C     C_3   0.634026 0.734160 0.303696 0.269650
C13   C     C_R   0.196554 0.526343 0.157416 0.007354
C14   C     C_R   0.321346 0.504582 0.292943 -0.238348
C15   C     C_R   0.743631 0.496141 0.964150 -0.105788
C16   C     C_3   0.088152 0.734488 0.215170 -0.231040
C17   C     C_R   0.631949 0.481613 0.014116 -0.066339
C18   C     C_R   0.684513 0.495581 0.085853 0.042007
C19   C     C_R   0.847484 0.524251 0.106934 -0.052127
C20   C     C_R   0.966249 0.520170 0.057070 0.014476
C21   C     C_R   0.914019 0.508167 0.982062 0.044679
C22   C     C_R   0.133255 0.539055 0.082517 -0.010450
C23   C     C_3   0.444594 0.328461 0.305331 0.229687
C24   C     C_R   0.237086 0.567260 0.032392 0.032794
C25   C     C_R   0.197124 0.539487 0.956678 0.040909
C26   C     C_R   0.031422 0.512533 0.929039 0.011907
C27   C     C_R   0.367878 0.631083 0.053645 -0.087932
C28   C     C_3   0.241844 0.711846 0.629722 0.304999
C29   C     C_R   0.481418 0.648909 0.004962 -0.048554
C30   C     C_R   0.464818 0.603241 0.934425 -0.067386
C31   C     C_R   0.325574 0.546458 0.911222 -0.129034
C32   C     C_2   0.447110 0.718947 0.475372 0.139374
C33   C     C_3   0.360912 0.771119 0.437009 -0.159175
C34   C     C_3   0.426175 0.299279 0.222493 0.552614
C35   C     C_2   0.407392 0.859012 0.467344 -0.110383
C36   C     C_2   0.544408 0.887118 0.510953 0.041953
C37   C     C_2   0.630911 0.829561 0.539817 -0.184550
C38   C     C_1   0.573752 0.751569 0.522798 0.050162
C39   C     C_R   0.799444 0.140118 0.537477 -0.052554
C40   C     C_3   0.271652 0.803126 0.649448 -0.406416
C41   C     C_R   0.858867 0.221558 0.546283 0.075757
C42   C     C_R   0.620104 0.238024 0.477070 -0.002228
C43   C     C_R   0.562139 0.156340 0.466957 -0.104551
C44   C     C_R   0.649503 0.107348 0.498343 0.065210
C45   C     C_3   0.075818 0.308279 0.721857 0.297157
C46   C     C_2   0.612080 0.973749 0.528880 -0.041912
C47   C     C_2   0.587404 0.020995 0.483300 -0.024238
C48   C     C_R   0.766180 0.270956 0.518430 -0.216531
C49   C     C_3   0.906427 0.273494 0.337874 0.620834
C50   C     C_3   0.798273 0.207352 0.282152 0.290380
C51   C     C_3   0.725131 0.647934 0.689539 0.259091
C52   C     C_3   0.737537 0.671612 0.771594 -0.372973
C53   C     C_3   0.098688 0.288730 0.795300 -0.359546
C54   C     C_3   0.566865 0.258227 0.698324 0.784037
C55   C     C_3   0.623805 0.216273 0.754847 -0.283493
C56   C     C_R   0.062365 0.547929 0.803806 -0.172748
Cl1   Cl    Cl    0.015504 0.225292 0.392400 -0.658067
Cl2   Cl    Cl    0.914735 0.144532 0.223508 -0.519757
Cl3   Cl    Cl    0.759217 0.845115 0.228063 -0.539220
Cl4   Cl    Cl    0.601798 0.338145 0.182463 -0.669196
H1    H     H_    0.371111 0.825194 0.692802 0.135715
H2    H     H_    0.756733 0.619349 0.793951 0.059071
H3    H     H_    0.622987 0.692162 0.791275 0.126531
H4    H     H_    0.518267 0.710690 0.324600 0.418519
H5    H     H_    0.510687 0.831043 0.285660 0.004165
H6    H     H_    0.323970 0.337908 0.325597 0.064158
H7    H     H_    0.529154 0.386415 0.320651 0.063292
H8    H     H_    0.413451 0.232434 0.206921 0.097696
H9    H     H_    0.512186 0.751492 0.207196 -0.054723
H10   H     H_    0.148833 0.699211 0.170953 0.020901
H11   H     H_    0.154844 0.366058 0.722189 0.093982
H12   H     H_    0.306642 0.826539 0.601617 0.078724
H13   H     H_    0.946146 0.314306 0.713066 -0.018641
H14   H     H_    0.226984 0.281049 0.805806 0.177776
H15   H     H_    0.068590 0.338157 0.838395 0.086139
H16   H     H_    0.017276 0.232376 0.797013 0.138535
H17   H     H_    0.677505 0.280565 0.672703 -0.815961
H18   H     H_    0.691337 0.167546 0.729194 0.109866
H19   H     H_    0.517487 0.190021 0.780419 0.156710
H20   H     H_    0.051377 0.644574 0.277689 0.033818
H21   H     H_    0.706233 0.259729 0.797213 0.069910
H22   H     H_    0.157815 0.597581 0.826022 0.087947
H23   H     H_    0.158664 0.826022 0.668414 0.150729
H24   H     H_    0.778220 0.402713 0.842471 0.083587
H25   H     H_    0.448697 0.584496 0.157017 0.041532
H26   H     H_    0.983309 0.445648 0.180364 0.136511
H27   H     H_    0.835260 0.476328 0.645197 0.072306
H28   H     H_    0.371139 0.496107 0.343433 0.072989
H29   H     H_    0.691728 0.500368 0.913102 0.089870
H30   H     H_    0.503134 0.465344 0.998127 0.101365
H31   H     H_    0.597915 0.487687 0.125136 0.129571
H32   H     H_    0.249983 0.706762 0.291787 -0.484413
H33   H     H_    0.883441 0.553801 0.161822 0.098271
H34   H     H_    0.830099 0.312107 0.372036 -0.089034
H35   H     H_    0.377736 0.670350 0.106560 0.081592
H36   H     H_    0.583659 0.696703 0.022382 0.112171
H37   H     H_    0.557019 0.613297 0.897254 0.087280
H38   H     H_    0.313975 0.511387 0.856846 0.137699
H39   H     H_    0.516450 0.996162 0.432356 0.089487
H40   H     H_    0.743017 0.852216 0.573782 0.102801
H41   H     H_    0.873897 0.102197 0.557651 0.071400
H42   H     H_    0.686645 0.997993 0.578997 0.082284
H43   H     H_    0.335671 0.898749 0.448068 0.101708
H44   H     H_    0.956273 0.724801 0.199058 0.173961
H45   H     H_    0.724172 0.234563 0.248059 0.082716
H46   H     H_    0.449936 0.130864 0.434091 0.118046
H47   H     H_    0.813515 0.333892 0.524336 0.086402
H48   H     H_    0.138960 0.799044 0.222706 0.158200
H49   H     H_    0.357413 0.689844 0.614846 0.012036
H50   H     H_    0.150740 0.691906 0.582870 0.090689
H51   H     H_    0.751438 0.745577 0.395628 0.314373
H52   H     H_    0.196144 0.282075 0.191999 0.343610
H53   H     H_    0.450628 0.227944 0.605128 0.309647
H54   H     H_    0.364206 0.626896 0.400404 0.249909
H55   H     H_    0.715184 0.169288 0.309820 0.055541
H56   H     H_    0.842081 0.630724 0.670728 0.012212
H57   H     H_    0.626015 0.595942 0.672145 0.088096
H58   H     H_    0.841544 0.720768 0.791048 0.139482
O1    O     O_2   0.873520 0.443690 0.322540 -0.451442
O2    O     O_2   0.190395 0.222746 0.533865 -0.403311
O3    O     O_3   0.118995 0.246146 0.668436 -0.543700
O4    O     O_3   0.122020 0.450920 0.411670 -0.466724
O5    O     O_3   0.580730 0.598500 0.542710 -0.426360
O6    O     O_2   0.336360 0.303040 0.452600 -0.377311
O7    O     O_3   0.503794 0.270050 0.335529 -0.685649
O8    O     O_2   0.459101 0.472294 0.754983 -0.507386
O9    O     O_3   0.478364 0.318750 0.731823 -0.577438
O10   O     O_3   0.663590 0.591680 0.375790 -0.461530
O11   O     O_2   0.741969 0.519845 0.250539 -0.456955
O12   O     O_3   0.692339 0.713641 0.662725 -0.629823
O13   O     O_3   0.018617 0.316032 0.301531 -0.609572
O14   O     O_3   0.712723 0.672727 0.263655 -0.608289
O15   O     O_2   0.853350 0.696990 0.547450 -0.473715
O16   O     O_3   0.086060 0.635230 0.414460 -0.482840
O17   O     O_2   0.041498 0.782475 0.483381 -0.463303
O18   O     O_3   0.738146 0.780690 0.361852 -0.649669
O19   O     O_3   0.290702 0.324926 0.194100 -0.712931
O20   O     O_3   0.464236 0.201672 0.645710 -0.658513
O21   O     O_3   0.415660 0.637112 0.449619 -0.690502
O22   O     O_3   0.059298 0.758552 0.342689 -0.500779
O23   O     O_2   0.316180 0.556340 0.677510 -0.464000
O24   O     O_3   0.067690 0.549150 0.588340 -0.489157
O25   O     O_3   0.526120 0.408390 0.624220 -0.457068
O26   O     O_3   0.185027 0.684187 0.689543 -0.627865
O27   O     O_3   0.608980 0.401570 0.457310 -0.482194
O28   O     O_3   0.103650 0.364840 0.585560 -0.477982
P1    P     P_3+3 0.040700 0.421000 0.332140 1.051842
P2    P     P_3+3 0.677490 0.686860 0.568200 1.030113
P3    P     P_3+3 0.135992 0.738302 0.422268 1.009283
P4    P     P_3+3 0.149010 0.579070 0.667870 0.992416
P5    P     P_3+3 0.067811 0.262678 0.583626 1.071922
P6    P     P_3+3 0.633521 0.581051 0.283826 0.904058
P7    P     P_3+3 0.516928 0.300863 0.429872 1.009410
P8    P     P_3+3 0.562882 0.411229 0.715310 0.978381

loop_
_geom_bond_atom_site_label_1
_geom_bond_atom_site_label_2
_ccdc_geom_bond_type
O4    P1    S    
C32   O21   S    
C14   H28   S    
C4    H20   S    
C52   H58   S    
Ba2   O24   S    
C17   C18   A    
C15   H29   S    
C18   H31   S    
C52   H3    S    
C43   C44   A    
C25   C31   A    
Ba2   O25   S    
C44   C47   S    
C8    H26   S    
C24   C25   A    
C15   C21   A    
C54   H17   S    
C10   C26   S    
C32   C38   D    
C33   C35   S    
C7    C14   A    
Ba1   O5    S    
C32   C33   S    
C8    C13   A    
C47   H39   S    
C36   C37   S    
C53   H15   S    
Ba2   O28   S    
C46   H42   S    
O12   P2    S    
C54   C55   S    
Ba1   Ba2   S    
C29   H36   S    
C2    C11   A    
C17   H30   S    
C50   Cl2   S    
O25   P8    S    
C9    P1    S    
C5    P8    S    
C12   O18   S    
C50   H45   S    
C6    C7    A    
C4    H32   S    
C39   C44   A    
C55   H21   S    
Ba1   P1    S    
C4    O22   S    
Ba1   O16   S    
O27   P7    S    
C36   C46   S    
C54   O9    S    
C43   H46   S    
O17   P3    D    
C49   H34   S    
C10   C56   A    
O6    P7    D    
C19   C20   A    
C16   H10   S    
Ba2   O23   S    
C39   C41   A    
C55   H18   S    
C23   H6    S    
C33   P3    S    
C34   Cl4   S    
C34   H8    S    
C28   O26   S    
C3    C5    A    
C1    Cl3   S    
Ba2   P4    S    
C4    C16   S    
C40   H12   S    
C49   C50   S    
O13   P1    S    
C45   H11   S    
C3    C10   A    
Ba1   O10   S    
C8    C9    A    
O7    P7    S    
C37   C38   D    
C51   O12   S    
C53   H16   S    
C51   H56   S    
C19   H33   S    
Ba2   O27   S    
C51   C52   S    
C48   H47   S    
C39   H41   S    
C28   H50   S    
O22   P3    S    
C1    H9    S    
C16   H44   S    
C35   H43   S    
C35   C36   D    
C56   H22   S    
C9    C14   A    
C45   O3    S    
C29   C30   A    
C54   O20   S    
C12   H4    S    
C38   P2    S    
Ba1   P2    S    
O10   P6    S    
C40   H23   S    
H52   O19   S    
H53   O20   S    
C2    P4    S    
C1    C12   S    
O26   P4    S    
C3    H24   S    
Ba2   O6    S    
C13   C22   S    
C7    P6    S    
C6    C13   A    
O2    P5    D    
C55   H19   S    
Ba1   O27   S    
C49   Cl1   S    
O28   P5    S    
C53   H14   S    
O16   P3    S    
C42   C43   A    
C37   H40   S    
C45   C53   S    
O3    P5    S    
C42   C48   A    
O23   P4    D    
C11   H27   S    
H51   O18   S    
C42   P7    S    
O11   P6    D    
C1    H5    S    
C16   H48   S    
C22   C24   A    
O9    P8    S    
C51   H57   S    
C41   C48   A    
Ba2   O4    S    
O15   P2    D    
C12   O14   S    
C30   H37   S    
C27   H35   S    
C28   H49   S    
C6    H25   S    
C30   C31   A    
C31   H38   S    
C23   O7    S    
Ba1   O4    S    
C45   H13   S    
O24   P4    S    
Ba1   O24   S    
Ba1   O15   S    
C50   H55   S    
C49   O13   S    
O14   P6    S    
C52   H2    S    
C46   C47   D    
C15   C17   A    
O1    P1    D    
C20   C22   A    
C34   O19   S    
Ba1   O1    S    
O5    P2    S    
O8    P8    D    
C23   C34   S    
H54   O21   S    
Ba2   O5    S    
C5    C11   A    
C23   H7    S    
C18   C19   A    
C24   C27   A    
C27   C29   A    
C2    C56   A    
C25   C26   A    
C20   C21   A    
C28   C40   S    
C41   P5    S    
C40   H1    S    
C21   C26   A    
