data_mof_unit_53558.cif
_audit_creation_date              2012-12-10T20:25:47-0500
_audit_creation_method            fapswitch 2.2
_symmetry_space_group_name_H-M    P1
_symmetry_Int_Tables_number       1
_space_group_crystal_system       triclinic
_cell_length_a                    8.737216
_cell_length_b                    10.848263
_cell_length_c                    9.954572
_cell_angle_alpha                 91.015839
_cell_angle_beta                  98.744069
_cell_angle_gamma                 93.473082
_cell_volume                      930.504078228

loop_
_atom_site_label
_atom_site_type_symbol
_atom_type_description
_atom_site_fract_x
_atom_site_fract_y
_atom_site_fract_z
_atom_type_partial_charge
C1    C     C_R   0.506607 0.260815 0.499789 0.897454
C2    C     C_R   0.421483 0.932450 0.389166 -0.196829
C3    C     C_R   0.500912 0.872454 0.498932 -0.119064
C4    C     C_R   0.596412 0.941212 0.600464 0.069975
C5    C     C_3   0.578703 0.946890 0.745975 -0.363673
C6    C     C_3   0.627661 0.084321 0.748164 0.174972
C7    C     C_R   0.367472 0.469115 0.052572 0.130698
C8    C     C_R   0.625491 0.544361 0.090407 -0.242984
C9    C     C_R   0.627338 0.545809 0.945952 0.557918
C10   C     C_R   0.369679 0.461778 0.911955 -0.011135
C11   C     C_3   0.277337 0.337912 0.902023 0.416041
C12   C     C_R   0.201496 0.501635 0.464184 0.984045
C13   C     C_3   0.261578 0.357099 0.052397 -0.592591
C14   C     C_R   0.497322 0.739770 0.500126 0.868459
C15   C     C_R   0.798721 0.504266 0.535553 0.949962
C16   C     C_2   0.036342 0.502125 0.444929 -0.363232
C17   C     C_2   0.964099 0.514978 0.553097 -0.305271
C18   C     C_R   0.614555 0.069152 0.596585 0.108197
C19   C     C_R   0.518245 0.129416 0.495931 -0.148445
C20   C     C_R   0.426820 0.060533 0.389415 -0.188711
H1    H     H_    0.974093 0.487790 0.342197 0.164641
H2    H     H_    0.144528 0.380405 0.070080 0.188650
H3    H     H_    0.313727 0.287197 0.122137 0.220938
H4    H     H_    0.026734 0.533050 0.654909 0.172043
H5    H     H_    0.350682 0.105769 0.312420 0.150898
H6    H     H_    0.347443 0.880663 0.308742 0.156156
H7    H     H_    0.454647 0.929277 0.757347 0.127165
H8    H     H_    0.544051 0.146558 0.776650 0.187492
H9    H     H_    0.724391 0.577801 0.161868 0.152054
N1    N     N_R   0.498950 0.499140 0.142680 -0.102964
N2    N     N_R   0.498950 0.499180 0.857030 -0.136580
O1    O     O_R   0.500020 0.316790 0.614690 -0.592850
O2    O     O_R   0.500000 0.316760 0.385350 -0.625970
O3    O     O_R   0.271760 0.500010 0.587850 -0.596785
O4    O     O_R   0.271740 0.499970 0.358500 -0.643549
O5    O     O_R   0.500000 0.683240 0.614650 -0.602463
O6    O     O_R   0.499980 0.683210 0.385310 -0.614440
O7    O     O_R   0.728260 0.500030 0.641500 -0.584958
O8    O     O_R   0.728240 0.499990 0.412150 -0.636913
Zn1   Zn    Zn3+2 0.500010 0.500020 0.653130 1.036381
Zn2   Zn    Zn3+2 0.499990 0.499980 0.346870 0.941030
O9    O     O_3   0.750294 0.603357 0.891920 -0.589787
C21   C     C_3   0.898555 0.581768 0.964453 0.123892
H10   H     H_    0.975937 0.568930 0.887602 0.208443
H11   H     H_    0.899359 0.496447 0.024598 0.132800
C22   C     C_3   0.971331 0.692657 0.055291 -0.466047
H12   H     H_    0.981349 0.776282 0.994916 0.280115
H13   H     H_    0.903764 0.712800 0.137345 0.206470
C23   C     C_3   0.132329 0.666748 0.122898 -0.921769
H14   H     H_    0.127844 0.574276 0.165712 0.288954
H15   H     H_    0.172781 0.735091 0.206414 0.264697
H16   H     H_    0.213110 0.670441 0.047218 0.272252
C24   C     C_2   0.131881 0.332778 0.797762 0.841948
O10   O     O_2   0.138860 0.299506 0.681016 -0.592873
O11   O     O_R   0.988502 0.350509 0.836296 -0.883411
H17   H     H_    0.900368 0.336226 0.757869 0.376674
O12   O     O_3   0.368411 0.237543 0.885568 -0.677531
C25   C     C_3   0.285424 0.122279 0.898163 0.061125
H18   H     H_    0.266281 0.073187 0.797575 0.182147
H19   H     H_    0.169582 0.130406 0.929307 0.153756
C26   C     C_3   0.378618 0.044648 0.003066 -0.405741
H20   H     H_    0.492071 0.029103 0.973822 0.241108
H21   H     H_    0.401524 0.094401 0.102306 0.222549
C27   C     C_3   0.293911 0.920407 0.017306 -0.891815
H22   H     H_    0.189686 0.933682 0.066002 0.252252
H23   H     H_    0.372769 0.861177 0.081406 0.293899
H24   H     H_    0.258527 0.873179 0.916446 0.276272
C28   C     C_2   0.679373 0.867139 0.834635 1.056581
O13   O     O_2   0.808075 0.845601 0.810112 -0.607773
O14   O     O_R   0.625252 0.825408 0.951689 -0.842546
H25   H     H_    0.710218 0.802729 0.025020 0.326088
O15   O     O_3   0.783678 0.117850 0.806359 -0.597408
C29   C     C_3   0.806057 0.123609 0.951247 0.153607
H26   H     H_    0.932667 0.125887 0.985812 0.173573
H27   H     H_    0.758830 0.040835 0.997338 0.108937
C30   C     C_3   0.743671 0.237707 0.011730 -0.395667
H28   H     H_    0.763879 0.319658 0.951672 0.262076
H29   H     H_    0.617988 0.223645 0.009534 0.252759
C31   C     C_3   0.815772 0.260267 0.160506 -0.946912
H30   H     H_    0.793097 0.177618 0.220605 0.274090
H31   H     H_    0.763699 0.339424 0.203994 0.288223
H32   H     H_    0.942811 0.281074 0.169630 0.258231

loop_
_geom_bond_atom_site_label_1
_geom_bond_atom_site_label_2
_ccdc_geom_bond_type
C8    C9    A    
C7    C10   A    
O11   H17   S    
C16   H1    S    
C29   H26   S    
C19   C20   A    
C30   C31   S    
C1    O2    A    
O8    Zn2   S    
C24   O10   D    
C6    O15   S    
C22   C23   S    
C9    O9    S    
O3    Zn1   S    
C8    H9    S    
C30   H29   S    
C14   O5    A    
C5    C6    S    
C20   H5    S    
C25   H19   S    
N2    Zn1   S    
C13   H3    S    
C18   C19   A    
C26   H21   S    
C5    H7    S    
C10   N2    A    
C6    H8    S    
C12   C16   S    
C16   C17   D    
C23   H15   S    
N1    Zn2   S    
O14   H25   S    
C11   C24   S    
C4    C18   A    
C25   C26   S    
C7    N1    A    
C29   H27   S    
C5    C28   S    
C24   O11   S    
C6    C18   S    
C22   H13   S    
C1    C19   S    
C17   H4    S    
C2    C20   A    
C27   H24   S    
O5    Zn1   S    
C30   H28   S    
C31   H31   S    
C4    C5    S    
C25   H18   S    
C1    O1    A    
C27   H23   S    
C26   C27   S    
C21   H10   S    
C15   O7    A    
C23   H16   S    
C2    H6    S    
C12   O4    A    
C21   H11   S    
C15   O8    A    
C3    C14   S    
C29   C30   S    
O9    C21   S    
C12   O3    A    
C3    C4    A    
C15   C17   S    
C22   H12   S    
C28   O13   D    
O15   C29   S    
C31   H32   S    
C8    N1    A    
C27   H22   S    
C2    C3    A    
O2    Zn2   S    
C14   O6    A    
O7    Zn1   S    
C11   C13   S    
O12   C25   S    
C13   H2    S    
O1    Zn1   S    
O6    Zn2   S    
C26   H20   S    
O4    Zn2   S    
C21   C22   S    
C10   C11   S    
C9    N2    A    
C31   H30   S    
C7    C13   S    
C28   O14   S    
C23   H14   S    
C11   O12   S    
