data_mof_unit_46991.cif
_audit_creation_date              2013-03-05T15:48:55-0500
_audit_creation_method            fapswitch 2.2
_symmetry_space_group_name_H-M    P1
_symmetry_Int_Tables_number       1
_space_group_crystal_system       triclinic
_cell_length_a                    8.212682
_cell_length_b                    18.769658
_cell_length_c                    19.096645
_cell_angle_alpha                 98.580148
_cell_angle_beta                  94.728552
_cell_angle_gamma                 91.551855
_cell_volume                      2898.56299459

loop_
_atom_site_label
_atom_site_type_symbol
_atom_site_description
_atom_site_fract_x
_atom_site_fract_y
_atom_site_fract_z
_atom_type_partial_charge
P1    P     P_3+3 0.947550 0.663200 0.567530 0.505793
O1    O     O_2   0.118870 0.674530 0.547560 -0.363461
O2    O     O_3   0.870460 0.585330 0.542110 -0.399519
O3    O     O_3   0.354280 0.631750 0.418430 -0.355501
O4    O     O_2   0.244501 0.757996 0.468416 -0.347236
O5    O     O_3   0.972012 0.679780 0.660717 -0.563470
O6    O     O_3   0.311283 0.745317 0.336372 -0.497586
H1    H     H_    0.295222 0.639711 0.285483 0.148140
C1    C     C_3   0.329454 0.713632 0.211925 -0.833026
H2    H     H_    0.197412 0.722839 0.201370 0.302387
H3    H     H_    0.401453 0.763844 0.208819 0.248331
P2    P     P_3+3 0.354660 0.445020 0.336980 0.466775
P3    P     P_3+3 0.910109 0.598115 0.289552 0.452365
O7    O     O_2   0.180880 0.466650 0.327890 -0.370096
O8    O     O_3   0.939000 0.596010 0.380670 -0.391885
O9    O     O_2   0.042409 0.552389 0.253345 -0.386463
O10   O     O_3   0.342422 0.351369 0.311615 -0.558472
O11   O     O_3   0.951680 0.686295 0.274516 -0.524336
C2    C     C_3   0.879105 0.734320 0.325558 0.325630
H4    H     H_    0.954200 0.740356 0.377394 0.134868
H5    H     H_    0.754028 0.715100 0.333355 -0.066895
C3    C     C_3   0.864020 0.807670 0.300501 -0.098907
H6    H     H_    0.811375 0.799837 0.244203 0.133286
C4    C     C_3   0.789983 0.381257 0.312445 0.412542
H7    H     H_    0.673003 0.397915 0.332973 0.092366
H8    H     H_    0.883488 0.425914 0.327096 0.132302
C5    C     C_3   0.766336 0.363680 0.231791 -0.927538
H9    H     H_    0.667268 0.321537 0.215667 0.269341
H10   H     H_    0.733064 0.412395 0.208422 0.222671
H11   H     H_    0.881542 0.343846 0.210659 0.273567
Ba1   Ba    Ba6+2 0.152460 0.535140 0.468980 1.598982
C6    C     C_3   0.986985 0.614473 0.687692 0.455104
H12   H     H_    0.098264 0.587401 0.671553 0.003425
H13   H     H_    0.884474 0.576853 0.667373 0.163178
C7    C     C_3   0.990760 0.629292 0.768324 -0.961351
H14   H     H_    0.103631 0.661076 0.790998 0.236390
H15   H     H_    0.988007 0.577928 0.790245 0.227620
H16   H     H_    0.882330 0.659773 0.784310 0.287535
C8    C     C_3   0.293656 0.318079 0.367650 0.444728
H17   H     H_    0.173355 0.337270 0.382301 0.088886
H18   H     H_    0.384993 0.329158 0.414496 0.125793
C9    C     C_3   0.279177 0.237084 0.343083 -0.991518
H19   H     H_    0.181205 0.224260 0.298928 0.278907
H20   H     H_    0.249172 0.208426 0.387332 0.216665
H21   H     H_    0.396915 0.217786 0.324239 0.260680
P4    P     P_3+3 0.862750 0.336790 0.432410 0.459387
O12   O     O_2   0.691430 0.325420 0.452420 -0.369407
O13   O     O_3   0.939830 0.414660 0.457830 -0.410931
O14   O     O_3   0.456020 0.368240 0.581510 -0.347550
O15   O     O_3   0.839887 0.319385 0.339412 -0.569325
P5    P     P_3+3 0.893693 0.402501 0.711076 0.548587
O16   O     O_3   0.374170 0.535780 0.585810 -0.342503
O17   O     O_3   0.871300 0.403980 0.619270 -0.370383
O18   O     O_2   0.754801 0.446272 0.744122 -0.330159
O19   O     O_3   0.842830 0.314133 0.722275 -0.423571
Ba2   Ba    Ba6+2 0.657710 0.464850 0.530960 1.612200
P6    P     P_3+3 0.373934 0.724659 0.420522 0.520154
C10   C     C_3   0.363200 0.691456 0.284845 0.446430
H22   H     H_    0.496105 0.683661 0.293625 -0.008830
H23   H     H_    0.364608 0.670157 0.170844 0.191832
O20   O     O_3   0.436130 0.464210 0.414140 -0.400963
C11   C     C_3   0.392652 0.697835 0.683348 0.808051
H24   H     H_    0.269959 0.673778 0.668938 0.009178
C12   C     C_3   0.377392 0.763559 0.740019 -0.948137
H25   H     H_    0.499003 0.790855 0.756994 0.284053
H26   H     H_    0.293662 0.802297 0.718839 0.230348
H27   H     H_    0.327056 0.746448 0.787335 0.227043
P7    P     P_3+3 0.450343 0.559089 0.676510 0.475750
O21   O     O_2   0.629420 0.533310 0.672080 -0.337658
O22   O     O_3   0.498653 0.650191 0.711458 -0.603116
H28   H     H_    0.778929 0.840780 0.332645 0.070426
C13   C     C_3   0.971077 0.270583 0.700620 0.378383
H29   H     H_    0.007675 0.279919 0.647799 0.045800
H30   H     H_    0.076997 0.281564 0.741278 0.064684
C14   C     C_3   0.916356 0.191676 0.694313 -0.767947
H31   H     H_    0.809859 0.179356 0.654100 0.271995
H32   H     H_    0.017234 0.156731 0.677319 0.213602
H33   H     H_    0.882106 0.179764 0.746515 0.286498
P8    P     P_3+3 0.440698 0.274370 0.574657 0.479745
C15   C     C_3   0.394042 0.252032 0.701502 0.164225
H34   H     H_    0.279016 0.225021 0.674902 0.020907
O23   O     O_2   0.565584 0.244210 0.523283 -0.381883
O24   O     O_3   0.518344 0.249365 0.655200 -0.473555
H35   H     H_    0.371928 0.309229 0.722122 0.101011
H36   H     H_    0.357969 0.221734 0.804433 0.149513
C16   C     C_3   0.446828 0.212675 0.763588 0.024433
H37   H     H_    0.569146 0.234384 0.788093 0.184885
C17   C     C_R   0.003779 0.951020 0.530795 0.052298
C18   C     C_R   0.099988 0.903175 0.564996 0.103093
C19   C     C_R   0.259151 0.925346 0.593873 -0.146439
C20   C     C_R   0.322327 0.994131 0.588902 -0.079204
C21   C     C_R   0.225020 0.043349 0.557811 0.114911
C22   C     C_R   0.065138 0.021864 0.528517 0.021074
C23   C     C_R   0.284211 0.114001 0.557189 -0.202808
C24   C     C_R   0.183538 0.165342 0.530494 -0.042893
C25   C     C_R   0.025237 0.143084 0.497866 0.008231
C26   C     C_R   0.967201 0.070943 0.496727 -0.005460
C27   C     C_R   0.234773 0.238686 0.536662 0.141905
C28   C     C_R   0.129289 0.288195 0.511176 -0.522123
C29   C     C_R   0.978828 0.266496 0.473446 0.282224
C30   C     C_R   0.925367 0.192533 0.465998 -0.037490
C31   C     C_R   0.846550 0.928195 0.499140 0.022984
C32   C     C_R   0.788646 0.856069 0.498146 0.021983
C33   C     C_R   0.887170 0.807112 0.531528 -0.047542
C34   C     C_R   0.037936 0.833401 0.568421 -0.103829
H38   H     H_    0.335671 0.889188 0.619664 0.180201
H39   H     H_    0.446342 0.009416 0.610924 0.174258
H40   H     H_    0.169259 0.344332 0.517168 0.172423
H41   H     H_    0.407642 0.128812 0.579779 0.184760
H42   H     H_    0.112392 0.799354 0.597615 0.156125
C35   C     C_R   0.774706 0.166323 0.428883 -0.130722
C36   C     C_R   0.713901 0.095999 0.430804 0.114860
C37   C     C_R   0.809997 0.048117 0.465007 0.018623
C38   C     C_R   0.749466 0.976947 0.466402 0.022946
C39   C     C_R   0.556743 0.073035 0.399748 -0.180238
C40   C     C_R   0.495788 0.003258 0.402178 -0.159707
C41   C     C_R   0.591846 0.954603 0.434704 0.099950
C42   C     C_R   0.632281 0.833169 0.463654 -0.048882
C43   C     C_R   0.533732 0.883645 0.434387 -0.224227
C44   C     C_R   0.581832 0.759815 0.457244 0.211085
C45   C     C_R   0.689397 0.710517 0.482159 -0.360538
C46   C     C_R   0.834249 0.733093 0.524165 0.272791
H43   H     H_    0.700374 0.200548 0.399810 0.168626
H44   H     H_    0.480258 0.109191 0.373904 0.141288
H45   H     H_    0.373929 0.987081 0.377842 0.181263
H46   H     H_    0.413196 0.867895 0.408986 0.221450
H47   H     H_    0.654074 0.653739 0.472969 0.184462
C47   C     C_R   0.607227 0.533558 0.302121 -0.529922
C48   C     C_R   0.461603 0.494891 0.276718 0.312291
C49   C     C_R   0.407457 0.488693 0.204278 -0.252585
C50   C     C_R   0.499446 0.521036 0.157269 0.033529
C51   C     C_R   0.649234 0.557453 0.183536 -0.281231
C52   C     C_R   0.704482 0.561903 0.255433 0.254122
C53   C     C_R   0.447911 0.571257 0.042695 -0.146520
C54   C     C_R   0.396938 0.562448 0.970070 -0.165084
C55   C     C_R   0.348553 0.494014 0.932323 0.046718
C56   C     C_R   0.355462 0.433614 0.969034 0.421902
C57   C     C_R   0.398384 0.443831 0.042751 -0.261458
C58   C     C_R   0.445555 0.512310 0.080100 0.119923
C59   C     C_R   0.139466 0.450841 0.827060 0.263163
C60   C     C_R   0.097340 0.439868 0.752663 0.017749
C61   C     C_R   0.345890 0.506799 0.735679 0.271467
C62   C     C_R   0.391025 0.515922 0.808728 -0.238313
C63   C     C_R   0.291518 0.486671 0.854997 -0.037986
C64   C     C_R   0.204559 0.465535 0.707969 -0.483840
H48   H     H_    0.502536 0.546671 0.829618 0.166080
H49   H     H_    0.394960 0.609372 0.943207 0.142224
H50   H     H_    0.487676 0.624430 0.069707 0.128700
H51   H     H_    0.295041 0.458143 0.184511 0.169087
H52   H     H_    0.403829 0.397516 0.070489 0.172547
H53   H     H_    0.725738 0.579480 0.147770 0.165322
H54   H     H_    0.170174 0.458955 0.651362 0.167457
H55   H     H_    0.650617 0.537122 0.357627 0.171915
N1    N     N_R   0.456371 0.718271 0.620139 0.220728
O25   O     O_R   0.529315 0.780807 0.620633 -0.465193
O26   O     O_R   0.456007 0.669407 0.564570 -0.372387
N2    N     N_R   0.451277 0.135301 0.739874 0.252665
O27   O     O_R   0.590234 0.103712 0.738991 -0.379676
O28   O     O_R   0.315656 0.096309 0.729251 -0.403034
N3    N     N_R   0.330703 0.361530 0.931512 0.242087
O29   O     O_R   0.274556 0.310176 0.962861 -0.347721
O30   O     O_R   0.387407 0.344993 0.869885 -0.455272
N4    N     N_R   0.025377 0.430218 0.874250 0.243266
O31   O     O_R   0.989619 0.475975 0.928431 -0.396369
O32   O     O_R   0.961744 0.364946 0.865070 -0.320368
N5    N     N_R   0.022584 0.846107 0.307579 0.290341
O33   O     O_R   0.087627 0.861228 0.251450 -0.361579
O34   O     O_R   0.091403 0.871974 0.370355 -0.410649

loop_
_geom_bond_atom_site_label_1
_geom_bond_atom_site_label_2
_geom_bond_distance
_ccdc_geom_bond_type
C62   H48   1.083225 S    
O5    C6    1.403289 S    
C34   H42   1.079062 S    
N2    O27   1.300389 A    
C5    H10   1.106824 S    
Ba1   O20   2.907039 S    
P8    C27   1.851095 S    
C24   C25   1.418566 A    
C4    C5    1.521319 S    
Ba1   O16   2.759393 S    
C15   H35   1.112128 S    
C47   C48   1.394513 A    
C24   C27   1.413554 A    
C54   C55   1.405793 A    
C8    H18   1.109796 S    
H36   C16   1.109445 S    
C57   H52   1.083465 S    
C59   N4    1.436493 S    
C28   H40   1.081749 S    
N4    O32   1.300350 A    
P3    O11   1.750933 S    
C21   C22   1.408042 A    
C2    H5    1.108449 S    
C4    H8    1.109205 S    
C45   H47   1.081548 S    
C15   O24   1.401735 S    
C15   H34   1.107053 S    
C33   C46   1.427495 A    
C62   C63   1.410493 A    
P1    Ba1   3.397473 S    
C40   C41   1.403441 A    
C11   O22   1.397882 S    
P1    O1    1.505575 D    
O10   C8    1.397323 S    
C42   C43   1.410664 A    
C36   C37   1.409163 A    
C15   C16   1.527514 S    
H1    C10   1.109248 S    
P4    O12   1.505959 D    
N4    O31   1.301168 A    
P7    O21   1.565591 D    
P2    O10   1.750114 S    
C11   C12   1.530081 S    
P7    C61   1.849604 S    
C3    N5    1.457933 S    
Ba1   Ba2   4.540906 S    
C1    H2    1.109488 S    
O7    Ba1   2.837781 S    
O6    C10   1.402775 S    
N1    O26   1.294689 A    
O19   C13   1.402173 S    
O16   P7    1.778546 S    
C60   C64   1.399846 A    
O3    Ba1   2.755112 S    
N2    O28   1.300639 A    
C25   C30   1.425482 A    
C5    H11   1.110795 S    
N5    O34   1.300802 A    
C61   C64   1.398170 A    
C23   C24   1.411487 A    
C9    H20   1.107642 S    
C13   C14   1.520467 S    
C33   C34   1.411507 A    
C16   N2    1.457704 S    
C8    C9    1.521044 S    
P5    C60   1.863100 S    
C4    O15   1.396866 S    
P4    O13   1.568487 S    
P2    C48   1.848103 S    
C35   H43   1.079519 S    
P1    O5    1.753985 S    
C64   H54   1.082374 S    
C6    C7    1.520901 S    
C20   H39   1.083535 S    
C2    C3    1.528345 S    
C59   C60   1.417166 A    
C19   H38   1.081621 S    
C13   H30   1.110496 S    
C53   C58   1.404164 A    
C16   H37   1.112472 S    
O11   C2    1.407342 S    
C10   H22   1.107560 S    
O14   P8    1.747500 S    
C6    H12   1.101484 S    
O1    Ba1   2.847604 S    
P1    O2    1.568515 S    
C7    H14   1.108812 S    
N3    O30   1.299006 A    
O3    P6    1.741168 S    
C14   H31   1.110624 S    
C12   H27   1.109720 S    
C11   H24   1.089729 S    
C31   C38   1.411363 A    
C1    H3    1.110702 S    
O2    Ba2   2.791590 S    
C28   C29   1.396539 A    
C39   C40   1.398021 A    
C25   C26   1.419745 A    
C7    H16   1.110776 S    
C49   H51   1.083030 S    
C21   C23   1.402062 A    
C45   C46   1.397209 A    
Ba2   O20   2.758620 S    
C4    H7    1.102820 S    
O2    Ba1   2.908673 S    
C14   H32   1.110027 S    
C12   H26   1.110889 S    
N1    O25   1.301694 A    
C47   H55   1.081790 S    
C56   N3    1.434286 S    
P6    C44   1.856312 S    
P2    O7    1.497807 D    
Ba2   O21   2.837927 S    
C54   H49   1.083217 S    
C40   H45   1.083751 S    
P3    O8    1.743145 S    
P2    Ba1   3.397509 S    
N5    O33   1.300680 A    
C32   C42   1.419110 A    
C9    H19   1.110597 S    
P4    Ba2   3.398073 S    
C50   C51   1.408030 A    
C22   C26   1.410888 A    
C3    H28   1.109855 S    
C20   C21   1.403567 A    
C44   C45   1.403305 A    
C37   C38   1.417437 A    
O17   Ba2   2.724357 S    
O13   Ba2   2.909507 S    
P4    C29   1.875416 S    
C17   C22   1.417233 A    
C1    C10   1.518137 S    
C39   H44   1.081956 S    
C35   C36   1.405267 A    
C7    H15   1.107254 S    
C3    H6    1.112265 S    
P3    C52   1.833758 S    
C59   C63   1.426152 A    
C13   H29   1.112833 S    
P8    O23   1.538357 D    
C17   C31   1.407273 A    
O8    Ba1   2.723715 S    
C53   C54   1.399344 A    
C30   C35   1.412009 A    
O14   Ba2   2.754457 S    
C53   H50   1.081574 S    
C56   C57   1.405975 A    
P4    O15   1.750590 S    
C23   H41   1.080664 S    
O4    P6    1.543873 D    
Ba1   O13   2.791002 S    
C1    H23   1.106250 S    
N3    O29   1.301420 A    
P5    O18   1.545672 D    
C2    H4    1.111390 S    
C41   C43   1.401570 A    
C49   C50   1.412348 A    
C48   C49   1.404532 A    
C55   C63   1.496881 S    
C47   C52   1.397109 A    
C12   H25   1.111042 S    
P8    O24   1.750018 S    
P2    O20   1.553912 S    
C19   C20   1.397684 A    
O16   Ba2   2.906207 S    
C29   C30   1.427604 A    
O6    P6    1.748669 S    
C51   C52   1.399620 A    
P5    O19   1.747675 S    
C31   C32   1.419576 A    
C14   H33   1.110047 S    
C42   C44   1.411659 A    
C38   C41   1.408413 A    
C50   C58   1.486930 S    
C57   C58   1.401720 A    
C8    H17   1.104060 S    
C43   H46   1.079265 S    
C11   N1    1.452400 S    
C17   C18   1.409155 A    
P7    O22   1.762332 S    
C27   C28   1.399982 A    
P3    O9    1.546791 D    
C18   C34   1.405008 A    
C32   C33   1.426710 A    
C51   H53   1.083120 S    
C61   C62   1.397421 A    
C55   C56   1.419165 A    
P5    O17   1.752110 S    
C18   C19   1.403255 A    
C26   C37   1.407488 A    
C9    H21   1.110464 S    
C36   C39   1.403845 A    
P1    C46   1.880403 S    
C6    H13   1.090931 S    
O12   Ba2   2.848111 S    
C5    H9    1.110695 S    
