data_mof_unit_24594.cif
_audit_creation_date              2012-12-10T17:02:31-0500
_audit_creation_method            fapswitch 2.2
_symmetry_space_group_name_H-M    P1
_symmetry_Int_Tables_number       1
_space_group_crystal_system       triclinic
_cell_length_a                    10.843315
_cell_length_b                    11.033893
_cell_length_c                    9.94804
_cell_angle_alpha                 112.064643
_cell_angle_beta                  96.917125
_cell_angle_gamma                 92.895954
_cell_volume                      1089.07499483

loop_
_atom_site_label
_atom_site_type_symbol
_atom_type_description
_atom_site_fract_x
_atom_site_fract_y
_atom_site_fract_z
_atom_type_partial_charge
C1    C     C_R   0.487331 0.253646 0.439048 0.939589
C2    C     C_R   0.736577 0.498647 0.497031 0.967804
C3    C     C_R   0.149200 0.746606 0.605074 0.375742
C4    C     C_R   0.850584 0.253944 0.397413 0.385395
C5    C     C_R   0.094067 0.863040 0.632546 0.525705
C6    C     C_R   0.905829 0.137608 0.370182 0.521352
C7    C     C_R   0.965448 0.860253 0.608612 0.514036
C8    C     C_R   0.034455 0.140505 0.393472 0.502940
C9    C     C_R   0.890639 0.741420 0.561166 0.381940
C10   C     C_R   0.109082 0.259352 0.440180 0.400187
C11   C     C_R   0.944102 0.620488 0.533544 -0.195014
C12   C     C_R   0.510419 0.746653 0.560909 0.929775
C13   C     C_R   0.055648 0.380117 0.467259 -0.200384
C14   C     C_R   0.075706 0.622598 0.549412 -0.203876
C15   C     C_R   0.924078 0.377964 0.451722 -0.199471
C16   C     C_R   0.869809 0.498632 0.490069 0.049195
C17   C     C_R   0.130016 0.501899 0.510381 0.036714
C18   C     C_2   0.571442 0.978134 0.751474 0.541223
C19   C     C_2   0.389842 0.031493 0.257455 0.550863
C20   C     C_2   0.356833 0.433310 0.840937 0.563868
C21   C     C_2   0.590223 0.635916 0.181198 0.525996
C22   C     C_2   0.468249 0.111917 0.400610 -0.120240
C23   C     C_2   0.520606 0.888954 0.597942 -0.129612
C24   C     C_2   0.515107 0.065377 0.500955 0.001380
C25   C     C_2   0.484960 0.930729 0.489720 -0.043556
C26   C     C_2   0.503683 0.519753 0.082780 0.064213
C27   C     C_2   0.479268 0.500485 0.923007 0.155293
C28   C     C_R   0.263380 0.501823 0.503131 0.975365
Cu1   Cu    Cu3+1 0.521920 0.521810 0.644910 1.166050
Cu2   Cu    Cu3+1 0.478080 0.478190 0.355090 1.128345
F1    F     F_    0.087785 0.026970 0.369252 -0.565569
F2    F     F_    0.382595 0.331125 0.044855 -0.485426
F3    F     F_    0.912271 0.973953 0.633451 -0.559959
F4    F     F_    0.274431 0.758406 0.641021 -0.652099
F5    F     F_    0.725146 0.241983 0.363327 -0.646683
F6    F     F_    0.166436 0.979730 0.683616 -0.508912
F7    F     F_    0.833547 0.020948 0.320375 -0.521060
F8    F     F_    0.766068 0.746962 0.538749 -0.686428
F9    F     F_    0.233532 0.254216 0.463089 -0.662924
F10   F     F_    0.674333 0.586075 0.926290 -0.508321
H1    H     H_    0.436259 0.859905 0.386622 0.208265
H2    H     H_    0.577417 0.131705 0.597183 0.199432
H3    H     H_    0.635283 0.943220 0.818291 0.118714
H4    H     H_    0.317098 0.075744 0.212514 0.132554
H5    H     H_    0.273738 0.484179 0.861287 0.042492
H6    H     H_    0.659354 0.630156 0.264968 0.139096
N1    N     N_2   0.445130 0.445420 0.137360 0.044680
N2    N     N_2   0.554870 0.554580 0.862640 0.072275
O1    O     O_R   0.511700 0.332340 0.577400 -0.560756
O2    O     O_2   0.409937 0.919914 0.184113 -0.488766
O3    O     O_2   0.347072 0.318549 0.756252 -0.388961
O4    O     O_2   0.586562 0.740863 0.166947 -0.428227
O5    O     O_R   0.488300 0.667660 0.422600 -0.640333
O6    O     O_R   0.474680 0.295500 0.332650 -0.517277
O7    O     O_R   0.525320 0.704500 0.667350 -0.538460
O8    O     O_R   0.338170 0.518410 0.622370 -0.589506
O9    O     O_R   0.661830 0.481590 0.377630 -0.589004
O10   O     O_R   0.301150 0.481570 0.377630 -0.560466
O11   O     O_R   0.698850 0.518430 0.622370 -0.523696
O12   O     O_2   0.537536 0.087522 0.807349 -0.445493

loop_
_geom_bond_atom_site_label_1
_geom_bond_atom_site_label_2
_ccdc_geom_bond_type
C27   N2    D    
C21   C26   S    
C5    F6    S    
Cu1   Cu2   S    
Cu1   O8    S    
C28   O10   A    
C2    C16   S    
C9    C11   A    
C11   C16   A    
Cu1   O11   S    
C20   H5    S    
C14   C17   A    
C13   C17   A    
C1    O6    A    
Cu2   O6    S    
C4    C15   A    
C23   C25   D    
C28   O8    A    
C6    F7    S    
C1    C22   S    
Cu1   O1    S    
C18   H3    S    
C19   H4    S    
C7    F3    S    
C12   C23   S    
C26   C27   S    
C3    C14   A    
C26   N1    D    
Cu2   O10   S    
C18   O12   D    
C9    F8    S    
C20   C27   S    
C21   H6    S    
C20   O3    D    
C7    C9    A    
C13   C15   A    
Cu2   O5    S    
C22   C24   D    
C4    F5    S    
C12   O7    A    
C15   C16   A    
Cu1   N2    S    
C2    O9    A    
C18   C23   S    
Cu2   O9    S    
C19   O2    D    
Cu2   N1    S    
F2    N1    S    
C19   C22   S    
C24   H2    S    
C24   C25   S    
C8    C10   A    
C4    C6    A    
C25   H1    S    
C11   C14   A    
C5    C7    A    
F10   N2    S    
C2    O11   A    
C6    C8    A    
Cu1   O7    S    
C3    F4    S    
C17   C28   S    
C1    O1    A    
C21   O4    D    
C8    F1    S    
C12   O5    A    
C10   F9    S    
C3    C5    A    
C10   C13   A    
