data_mof_unit_67008.cif
_audit_creation_date              2012-12-11T17:41:05-0500
_audit_creation_method            fapswitch 2.2
_symmetry_space_group_name_H-M    P1
_symmetry_Int_Tables_number       1
_space_group_crystal_system       triclinic
_cell_length_a                    8.169188
_cell_length_b                    12.65477
_cell_length_c                    14.228127
_cell_angle_alpha                 92.50008
_cell_angle_beta                  90.891114
_cell_angle_gamma                 98.500314
_cell_volume                      1452.98967292

loop_
_atom_site_label
_atom_site_type_symbol
_atom_type_description
_atom_site_fract_x
_atom_site_fract_y
_atom_site_fract_z
_atom_type_partial_charge
Ba1   Ba    Ba6+2 0.855630 0.555280 0.454520 1.642270
Ba2   Ba    Ba6+2 0.334200 0.444810 0.545490 1.653274
C1    C     C_3   0.618457 0.954155 0.182508 -0.414427
C2    C     C_3   0.653238 0.857978 0.235880 0.350736
C3    C     C_3   0.476268 0.315456 0.259537 0.311274
C4    C     C_3   0.452087 0.295375 0.153990 -0.412397
C5    C     C_3   0.020205 0.194350 0.802031 0.409041
C6    C     C_3   0.010861 0.154573 0.901442 -0.374120
C7    C     C_3   0.555566 0.148296 0.862787 0.321555
C8    C     C_3   0.465735 0.103290 0.948587 -0.374259
C9    C     C_R   0.982776 0.444296 0.061334 -0.037515
C10   C     C_R   0.182108 0.499601 0.195815 0.052997
C11   C     C_R   0.337229 0.552534 0.225843 -0.294241
C12   C     C_3   0.149628 0.833206 0.195007 0.336705
C13   C     C_R   0.451249 0.598044 0.162022 0.006243
C14   C     C_R   0.407288 0.598531 0.066838 -0.132842
C15   C     C_R   0.249339 0.550028 0.034144 0.000143
C16   C     C_R   0.136336 0.497035 0.097912 -0.026181
C17   C     C_R   0.051768 0.500351 0.901484 -0.028751
C18   C     C_R   0.938715 0.447412 0.965275 0.004719
C19   C     C_R   0.006462 0.497926 0.803542 0.041716
C20   C     C_R   0.852760 0.441602 0.773138 -0.281247
C21   C     C_R   0.738276 0.394800 0.836898 -0.014308
C22   C     C_R   0.780767 0.398906 0.932738 -0.152038
C23   C     C_3   0.126552 0.888355 0.103308 -0.258979
C24   C     C_R   0.205604 0.552612 0.938038 -0.015522
C25   C     C_R   0.767240 0.176592 0.533767 -0.269342
C26   C     C_R   0.430679 0.812992 0.459831 -0.287370
C27   C     C_R   0.408497 0.994771 0.424900 -0.108666
C28   C     C_R   0.343481 0.887220 0.420388 -0.008005
C29   C     C_R   0.578074 0.846094 0.510744 0.062195
C30   C     C_R   0.644744 0.956631 0.518593 -0.045982
C31   C     C_R   0.558483 0.031345 0.473968 -0.057228
C32   C     C_R   0.621680 0.141275 0.482257 0.052676
C33   C     C_R   0.857615 0.104274 0.573179 -0.022851
C34   C     C_3   0.230459 0.764042 0.658270 0.276045
C35   C     C_R   0.794579 0.995301 0.568633 -0.042654
C36   C     C_3   0.242617 0.883703 0.679453 -0.301376
C37   C     C_3   0.971017 0.235155 0.342930 0.275225
C38   C     C_3   0.977924 0.117138 0.323437 -0.340909
C39   C     C_3   0.713835 0.671561 0.737676 0.313625
C40   C     C_3   0.732029 0.694716 0.843511 -0.376653
H1    H     H_    0.744912 0.885212 0.293578 0.082362
H2    H     H_    0.315512 0.906783 0.745490 0.148339
H3    H     H_    0.303694 0.928357 0.621162 0.085430
H4    H     H_    0.116796 0.905396 0.688181 0.128922
H5    H     H_    0.843380 0.246625 0.358831 -0.003234
H6    H     H_    0.054014 0.262416 0.404380 0.077536
H7    H     H_    0.899117 0.087488 0.261179 0.118730
H8    H     H_    0.933435 0.070803 0.384577 0.080361
H9    H     H_    0.107195 0.105158 0.309062 0.134327
H10   H     H_    0.829921 0.647940 0.710892 0.004640
H11   H     H_    0.610322 0.605181 0.723775 0.062517
H12   H     H_    0.577810 0.014990 0.231919 0.098522
H13   H     H_    0.841468 0.756437 0.859741 0.136694
H14   H     H_    0.748221 0.621129 0.879765 0.057988
H15   H     H_    0.619382 0.724190 0.870551 0.134599
H16   H     H_    0.535894 0.822259 0.267773 -0.060754
H17   H     H_    0.519535 0.928943 0.128446 0.122035
H18   H     H_    0.361240 0.338949 0.288765 0.016729
H19   H     H_    0.580586 0.381542 0.272763 0.063524
H20   H     H_    0.341539 0.234162 0.139058 0.123804
H21   H     H_    0.433627 0.370013 0.120058 0.062712
H22   H     H_    0.563370 0.266794 0.124122 0.117893
H23   H     H_    0.731252 0.989984 0.146296 0.127016
H24   H     H_    0.101067 0.273157 0.803978 0.079218
H25   H     H_    0.893443 0.204350 0.778111 -0.109983
H26   H     H_    0.136499 0.148684 0.928791 0.127896
H27   H     H_    0.955910 0.211303 0.948639 0.062474
H28   H     H_    0.933641 0.074662 0.901912 0.118191
H29   H     H_    0.669972 0.199477 0.888012 -0.067109
H30   H     H_    0.418387 0.168692 0.988841 0.103231
H31   H     H_    0.551543 0.067527 0.994855 0.080038
H32   H     H_    0.088312 0.748581 0.187866 0.067006
H33   H     H_    0.359269 0.041273 0.927031 0.132995
H34   H     H_    0.372989 0.553602 0.299466 0.070702
H35   H     H_    0.496590 0.636133 0.018486 0.079423
H36   H     H_    0.690887 0.363345 0.981751 0.056576
H37   H     H_    0.818382 0.439027 0.699263 0.069959
H38   H     H_    0.895219 0.400389 0.106790 0.098466
H39   H     H_    0.293932 0.595643 0.892552 0.111327
H40   H     H_    0.336862 0.048775 0.392400 0.094182
H41   H     H_    0.864427 0.942813 0.604464 0.107468
H42   H     H_    0.815323 0.261098 0.538767 0.058957
H43   H     H_    0.283790 0.835481 0.209257 -0.073546
H44   H     H_    0.377833 0.729279 0.456145 0.070001
H45   H     H_    0.992864 0.880159 0.084177 0.126724
H46   H     H_    0.176090 0.974878 0.112754 0.087078
H47   H     H_    0.354593 0.744368 0.643062 0.007824
H48   H     H_    0.146651 0.742498 0.596012 0.068004
O1    O     O_2   0.887370 0.460630 0.272300 -0.468294
O2    O     O_3   0.682083 0.764437 0.695531 -0.615337
O3    O     O_3   0.077173 0.888184 0.267233 -0.603237
O4    O     O_2   0.302330 0.539400 0.727760 -0.473851
O5    O     O_3   0.060300 0.548700 0.611500 -0.497372
O6    O     O_3   0.519500 0.346920 0.670840 -0.444664
O7    O     O_3   0.170857 0.711113 0.737776 -0.624834
O8    O     O_3   0.614310 0.373510 0.452640 -0.482073
O9    O     O_3   0.100780 0.295230 0.623970 -0.485545
O10   O     O_2   0.202994 0.111872 0.572863 -0.469143
O11   O     O_3   0.086813 0.120573 0.742699 -0.576915
O12   O     O_3   0.129410 0.451380 0.388510 -0.495817
O13   O     O_3   0.575400 0.626570 0.547370 -0.496412
O14   O     O_2   0.344320 0.238700 0.455090 -0.467563
O15   O     O_3   0.511109 0.221372 0.298790 -0.653034
O16   O     O_2   0.396745 0.399202 0.831911 -0.497479
O17   O     O_3   0.447368 0.200535 0.809480 -0.564432
O18   O     O_3   0.670210 0.653170 0.329170 -0.480586
O19   O     O_2   0.792462 0.593576 0.165695 -0.486437
O20   O     O_3   0.018110 0.289141 0.261875 -0.641317
O21   O     O_3   0.719090 0.786781 0.173431 -0.589625
O22   O     O_2   0.845380 0.761330 0.544970 -0.471376
O23   O     O_3   0.088930 0.704860 0.376040 -0.479659
O24   O     O_2   0.011996 0.887621 0.444717 -0.490880
P1    P     P_3+3 0.054400 0.427280 0.286870 0.970699
P2    P     P_3+3 0.668300 0.742890 0.573060 0.981108
P3    P     P_3+3 0.132153 0.843304 0.376194 0.946866
P4    P     P_3+3 0.135310 0.572810 0.713130 0.977731
P5    P     P_3+3 0.062322 0.155964 0.626345 0.988637
P6    P     P_3+3 0.658590 0.655554 0.206588 0.965720
P7    P     P_3+3 0.526384 0.242055 0.421044 0.934405
P8    P     P_3+3 0.528989 0.334867 0.792231 0.970432
C41   C     C_1   0.213716 0.842630 0.025778 0.196395
N1    N     N_1   0.282959 0.807796 0.964162 -0.291727
C42   C     C_1   0.604238 0.059654 0.805404 0.242797
N2    N     N_1   0.643209 0.989092 0.761176 -0.307547

loop_
_geom_bond_atom_site_label_1
_geom_bond_atom_site_label_2
_ccdc_geom_bond_type
C34   H47   S    
O8    P7    S    
C9    C16   A    
C39   C40   S    
O18   P6    S    
C33   P5    S    
C17   C18   A    
Ba2   P4    S    
C41   N1    T    
C3    O15   S    
C6    H27   S    
C19   P4    S    
Ba1   O23   S    
C15   C24   A    
C12   H32   S    
Ba2   O5    S    
C17   C19   A    
C20   H37   S    
C14   H35   S    
Ba1   O22   S    
C3    C4    S    
C1    H12   S    
Ba2   O12   S    
C13   C14   A    
C27   C31   A    
C23   H45   S    
C13   P6    S    
Ba1   Ba2   S    
C4    H22   S    
O7    P4    S    
C17   C24   A    
C36   H3    S    
O12   P1    S    
C40   H14   S    
C37   O20   S    
C18   C22   A    
C14   C15   A    
C21   C22   A    
C34   O7    S    
Ba1   P2    S    
C7    C8    S    
Ba1   O13   S    
C12   O3    S    
C10   P1    S    
O5    P4    S    
C19   C20   A    
C1    H23   S    
O3    P3    S    
C40   H15   S    
C31   C32   A    
C21   P8    S    
C25   C32   A    
C9    C18   A    
O15   P7    S    
O11   P5    S    
Ba2   O4    S    
C37   C38   S    
O14   P7    D    
C25   C33   A    
C5    H25   S    
C23   H46   S    
C7    C42   S    
O21   P6    S    
C4    H21   S    
C36   H2    S    
C27   C28   A    
C40   H13   S    
C23   C41   S    
C8    H33   S    
C29   C30   A    
C11   H34   S    
Ba2   O14   S    
Ba1   O5    S    
O16   P8    D    
C15   C16   A    
C3    H19   S    
O10   P5    D    
C30   C35   A    
O2    P2    S    
C39   H11   S    
C32   P7    S    
O23   P3    S    
C22   H36   S    
C2    H1    S    
C2    O21   S    
Ba2   O9    S    
C6    H26   S    
C24   H39   S    
C11   C13   A    
C26   H44   S    
C42   N2    T    
C2    H16   S    
C1    C2    S    
C29   P2    S    
O22   P2    D    
C34   C36   S    
C37   H5    S    
C34   H48   S    
C25   H42   S    
C39   H10   S    
C3    H18   S    
C33   C35   A    
C26   C29   A    
C7    H29   S    
C12   H43   S    
Ba1   O8    S    
C28   P3    S    
C7    O17   S    
C38   H9    S    
C6    H28   S    
O6    P8    S    
C30   C31   A    
C4    H20   S    
Ba2   O6    S    
O13   P2    S    
C27   H40   S    
C5    H24   S    
O4    P4    D    
Ba2   O13   S    
C38   H8    S    
Ba1   O12   S    
C26   C28   A    
C8    H31   S    
O1    P1    D    
C12   C23   S    
C36   H4    S    
O24   P3    D    
C5    C6    S    
C9    H38   S    
Ba1   O18   S    
O9    P5    S    
C39   O2    S    
C10   C11   A    
Ba2   O8    S    
Ba1   O1    S    
C5    O11   S    
C10   C16   A    
C20   C21   A    
C35   H41   S    
Ba1   P1    S    
O17   P8    S    
O20   P1    S    
C38   H7    S    
O19   P6    D    
C1    H17   S    
C37   H6    S    
C8    H30   S    
