data_mof_unit_42517.cif
_audit_creation_date              2012-12-10T18:13:29-0500
_audit_creation_method            fapswitch 2.2
_symmetry_space_group_name_H-M    P1
_symmetry_Int_Tables_number       1
_space_group_crystal_system       triclinic
_cell_length_a                    18.275905
_cell_length_b                    18.346226
_cell_length_c                    25.925238
_cell_angle_alpha                 89.759033
_cell_angle_beta                  90.217818
_cell_angle_gamma                 90.078697
_cell_volume                      8692.42602998

loop_
_atom_site_label
_atom_site_type_symbol
_atom_type_description
_atom_site_fract_x
_atom_site_fract_y
_atom_site_fract_z
_atom_type_partial_charge
C1    C     C_R   0.858587 0.138855 0.250608 0.492782
C2    C     C_R   0.821775 0.265844 0.253115 -0.136806
C3    C     C_R   0.284390 0.267647 0.293519 -0.030494
C4    C     C_3   0.284972 0.895545 0.285994 -0.240648
C5    C     C_3   0.362267 0.906468 0.308385 -0.312962
C6    C     C_3   0.372130 0.983625 0.329222 -0.460802
C7    C     C_3   0.185670 0.793095 0.847110 -0.236456
C8    C     C_3   0.202888 0.742781 0.893185 -0.317961
C9    C     C_3   0.156747 0.762783 0.940046 -0.452106
C10   C     C_3   0.700434 0.894902 0.263956 -0.256797
C11   C     C_3   0.662941 0.893669 0.316970 -0.301293
C12   C     C_3   0.634201 0.968684 0.331606 -0.464879
C13   C     C_R   0.243028 0.202069 0.711652 -0.126992
C14   C     C_3   0.836214 0.774063 0.841623 -0.240967
C15   C     C_3   0.823895 0.719869 0.886158 -0.315741
C16   C     C_3   0.876935 0.734391 0.930625 -0.453937
C17   C     C_3   0.724784 0.331120 0.651462 -0.232892
C18   C     C_3   0.759288 0.298834 0.602581 -0.323050
C19   C     C_3   0.733656 0.339623 0.554306 -0.450308
C20   C     C_3   0.799472 0.398227 0.239025 -0.256777
C21   C     C_3   0.842596 0.403908 0.188370 -0.305792
C22   C     C_3   0.869585 0.481676 0.179050 -0.466909
C23   C     C_3   0.352386 0.259964 0.665915 -0.242334
C24   C     C_R   0.229715 0.214868 0.291738 -0.131463
C25   C     C_3   0.346450 0.200428 0.624523 -0.314353
C26   C     C_3   0.405223 0.210108 0.583354 -0.458187
C27   C     C_3   0.326649 0.282984 0.343461 -0.237560
C28   C     C_3   0.316165 0.227733 0.387620 -0.321014
C29   C     C_3   0.366487 0.245030 0.433114 -0.457969
C30   C     C_3   0.781269 0.187843 0.848709 -0.244289
C31   C     C_3   0.783654 0.255466 0.883465 -0.310931
C32   C     C_3   0.810791 0.236180 0.937588 -0.454375
C33   C     C_3   0.700527 0.098292 0.232460 -0.242351
C34   C     C_3   0.696270 0.094969 0.173286 -0.273773
C35   C     C_R   0.320078 0.764491 0.263967 -0.127012
C36   C     C_3   0.679004 0.018445 0.154147 -0.450043
C37   C     C_3   0.134201 0.247650 0.833380 -0.252899
C38   C     C_3   0.061760 0.277705 0.811649 -0.297955
C39   C     C_3   0.999265 0.267506 0.849915 -0.455725
C40   C     C_3   0.159901 0.224396 0.151787 -0.244807
C41   C     C_3   0.103315 0.284989 0.142866 -0.312286
C42   C     C_3   0.049422 0.264865 0.100061 -0.458510
C43   C     C_3   0.211097 0.597326 0.219209 -0.244369
C44   C     C_3   0.178775 0.560580 0.267352 -0.286098
C45   C     C_3   0.156181 0.481799 0.257727 -0.456765
C46   C     C_R   0.278363 0.722400 0.793751 -0.131890
C47   C     C_3   0.289579 0.687694 0.648031 -0.237358
C48   C     C_3   0.363579 0.707767 0.624201 -0.295131
C49   C     C_3   0.369964 0.675896 0.570075 -0.448518
C50   C     C_3   0.792558 0.598765 0.288553 -0.226302
C51   C     C_3   0.770987 0.591288 0.346125 -0.261554
C52   C     C_3   0.779446 0.512862 0.364994 -0.439910
C53   C     C_3   0.664135 0.723808 0.651841 -0.249289
C54   C     C_3   0.595352 0.770993 0.646850 -0.307655
C55   C     C_3   0.556379 0.756804 0.595796 -0.464889
C56   C     C_3   0.105242 0.720238 0.200434 -0.262226
C57   C     C_R   0.679679 0.764690 0.244476 -0.142217
C58   C     C_3   0.114645 0.729839 0.142044 -0.298316
C59   C     C_3   0.042627 0.716842 0.113523 -0.460435
C60   C     C_3   0.219548 0.836769 0.653698 -0.251044
C61   C     C_3   0.253626 0.912742 0.661344 -0.301131
C62   C     C_3   0.238045 0.962483 0.615225 -0.458316
C63   C     C_3   0.908768 0.706611 0.260907 -0.234191
C64   C     C_3   0.939959 0.701474 0.316371 -0.257849
C65   C     C_3   0.014501 0.665264 0.317992 -0.462820
C66   C     C_3   0.766961 0.853187 0.659054 -0.245171
C67   C     C_3   0.737639 0.929160 0.673149 -0.310864
C68   C     C_R   0.733395 0.711123 0.791726 -0.125445
C69   C     C_3   0.748151 0.983187 0.628839 -0.446244
C70   C     C_3   0.623951 0.210205 0.811024 -0.237497
C71   C     C_3   0.613349 0.129323 0.797120 -0.320089
C72   C     C_3   0.546382 0.097129 0.823922 -0.448999
C73   C     C_3   0.593826 0.209166 0.271101 -0.241905
C74   C     C_3   0.591023 0.174477 0.325148 -0.315615
C75   C     C_3   0.515992 0.141182 0.335835 -0.466936
C76   C     C_3   0.262568 0.354418 0.839184 -0.242371
C77   C     C_3   0.219106 0.424919 0.830709 -0.307157
C78   C     C_3   0.237328 0.481445 0.871880 -0.447665
C79   C     C_R   0.805671 0.198367 0.751288 0.011342
C80   C     C_3   0.284556 0.333811 0.150908 -0.233469
C81   C     C_3   0.265813 0.415532 0.152360 -0.310217
C82   C     C_3   0.280799 0.452450 0.100612 -0.442175
C83   C     C_R   0.800318 0.193122 0.251204 0.018650
C84   C     C_R   0.193521 0.198628 0.752231 0.033098
C85   C     C_R   0.861426 0.141620 0.751413 0.490121
C86   C     C_R   0.192688 0.199381 0.246122 0.027585
C87   C     C_R   0.302119 0.694170 0.248275 0.029356
C88   C     C_R   0.304407 0.697307 0.746566 0.022546
C89   C     C_R   0.699878 0.692530 0.251994 0.014567
C90   C     C_R   0.693857 0.698592 0.746595 0.029622
C91   C     C_R   0.759011 0.208285 0.793685 0.002122
C92   C     C_R   0.725026 0.174178 0.248833 -0.009943
C93   C     C_R   0.195187 0.249597 0.793036 0.000055
C94   C     C_R   0.206793 0.238624 0.199928 -0.001816
C95   C     C_R   0.230789 0.676419 0.231316 -0.003792
C96   C     C_R   0.138824 0.141057 0.248678 0.487092
C97   C     C_R   0.276457 0.725734 0.699361 -0.007914
C98   C     C_R   0.773149 0.674149 0.266342 -0.007645
C99   C     C_R   0.706360 0.740456 0.701331 -0.001803
C100  C     C_R   0.177785 0.732686 0.228468 -0.011883
C101  C     C_R   0.230847 0.787832 0.701293 -0.005984
C102  C     C_R   0.827734 0.728237 0.260275 -0.008307
C103  C     C_R   0.758066 0.798350 0.703529 -0.005673
C104  C     C_R   0.691488 0.241894 0.784294 0.000024
C105  C     C_R   0.672482 0.229522 0.256336 -0.002221
C106  C     C_R   0.252859 0.301732 0.794078 -0.008594
C107  C     C_R   0.139551 0.140502 0.750539 0.493134
C108  C     C_R   0.262921 0.292667 0.200398 -0.014515
C109  C     C_R   0.195606 0.802744 0.248219 0.044482
C110  C     C_R   0.198754 0.806480 0.749195 0.045911
C111  C     C_R   0.805277 0.802056 0.252366 0.046339
C112  C     C_R   0.801354 0.806226 0.748868 0.047765
C113  C     C_R   0.687683 0.294144 0.743594 0.019571
C114  C     C_R   0.695311 0.303307 0.251881 0.048958
C115  C     C_R   0.302171 0.304957 0.751673 0.044826
C116  C     C_R   0.301087 0.306211 0.247635 0.039100
C117  C     C_R   0.066271 0.996016 0.026925 -0.142818
C118  C     C_R   0.360509 0.640804 0.748570 0.494152
C119  C     C_R   0.066368 0.995969 0.973472 -0.144633
C120  C     C_R   0.933591 0.003745 0.026507 -0.143772
C121  C     C_R   0.933690 0.003774 0.973051 -0.146717
C122  C     C_R   0.565990 0.507720 0.526916 -0.145808
C123  C     C_R   0.566104 0.507638 0.473450 -0.142870
C124  C     C_R   0.434301 0.489600 0.526557 -0.152938
C125  C     C_R   0.434359 0.489809 0.473102 -0.143652
C126  C     C_R   0.000086 0.999909 0.946288 0.037092
C127  C     C_R   0.999885 0.999908 0.053696 0.037924
C128  C     C_R   0.500224 0.499074 0.446302 0.040308
C129  C     C_R   0.359867 0.639871 0.249953 0.492129
C130  C     C_R   0.500017 0.499102 0.553709 0.035982
C131  C     C_R   0.139893 0.859746 0.249639 0.483675
C132  C     C_R   0.140234 0.860251 0.750194 0.485299
C133  C     C_R   0.859998 0.859780 0.250411 0.491886
C134  C     C_R   0.859828 0.860267 0.750026 0.483063
C135  C     C_R   0.637196 0.356778 0.747508 0.488616
C136  C     C_R   0.640404 0.360445 0.249989 0.485771
C137  C     C_R   0.359429 0.360430 0.750473 0.483434
C138  C     C_R   0.359439 0.360523 0.249475 0.477019
C139  C     C_R   0.999913 0.999970 0.109793 0.501141
C140  C     C_R   0.638925 0.641072 0.748605 0.492905
C141  C     C_R   0.000081 0.999971 0.890201 0.497609
C142  C     C_R   0.499932 0.499807 0.609796 0.496144
C143  C     C_R   0.500106 0.499748 0.390206 0.505803
C144  C     C_R   0.999334 0.999878 0.390032 0.530573
C145  C     C_R   0.999189 0.000077 0.609982 0.517477
C146  C     C_R   0.499066 0.499856 0.890026 0.523665
C147  C     C_R   0.499126 0.500036 0.109957 0.519523
C148  C     C_R   0.005848 0.064031 0.473257 -0.043148
C149  C     C_R   0.005670 0.064171 0.526397 -0.045382
C150  C     C_R   0.499230 0.564626 0.973203 -0.048029
C151  C     C_R   0.641461 0.638749 0.249790 0.494571
C152  C     C_R   0.499181 0.564745 0.026333 -0.046937
C153  C     C_R   0.992785 0.999964 0.445858 -0.028578
C154  C     C_R   0.992369 0.000276 0.554159 -0.034092
C155  C     C_R   0.491707 0.499704 0.945804 -0.031103
C156  C     C_R   0.491752 0.499906 0.054120 -0.036724
C157  C     C_R   0.969474 0.937555 0.473176 0.379658
C158  C     C_R   0.969182 0.937733 0.527122 0.374194
C159  C     C_R   0.473456 0.435660 0.973155 0.377644
C160  C     C_R   0.473659 0.435693 0.027058 0.365052
C161  C     C_3   0.069095 0.115432 0.529223 -0.255787
C162  C     C_R   0.793708 0.237337 0.705477 -0.137148
C163  C     C_3   0.069292 0.115326 0.470634 -0.256583
C164  C     C_3   0.557473 0.621752 0.029006 -0.250770
C165  C     C_3   0.557519 0.621631 0.970412 -0.253196
C166  C     C_R   0.267151 0.819281 0.265766 -0.025268
C167  C     C_R   0.221812 0.773238 0.795909 -0.030794
C168  C     C_R   0.730168 0.820045 0.251192 -0.024115
C169  C     C_R   0.788977 0.763204 0.793386 -0.027349
C170  C     C_R   0.736637 0.287827 0.701328 -0.033985
C171  C     C_R   0.770649 0.321394 0.248351 -0.025306
C172  C     C_R   0.297469 0.255375 0.710200 -0.025700
F1    F     F_    0.949399 0.875776 0.448122 -0.584683
F2    F     F_    0.948713 0.876121 0.552484 -0.586170
F3    F     F_    0.458475 0.372381 0.948228 -0.583364
F4    F     F_    0.459094 0.372307 0.052275 -0.591218
H1    H     H_    0.053525 0.168951 0.545826 0.150951
H2    H     H_    0.879568 0.279328 0.254111 0.126004
H3    H     H_    0.126427 0.190718 0.847072 0.160900
H4    H     H_    0.147082 0.278848 0.868513 0.135026
H5    H     H_    0.079050 0.255291 0.063377 0.155997
H6    H     H_    0.018324 0.214972 0.110708 0.153057
H7    H     H_    0.009990 0.310158 0.094117 0.138241
H8    H     H_    0.072216 0.294540 0.178998 0.163644
H9    H     H_    0.130781 0.336379 0.131716 0.163732
H10   H     H_    0.194364 0.215787 0.117273 0.133258
H11   H     H_    0.129036 0.172834 0.154528 0.174768
H12   H     H_    0.119337 0.478153 0.223660 0.137596
H13   H     H_    0.238106 0.162094 0.681279 0.103752
H14   H     H_    0.205330 0.447548 0.251877 0.173259
H15   H     H_    0.126570 0.460427 0.291926 0.144096
H16   H     H_    0.218884 0.561716 0.299607 0.198635
H17   H     H_    0.130240 0.591290 0.279848 0.150244
H18   H     H_    0.172465 0.593368 0.186314 0.129024
H19   H     H_    0.259618 0.566303 0.206242 0.143439
H20   H     H_    0.364634 0.615692 0.571670 0.170710
H21   H     H_    0.326491 0.698403 0.544567 0.149441
H22   H     H_    0.423758 0.689862 0.553106 0.141714
H23   H     H_    0.369358 0.767989 0.621769 0.152231
H24   H     H_    0.215572 0.183847 0.325842 0.113911
H25   H     H_    0.408830 0.686281 0.648601 0.171935
H26   H     H_    0.284104 0.627901 0.651990 0.181331
H27   H     H_    0.244623 0.699774 0.620443 0.128136
H28   H     H_    0.742693 0.476191 0.342935 0.194624
H29   H     H_    0.836940 0.494531 0.360363 0.135889
H30   H     H_    0.764709 0.509326 0.406448 0.134409
H31   H     H_    0.805195 0.626688 0.370775 0.143142
H32   H     H_    0.714342 0.609529 0.353660 0.198619
H33   H     H_    0.767236 0.555835 0.264604 0.155525
H34   H     H_    0.851144 0.585067 0.286034 0.122400
H35   H     H_    0.375736 0.774869 0.276225 0.109128
H36   H     H_    0.592417 0.771656 0.562979 0.157090
H37   H     H_    0.541268 0.698306 0.592871 0.154976
H38   H     H_    0.505991 0.790390 0.593497 0.139872
H39   H     H_    0.557416 0.758202 0.679083 0.163855
H40   H     H_    0.609619 0.829622 0.648834 0.164958
H41   H     H_    0.699886 0.729215 0.617596 0.137422
H42   H     H_    0.647354 0.666072 0.649733 0.174592
H43   H     H_    0.022842 0.660412 0.120621 0.145019
H44   H     H_    0.000485 0.756198 0.126582 0.150088
H45   H     H_    0.051034 0.724370 0.071433 0.143488
H46   H     H_    0.300337 0.698577 0.828735 0.124653
H47   H     H_    0.133796 0.786200 0.133641 0.176317
H48   H     H_    0.156311 0.691188 0.127334 0.157737
H49   H     H_    0.082114 0.665784 0.209462 0.133619
H50   H     H_    0.062815 0.758935 0.213223 0.149959
H51   H     H_    0.261331 0.938909 0.579480 0.150600
H52   H     H_    0.178105 0.969930 0.610163 0.155453
H53   H     H_    0.263435 0.016717 0.621823 0.130730
H54   H     H_    0.231985 0.939532 0.696331 0.177398
H55   H     H_    0.313837 0.907112 0.666169 0.156476
H56   H     H_    0.245477 0.814807 0.618638 0.138740
H57   H     H_    0.622422 0.778508 0.239085 0.128738
H58   H     H_    0.160557 0.841204 0.644134 0.187781
H59   H     H_    0.011410 0.611330 0.298844 0.132185
H60   H     H_    0.055644 0.700583 0.299108 0.173045
H61   H     H_    0.031710 0.656856 0.358710 0.158836
H62   H     H_    0.944510 0.755627 0.334731 0.234859
H63   H     H_    0.903954 0.669079 0.341231 0.157536
H64   H     H_    0.916385 0.654726 0.239741 0.110011
H65   H     H_    0.942090 0.744592 0.237473 0.145758
H66   H     H_    0.807202 0.988716 0.619503 0.169279
H67   H     H_    0.717914 0.964643 0.594030 0.156411
H68   H     H_    0.721213 0.677823 0.825138 0.112628
H69   H     H_    0.726905 0.037460 0.640219 0.137063
H70   H     H_    0.678493 0.925602 0.682448 0.151618
H71   H     H_    0.765993 0.951265 0.707493 0.185990
H72   H     H_    0.825361 0.856933 0.647833 0.203817
H73   H     H_    0.738512 0.836617 0.623399 0.149165
H74   H     H_    0.552817 0.100642 0.866463 0.165652
H75   H     H_    0.496093 0.126776 0.811970 0.164075
H76   H     H_    0.540275 0.038923 0.813126 0.145236
H77   H     H_    0.605963 0.124277 0.754678 0.160608
H78   H     H_    0.661859 0.096485 0.808271 0.172534
H79   H     H_    0.118107 0.992867 0.047200 0.136841
H80   H     H_    0.628641 0.216558 0.853451 0.154756
H81   H     H_    0.572470 0.236345 0.798818 0.195091
H82   H     H_    0.472836 0.183489 0.333015 0.154700
H83   H     H_    0.503996 0.097344 0.307624 0.149003
H84   H     H_    0.515183 0.117405 0.375284 0.141700
H85   H     H_    0.633099 0.131473 0.329711 0.162824
H86   H     H_    0.602641 0.217020 0.354496 0.161149
H87   H     H_    0.556354 0.256215 0.272888 0.169314
H88   H     H_    0.569603 0.172917 0.241390 0.146013
H89   H     H_    0.224283 0.459742 0.910846 0.156807
H90   H     H_    0.118228 0.992735 0.953527 0.134109
H91   H     H_    0.296283 0.496175 0.870293 0.157634
H92   H     H_    0.204505 0.531475 0.865010 0.135618
H93   H     H_    0.232096 0.448397 0.792206 0.178791
H94   H     H_    0.159654 0.413128 0.832092 0.159193
H95   H     H_    0.248769 0.328800 0.876617 0.140813
H96   H     H_    0.320951 0.368413 0.844881 0.191790
H97   H     H_    0.339419 0.446983 0.090433 0.199536
H98   H     H_    0.246617 0.427697 0.069781 0.154973
H99   H     H_    0.267344 0.511336 0.103192 0.125358
H100  H     H_    0.207258 0.422973 0.161748 0.146683
H101  H     H_    0.881724 0.006895 0.046452 0.133093
H102  H     H_    0.298785 0.443928 0.182009 0.165323
H103  H     H_    0.343826 0.326603 0.143599 0.211145
H104  H     H_    0.258599 0.311047 0.116080 0.145750
H105  H     H_    0.053836 0.168792 0.453488 0.150524
H106  H     H_    0.881855 0.006976 0.952771 0.131693
H107  H     H_    0.617421 0.514931 0.547184 0.131309
H108  H     H_    0.617582 0.514788 0.453454 0.129298
H109  H     H_    0.382903 0.481979 0.546549 0.127177
H110  H     H_    0.382947 0.482474 0.452837 0.131957
H111  H     H_    0.364739 0.024383 0.297814 0.155893
H112  H     H_    0.331950 0.994510 0.360295 0.148121
H113  H     H_    0.428138 0.989611 0.345432 0.139010
H114  H     H_    0.371751 0.867162 0.340471 0.161710
H115  H     H_    0.403780 0.897557 0.277825 0.159600
H116  H     H_    0.118639 0.089948 0.546599 0.125753
H117  H     H_    0.277410 0.935284 0.253952 0.173040
H118  H     H_    0.244948 0.908834 0.316762 0.143273
H119  H     H_    0.167440 0.820091 0.951569 0.156502
H120  H     H_    0.097588 0.756139 0.931199 0.147096
H121  H     H_    0.170983 0.726393 0.972906 0.142184
H122  H     H_    0.191144 0.685204 0.882747 0.159469
H123  H     H_    0.261514 0.748099 0.904094 0.161283
H124  H     H_    0.202039 0.849515 0.857522 0.174983
H125  H     H_    0.125340 0.792119 0.841304 0.146771
H126  H     H_    0.680146 0.008163 0.334146 0.144891
H127  H     H_    0.118980 0.089838 0.453903 0.125638
H128  H     H_    0.593580 0.987753 0.302613 0.147171
H129  H     H_    0.607005 0.965650 0.369780 0.146334
H130  H     H_    0.616171 0.854886 0.316732 0.157810
H131  H     H_    0.702751 0.875417 0.346884 0.179707
H132  H     H_    0.743932 0.936502 0.265470 0.165538
H133  H     H_    0.660262 0.911354 0.233932 0.135156
H134  H     H_    0.934389 0.727920 0.917572 0.147593
H135  H     H_    0.869255 0.790473 0.945666 0.156872
H136  H     H_    0.866563 0.694929 0.962365 0.141311
H137  H     H_    0.767156 0.725304 0.900954 0.158819
H138  H     H_    0.536935 0.673573 0.045606 0.151639
H139  H     H_    0.832539 0.663240 0.872366 0.162325
H140  H     H_    0.894641 0.770275 0.830069 0.143178
H141  H     H_    0.826360 0.829864 0.856568 0.171967
H142  H     H_    0.673411 0.334530 0.549631 0.153421
H143  H     H_    0.748494 0.398245 0.556890 0.154844
H144  H     H_    0.760378 0.316131 0.519771 0.146861
H145  H     H_    0.819860 0.303387 0.604768 0.161151
H146  H     H_    0.743723 0.240468 0.598873 0.162558
H147  H     H_    0.664880 0.334356 0.644055 0.162428
H148  H     H_    0.746439 0.387220 0.656858 0.177726
H149  H     H_    0.536997 0.673380 0.953271 0.150801
H150  H     H_    0.822558 0.519725 0.175686 0.145921
H151  H     H_    0.905670 0.499417 0.211234 0.142538
H152  H     H_    0.901270 0.483930 0.142618 0.141157
H153  H     H_    0.890891 0.367235 0.189354 0.156722
H154  H     H_    0.806889 0.387370 0.155615 0.169116
H155  H     H_    0.755095 0.438691 0.236413 0.165714
H156  H     H_    0.835289 0.413948 0.271917 0.136132
H157  H     H_    0.398472 0.263356 0.563330 0.153775
H158  H     H_    0.460615 0.207471 0.601054 0.150423
H159  H     H_    0.400338 0.165833 0.554479 0.136620
H160  H     H_    0.609267 0.601072 0.046294 0.134033
H161  H     H_    0.353500 0.145840 0.642651 0.158387
H162  H     H_    0.291967 0.203183 0.605393 0.158589
H163  H     H_    0.345870 0.313776 0.646579 0.165218
H164  H     H_    0.408457 0.257476 0.682676 0.140900
H165  H     H_    0.424737 0.241875 0.421253 0.151255
H166  H     H_    0.354977 0.300473 0.448108 0.154771
H167  H     H_    0.357050 0.204815 0.464500 0.139742
H168  H     H_    0.258721 0.229556 0.401486 0.158213
H169  H     H_    0.328780 0.171851 0.373797 0.158293
H170  H     H_    0.386023 0.284410 0.334362 0.140623
H171  H     H_    0.609346 0.600897 0.953604 0.131085
H172  H     H_    0.310676 0.337765 0.357637 0.171821
H173  H     H_    0.773988 0.195266 0.955687 0.158590
H174  H     H_    0.867223 0.213860 0.935982 0.149225
H175  H     H_    0.811423 0.285915 0.961846 0.147547
H176  H     H_    0.820967 0.296903 0.866463 0.159036
H177  H     H_    0.728483 0.280244 0.886592 0.175188
H178  H     H_    0.743114 0.146846 0.865071 0.144314
H179  H     H_    0.836888 0.164069 0.850205 0.171466
H180  H     H_    0.723131 0.980182 0.165838 0.177577
H181  H     H_    0.625712 0.999649 0.169797 0.141084
H182  H     H_    0.829998 0.228353 0.673350 0.138935
H183  H     H_    0.675391 0.018909 0.111386 0.142760
H184  H     H_    0.652781 0.132660 0.159408 0.163774
H185  H     H_    0.748839 0.112963 0.155977 0.190141
H186  H     H_    0.737268 0.056209 0.248431 0.159565
H187  H     H_    0.646611 0.082842 0.248165 0.128287
H188  H     H_    0.990604 0.208641 0.858161 0.148291
H189  H     H_    0.011461 0.296485 0.886489 0.148580
H190  H     H_    0.948101 0.290089 0.833118 0.143029
H191  H     H_    0.067751 0.336622 0.802765 0.153102
H192  H     H_    0.046352 0.250096 0.775316 0.194356
O1    O     O_3   1.000000 0.000010 0.249960 -0.433616
O2    O     O_R   0.414520 0.646190 0.219700 -0.542905
O3    O     O_R   0.585480 0.646190 0.780300 -0.543516
O4    O     O_R   0.585480 0.646190 0.219700 -0.543762
O5    O     O_R   0.085460 0.853840 0.280340 -0.555336
O6    O     O_R   0.085460 0.853840 0.719660 -0.542263
O7    O     O_R   0.914540 0.853840 0.280340 -0.552428
O8    O     O_R   0.914540 0.853840 0.719660 -0.532201
O9    O     O_R   0.585460 0.353840 0.780340 -0.557495
O10   O     O_R   0.585460 0.353840 0.219660 -0.541686
O11   O     O_R   0.414540 0.353840 0.780340 -0.546233
O12   O     O_3   0.000000 0.000010 0.750040 -0.433198
O13   O     O_R   0.414540 0.353840 0.219660 -0.545584
O14   O     O_R   0.853820 0.914550 0.219610 -0.561799
O15   O     O_R   0.853820 0.914550 0.780390 -0.563098
O16   O     O_R   0.146180 0.914550 0.219610 -0.550102
O17   O     O_R   0.146180 0.914550 0.780390 -0.562329
O18   O     O_R   0.353820 0.414550 0.719610 -0.552220
O19   O     O_R   0.353820 0.414550 0.280390 -0.565563
O20   O     O_R   0.646180 0.414550 0.719610 -0.553887
O21   O     O_R   0.646180 0.414550 0.280390 -0.572894
O22   O     O_R   0.146170 0.085440 0.219600 -0.554895
O23   O     O_3   0.500000 0.500010 0.749960 -0.433175
O24   O     O_R   0.146170 0.085440 0.780400 -0.543826
O25   O     O_R   0.853830 0.085440 0.219600 -0.559479
O26   O     O_R   0.853830 0.085440 0.780400 -0.556538
O27   O     O_R   0.646170 0.585440 0.719600 -0.551489
O28   O     O_R   0.646170 0.585440 0.280400 -0.564286
O29   O     O_R   0.353830 0.585440 0.719600 -0.557283
O30   O     O_R   0.353830 0.585440 0.280400 -0.551638
O31   O     O_R   0.939270 0.999980 0.134160 -0.550068
O32   O     O_R   0.939270 0.999980 0.865840 -0.556884
O33   O     O_R   0.060730 0.999980 0.134160 -0.552380
O34   O     O_3   0.500000 0.500010 0.250040 -0.432424
O35   O     O_R   0.060730 0.999980 0.865840 -0.553235
O36   O     O_R   0.439270 0.499980 0.634160 -0.556344
O37   O     O_R   0.439270 0.499980 0.365840 -0.549108
O38   O     O_R   0.560730 0.499980 0.634160 -0.558466
O39   O     O_R   0.560730 0.499980 0.365840 -0.553401
O40   O     O_R   0.000000 0.060760 0.365760 -0.550176
O41   O     O_R   0.000000 0.060760 0.634240 -0.551970
O42   O     O_R   0.500000 0.560760 0.865760 -0.553084
O43   O     O_R   0.500000 0.560760 0.134240 -0.551391
O44   O     O_R   1.000000 0.939310 0.365770 -0.477497
O45   O     O_R   0.914520 0.146190 0.280300 -0.541187
O46   O     O_R   1.000000 0.939310 0.634230 -0.481456
O47   O     O_R   0.500000 0.439310 0.865770 -0.475127
O48   O     O_R   0.500000 0.439310 0.134230 -0.474132
O49   O     O_R   0.914520 0.146190 0.719700 -0.550687
O50   O     O_R   0.085480 0.146190 0.280300 -0.545627
O51   O     O_R   0.085480 0.146190 0.719700 -0.552733
O52   O     O_R   0.414520 0.646190 0.780300 -0.544405
Zn1   Zn    Zn3+2 0.000000 0.913260 0.293350 0.942958
Zn2   Zn    Zn3+2 0.413230 0.500000 0.293420 0.899816
Zn3   Zn    Zn3+2 0.586770 0.500000 0.706580 0.904151
Zn4   Zn    Zn3+2 0.586770 0.500000 0.293420 0.888452
Zn5   Zn    Zn3+2 0.000000 0.086780 0.293330 0.921551
Zn6   Zn    Zn3+2 0.000000 0.086780 0.706670 0.910405
Zn7   Zn    Zn3+2 0.500000 0.586780 0.793330 0.919155
Zn8   Zn    Zn3+2 0.500000 0.586780 0.206670 0.919291
Zn9   Zn    Zn3+2 1.000000 0.913260 0.706650 0.957849
Zn10  Zn    Zn3+2 0.500000 0.413260 0.793350 0.951245
Zn11  Zn    Zn3+2 0.500000 0.413260 0.206650 0.951393
Zn12  Zn    Zn3+2 0.913230 0.000000 0.206580 0.899376
Zn13  Zn    Zn3+2 0.913230 0.000000 0.793420 0.896119
Zn14  Zn    Zn3+2 0.086770 0.000000 0.206580 0.907897
Zn15  Zn    Zn3+2 0.086770 0.000000 0.793420 0.906155
Zn16  Zn    Zn3+2 0.413230 0.500000 0.706580 0.899639

loop_
_geom_bond_atom_site_label_1
_geom_bond_atom_site_label_2
_ccdc_geom_bond_type
C144  O44   A    
C99   C103  A    
C157  C158  A    
C118  O29   A    
O34   Zn8   S    
O20   Zn3   S    
C19   H144  S    
C55   H38   S    
C36   H180  S    
C40   H11   S    
C66   H72   S    
C53   C99   S    
C54   H40   S    
O17   Zn15  S    
C43   H18   S    
C82   H98   S    
C107  O51   A    
C154  C158  A    
C117  C119  A    
C25   H162  S    
C67   H70   S    
C69   H66   S    
C38   H192  S    
O39   Zn4   S    
C63   H65   S    
C151  O28   A    
C73   C74   S    
C17   H148  S    
C34   H185  S    
O43   Zn8   S    
C158  F2    S    
C13   C172  A    
C152  C156  A    
C50   H33   S    
O5    Zn1   S    
C47   C48   S    
C68   C90   A    
C14   H140  S    
C122  H107  S    
C30   H178  S    
C64   H62   S    
C88   C97   A    
C73   H88   S    
C2    C171  A    
C124  H109  S    
O34   Zn2   S    
C100  C109  A    
C144  O40   A    
C11   H130  S    
C21   C22   S    
C2    C83   A    
C162  H182  S    
C5    H115  S    
C161  C163  S    
C134  O15   A    
C42   H5    S    
C29   H167  S    
C46   C167  A    
C48   H23   S    
C51   C52   S    
O15   Zn13  S    
C32   H175  S    
C62   H51   S    
O25   Zn12  S    
C33   C92   S    
C70   H80   S    
C115  C172  A    
O12   Zn9   S    
C101  C110  A    
C98   C102  A    
C22   H150  S    
C103  C112  A    
O2    Zn8   S    
C43   C44   S    
C71   H78   S    
C37   C38   S    
C68   C169  A    
O46   Zn9   S    
C67   H71   S    
C112  C169  A    
C33   H187  S    
C75   H82   S    
C143  O37   A    
C12   H128  S    
C61   H54   S    
C44   H17   S    
C124  C130  A    
C76   C77   S    
C23   H163  S    
O49   Zn6   S    
C69   H69   S    
C8    H122  S    
C148  C153  A    
C19   H142  S    
C161  H1    S    
C79   C85   S    
C37   H4    S    
C131  O16   A    
C28   C29   S    
C66   C103  S    
C112  C134  S    
C4    C5    S    
C28   H168  S    
C90   C140  S    
C58   H47   S    
C113  C170  A    
C126  C141  S    
C46   H46   S    
C106  C115  A    
C59   H44   S    
C6    H111  S    
C25   C26   S    
C44   H16   S    
C5    C6    S    
O44   Zn1   S    
C84   C93   A    
C26   H157  S    
C109  C166  A    
C74   H85   S    
O12   Zn6   S    
C20   C21   S    
C24   H24   S    
C10   C168  S    
C113  C135  S    
C114  C136  S    
C34   H184  S    
O10   Zn11  S    
O28   Zn4   S    
C65   H60   S    
C120  C127  A    
C27   H172  S    
C57   C168  A    
C49   H21   S    
C53   C54   S    
C13   C84   A    
C137  O11   A    
C3    C116  A    
C38   C39   S    
C51   H31   S    
C40   H10   S    
C76   H95   S    
C84   C107  S    
C43   H19   S    
C139  O33   A    
C35   C87   A    
C70   H81   S    
C115  C137  S    
C87   C95   A    
C80   H103  S    
C41   H8    S    
C79   C91   A    
C62   H53   S    
C1    O45   A    
C66   C67   S    
C16   H135  S    
C145  O46   A    
C3    C24   A    
C63   C102  S    
C45   H15   S    
C31   H177  S    
C53   H41   S    
C114  C171  A    
C50   C98   S    
C11   H131  S    
C146  C155  S    
C155  C159  A    
C52   H29   S    
C163  H105  S    
C156  C160  A    
C4    H117  S    
O6    Zn9   S    
C129  O2    A    
C17   C170  S    
C131  O5    A    
C136  O21   A    
C72   H76   S    
C47   H26   S    
C32   H174  S    
C119  C126  A    
C93   C106  A    
C110  C167  A    
C73   C105  S    
C31   C32   S    
C17   C18   S    
C37   C93   S    
C18   H145  S    
C118  O52   A    
C135  O9    A    
C145  C154  S    
C7    H125  S    
C75   H83   S    
C150  C155  A    
O1    Zn12  S    
C77   H93   S    
O16   Zn14  S    
C88   C118  S    
O13   Zn11  S    
C90   C99   A    
C9    H119  S    
O11   Zn10  S    
O14   Zn12  S    
C120  C121  A    
C20   H156  S    
C27   H170  S    
C7    C167  S    
C54   C55   S    
C76   C106  S    
C39   H190  S    
O37   Zn2   S    
C26   H159  S    
C40   C94   S    
C55   H37   S    
C111  C168  A    
C147  O43   A    
C80   C108  S    
C47   C97   S    
C46   C88   A    
C89   C98   A    
C81   H100  S    
C145  O41   A    
C78   H91   S    
C87   C129  S    
C3    C27   S    
C82   H99   S    
C71   C72   S    
C25   H161  S    
C117  H79   S    
C120  H101  S    
O50   Zn5   S    
C62   H52   S    
C56   C58   S    
C34   C36   S    
C72   H75   S    
C61   C62   S    
C130  C142  S    
C17   H147  S    
C10   C11   S    
C104  C113  A    
C142  O36   A    
C45   H14   S    
C50   H34   S    
O36   Zn16  S    
C141  O32   A    
C138  O19   A    
O52   Zn7   S    
C146  O47   A    
C2    H2    S    
C14   H141  S    
C24   C86   A    
C30   H179  S    
C31   H176  S    
C41   C42   S    
C5    H114  S    
C102  C111  A    
C7    H124  S    
C42   H6    S    
C136  O10   A    
C29   H166  S    
C57   C89   A    
C56   H49   S    
C164  C165  S    
C123  H108  S    
C30   C31   S    
C70   C104  S    
C15   H139  S    
C22   H151  S    
C35   C166  A    
C18   C19   S    
C71   H77   S    
O45   Zn5   S    
C55   H36   S    
C33   H186  S    
O19   Zn2   S    
O41   Zn6   S    
C109  C131  S    
C43   C95   S    
C110  C132  S    
C70   C71   S    
C9    H121  S    
C14   C169  S    
C164  H138  S    
C54   H39   S    
C37   H3    S    
C16   H134  S    
C141  O35   A    
C81   H102  S    
C78   H89   S    
C7    C8    S    
C82   H97   S    
C60   H58   S    
C19   H143  S    
C63   H64   S    
C58   H48   S    
C95   C100  A    
C69   H67   S    
C58   C59   S    
C119  H90   S    
C85   O26   A    
C60   C61   S    
C52   H28   S    
C6    H112  S    
C149  C154  A    
O30   Zn2   S    
C159  C160  A    
C162  C170  A    
C161  H116  S    
C12   H129  S    
C47   H27   S    
O27   Zn3   S    
C147  C156  S    
C117  C127  A    
C132  O6    A    
O12   Zn13  S    
C26   H158  S    
C86   C96   S    
C74   H86   S    
C48   C49   S    
O48   Zn11  S    
C149  C161  S    
C165  H171  S    
C79   C162  A    
C44   C45   S    
C125  H110  S    
C60   H56   S    
C139  O31   A    
C65   H59   S    
C28   H169  S    
C49   H20   S    
C1    C83   S    
C64   C65   S    
C108  C116  A    
C143  O39   A    
C151  O4    A    
C147  O48   A    
C76   H96   S    
C61   H55   S    
O42   Zn7   S    
C153  C157  A    
C128  C143  S    
C23   H164  S    
O35   Zn15  S    
C92   C105  A    
C89   C151  S    
C20   C171  S    
C80   H104  S    
O23   Zn3   S    
C129  O30   A    
C72   H74   S    
C157  F1    S    
C36   H181  S    
C16   H136  S    
C107  O24   A    
C75   H84   S    
O29   Zn16  S    
C15   H137  S    
C146  O42   A    
C91   C104  A    
C81   C82   S    
C13   H13   S    
C83   C92   A    
O24   Zn15  S    
C94   C108  A    
C52   H30   S    
C4    H118  S    
O23   Zn16  S    
O1    Zn1   S    
C15   C16   S    
C1    O25   A    
O4    Zn8   S    
C144  C153  S    
O51   Zn6   S    
C35   H35   S    
O12   Zn15  S    
C86   C94   A    
C23   C172  S    
C8    C9    S    
C64   H63   S    
O47   Zn10  S    
O33   Zn14  S    
C125  C128  A    
C30   C91   S    
O23   Zn7   S    
C18   H146  S    
C59   H45   S    
O7    Zn1   S    
C6    H113  S    
C77   C78   S    
C163  H127  S    
O1    Zn14  S    
C66   H73   S    
C159  F3    S    
C160  F4    S    
C65   H61   S    
C135  O20   A    
C127  C139  S    
O31   Zn12  S    
C133  O7    A    
C96   O50   A    
C50   C51   S    
C116  C138  S    
C49   H22   S    
C74   C75   S    
O23   Zn10  S    
C105  C114  A    
C39   H189  S    
C148  C149  A    
O3    Zn7   S    
O21   Zn4   S    
C51   H32   S    
C111  C133  S    
O1    Zn5   S    
C150  C165  S    
C48   H25   S    
C63   C64   S    
C67   C69   S    
C78   H92   S    
C133  O14   A    
C132  O17   A    
C138  O13   A    
C85   O49   A    
O8    Zn9   S    
O9    Zn10  S    
C8    H123  S    
C140  O3    A    
C10   H132  S    
O34   Zn11  S    
C33   C34   S    
C41   H9    S    
O22   Zn14  S    
C152  C164  S    
O18   Zn16  S    
C36   H183  S    
C134  O8    A    
C40   C41   S    
C165  H149  S    
C150  C152  A    
C38   H191  S    
C121  H106  S    
C56   C100  S    
C60   C101  S    
C21   H153  S    
C164  H160  S    
C53   H42   S    
C10   H133  S    
O34   Zn4   S    
C14   C15   S    
C148  C163  S    
C80   C81   S    
C57   H57   S    
C11   C12   S    
C45   H12   S    
C42   H7    S    
C29   H165  S    
C56   H50   S    
C32   H173  S    
C121  C126  A    
C59   H43   S    
C137  O18   A    
O40   Zn5   S    
C142  O38   A    
C123  C128  A    
C68   H68   S    
O38   Zn3   S    
C21   H154  S    
C22   H152  S    
C4    C166  S    
C23   C25   S    
C39   H188  S    
C140  O27   A    
C73   H87   S    
O32   Zn13  S    
C12   H126  S    
C27   C28   S    
C77   H94   S    
C96   O22   A    
C122  C123  A    
O26   Zn13  S    
C122  C130  A    
C9    H120  S    
C97   C101  A    
C20   H155  S    
C124  C125  A    
