data_mof_unit_53846.cif
_audit_creation_date              2012-12-10T21:00:46-0500
_audit_creation_method            fapswitch 2.2
_symmetry_space_group_name_H-M    P1
_symmetry_Int_Tables_number       1
_space_group_crystal_system       triclinic
_cell_length_a                    18.070168
_cell_length_b                    18.210947
_cell_length_c                    18.341941
_cell_angle_alpha                 119.915069
_cell_angle_beta                  89.972181
_cell_angle_gamma                 119.872856
_cell_volume                      4282.67512972

loop_
_atom_site_label
_atom_site_type_symbol
_atom_type_description
_atom_site_fract_x
_atom_site_fract_y
_atom_site_fract_z
_atom_type_partial_charge
C1    C     C_R   0.110234 0.220030 0.609797 0.504242
C2    C     C_3   0.449338 0.895306 0.945908 0.002991
C3    C     C_3   0.446355 0.031912 0.011708 0.205309
C4    C     C_3   0.554017 0.968338 0.987454 0.219826
C5    C     C_3   0.444551 0.521571 0.481257 -0.131819
C6    C     C_3   0.555500 0.478631 0.518845 -0.128586
C7    C     C_3   0.446151 0.427372 0.414572 -0.105156
C8    C     C_3   0.553879 0.572824 0.585505 -0.110090
C9    C     C_3   0.549810 0.499372 0.448429 0.070340
C10   C     C_3   0.450229 0.500796 0.551637 0.069518
C11   C     C_3   0.548992 0.593423 0.514089 -0.130080
C12   C     C_R   0.889549 0.779973 0.390185 0.504664
C13   C     C_3   0.451054 0.406758 0.485984 -0.124431
C14   C     C_R   0.113757 0.170667 0.838010 -0.021496
C15   C     C_R   0.877800 0.822885 0.161550 -0.019019
C16   C     C_R   0.392640 0.780509 0.887993 0.507503
C17   C     C_R   0.607402 0.219507 0.112023 0.513125
C18   C     C_R   0.102302 0.121601 0.746844 0.262233
C19   C     C_R   0.891958 0.874545 0.253284 0.263210
C20   C     C_R   0.030255 0.099124 0.689160 0.037822
C21   C     C_R   0.966909 0.900634 0.310387 0.035732
C22   C     C_R   0.971543 0.125454 0.724396 -0.163387
C23   C     C_3   0.926956 0.403076 0.441964 -0.121084
C24   C     C_R   0.026039 0.875807 0.274054 -0.162889
C25   C     C_R   0.983956 0.174283 0.815422 -0.073447
C26   C     C_R   0.011015 0.824545 0.182483 -0.062388
C27   C     C_R   0.054932 0.197462 0.872862 0.221776
C28   C     C_R   0.936884 0.797261 0.125570 0.231243
C29   C     C_R   0.963202 0.943854 0.536679 -0.159203
C30   C     C_R   0.035822 0.056143 0.463145 -0.158459
C31   C     C_R   0.946070 0.892352 0.444698 0.017234
C32   C     C_R   0.053123 0.107656 0.555178 0.016432
C33   C     C_R   0.982587 0.949244 0.407255 -0.039836
C34   C     C_3   0.073412 0.597352 0.558141 -0.123757
C35   C     C_R   0.016087 0.050745 0.592526 -0.040267
C36   C     C_R   0.558028 0.457920 0.710117 -0.140752
C37   C     C_R   0.444970 0.542611 0.290979 -0.140467
C38   C     C_R   0.520268 0.444294 0.772496 -0.102011
C39   C     C_R   0.482490 0.555378 0.228179 -0.097368
C40   C     C_R   0.109677 0.499553 0.888445 0.501718
C41   C     C_R   0.889789 0.499886 0.110983 0.499132
C42   C     C_R   0.562979 0.525165 0.863396 0.022499
C43   C     C_R   0.437229 0.475834 0.137103 0.022440
C44   C     C_R   0.642883 0.620211 0.891144 -0.051639
C45   C     C_3   0.452883 0.966113 0.920564 0.076443
C46   C     C_R   0.354751 0.383031 0.109621 -0.055740
C47   C     C_R   0.681809 0.634041 0.828916 0.160792
C48   C     C_R   0.315849 0.370417 0.172289 0.163353
C49   C     C_R   0.638750 0.551801 0.738148 -0.068150
C50   C     C_R   0.361786 0.451122 0.263242 -0.067866
C51   C     C_R   0.578640 0.504661 0.985410 0.201786
C52   C     C_R   0.421808 0.496247 0.014993 0.203072
C53   C     C_R   0.550686 0.498990 0.054928 0.035625
C54   C     C_R   0.449480 0.501367 0.945230 0.036713
C55   C     C_R   0.471368 0.491835 0.069117 -0.080018
C56   C     C_3   0.547308 0.033908 0.078355 0.155738
C57   C     C_R   0.528894 0.508796 0.931185 -0.080309
C58   C     C_R   0.064752 0.725691 0.883183 0.185114
C59   C     C_R   0.903107 0.235327 0.074265 0.196765
C60   C     C_R   0.067357 0.688826 0.934060 -0.001077
C61   C     C_R   0.913916 0.288731 0.035794 0.023368
C62   C     C_R   0.001109 0.585917 0.903154 0.054216
C63   C     C_R   0.983250 0.394560 0.081671 0.050031
C64   C     C_R   0.392631 0.500157 0.608009 0.500036
C65   C     C_R   0.607373 0.499893 0.392005 0.501846
C66   C     C_R   0.930035 0.521058 0.823024 -0.094629
C67   C     C_3   0.557000 0.038426 0.961801 0.100553
C68   C     C_R   0.042294 0.447299 0.166272 -0.083116
C69   C     C_R   0.925593 0.558181 0.773676 -0.150313
C70   C     C_R   0.031234 0.394935 0.205266 -0.134752
C71   C     C_R   0.992654 0.659684 0.803195 -0.063507
C72   C     C_R   0.961722 0.289762 0.159932 -0.082052
C73   C     C_R   0.953447 0.545206 0.010535 -0.150351
C74   C     C_R   0.045096 0.453155 0.987919 -0.151649
C75   C     C_R   0.946283 0.498636 0.054435 0.005897
C76   C     C_R   0.052576 0.500113 0.944319 0.006987
C77   C     C_R   0.991534 0.450445 0.041799 -0.044389
C78   C     C_3   0.443355 0.961842 0.037303 0.134822
C79   C     C_R   0.005013 0.545399 0.954627 -0.039130
C80   C     C_R   0.393875 0.499639 0.888146 0.558048
C81   C     C_R   0.606147 0.500357 0.111820 0.554485
C82   C     C_R   0.109128 0.500352 0.607760 0.504192
C83   C     C_R   0.890993 0.499777 0.392255 0.502547
C84   C     C_3   0.025974 0.439462 0.448688 -0.110316
C85   C     C_3   0.974378 0.560952 0.551386 -0.111410
C86   C     C_3   0.047004 0.536454 0.455397 -0.127849
C87   C     C_3   0.953361 0.463979 0.544684 -0.127624
C88   C     C_3   0.948813 0.499950 0.449362 0.068283
C89   C     C_3   0.550839 0.104730 0.053263 0.031778
C90   C     C_3   0.051527 0.500437 0.550706 0.068050
C91   C     C_3   0.836770 0.728181 0.830898 -0.309878
C92   C     C_3   0.161177 0.285972 0.173566 -0.311279
C93   C     C_3   0.181375 0.841956 0.853731 -0.267397
C94   C     C_3   0.830865 0.059870 0.942204 -0.282879
C95   C     C_3   0.617747 0.143394 0.902090 -0.292712
C96   C     C_3   0.381126 0.854172 0.094238 -0.305873
C97   C     C_3   0.408945 0.866761 0.757257 -0.307710
C98   C     C_3   0.585388 0.127520 0.240764 -0.294203
H1    H     H_    0.084671 0.566733 0.418264 0.099570
H2    H     H_    0.063977 0.099056 0.433976 0.151183
H3    H     H_    0.667311 0.560604 0.689040 0.104531
H4    H     H_    0.333359 0.442963 0.312632 0.105255
H5    H     H_    0.525192 0.395267 0.639972 0.102812
H6    H     H_    0.479877 0.604217 0.361244 0.102013
H7    H     H_    0.458889 0.370460 0.750332 0.108217
H8    H     H_    0.545783 0.627606 0.250231 0.109121
H9    H     H_    0.675868 0.682508 0.961504 0.111336
H10   H     H_    0.319637 0.321839 0.039156 0.110481
H11   H     H_    0.047864 0.389544 0.406943 0.119517
H12   H     H_    0.915753 0.433564 0.581725 0.104533
H13   H     H_    0.952402 0.610832 0.592951 0.116012
H14   H     H_    0.987236 0.687157 0.764401 0.101205
H15   H     H_    0.954103 0.250547 0.191320 0.094924
H16   H     H_    0.121890 0.739116 0.996383 0.087613
H17   H     H_    0.867275 0.249020 0.971318 0.098589
H18   H     H_    0.877979 0.441912 0.799049 0.104296
H19   H     H_    0.095930 0.528986 0.202293 0.100722
H20   H     H_    0.869802 0.508333 0.712584 0.096409
H21   H     H_    0.076740 0.435785 0.270671 0.095450
H22   H     H_    0.916553 0.579220 0.017620 0.190815
H23   H     H_    0.169118 0.188342 0.881894 0.116195
H24   H     H_    0.080821 0.417670 0.979814 0.190448
H25   H     H_    0.866018 0.323353 0.393351 0.118354
H26   H     H_    0.134317 0.677077 0.606858 0.107029
H27   H     H_    0.403014 0.366861 0.343587 0.145780
H28   H     H_    0.596964 0.633516 0.656484 0.136798
H29   H     H_    0.398475 0.540561 0.468798 0.096653
H30   H     H_    0.601616 0.459780 0.531522 0.097538
H31   H     H_    0.590048 0.669789 0.524285 0.103125
H32   H     H_    0.410010 0.330401 0.475806 0.108686
H33   H     H_    0.118985 0.258489 0.993814 0.320031
H34   H     H_    0.820092 0.802183 0.118113 0.119349
H35   H     H_    0.867595 0.729776 0.004454 0.321389
H36   H     H_    0.149016 0.065358 0.653066 0.328379
H37   H     H_    0.847711 0.932955 0.348691 0.327949
H38   H     H_    0.782586 0.789728 0.924019 0.247658
H39   H     H_    0.896995 0.808211 0.860649 0.156576
H40   H     H_    0.819466 0.685083 0.757439 0.142013
H41   H     H_    0.854202 0.691321 0.854300 0.170144
H42   H     H_    0.209042 0.217811 0.076672 0.247321
H43   H     H_    0.097579 0.207900 0.142876 0.151508
H44   H     H_    0.148915 0.328449 0.153674 0.161987
H45   H     H_    0.916507 0.109029 0.681229 0.107997
H46   H     H_    0.179513 0.327047 0.246953 0.144652
H47   H     H_    0.653107 0.481850 0.910084 0.324462
H48   H     H_    0.349549 0.522832 0.091621 0.324397
H49   H     H_    0.174916 0.876052 0.978810 0.262986
H50   H     H_    0.217557 0.804513 0.841105 0.202366
H51   H     H_    0.231553 0.925533 0.883790 0.184785
H52   H     H_    0.134863 0.808038 0.789595 0.132291
H53   H     H_    0.820745 0.100567 0.067689 0.271146
H54   H     H_    0.773583 0.978807 0.913760 0.156586
H55   H     H_    0.894955 0.065441 0.948218 0.162377
H56   H     H_    0.083195 0.894832 0.316744 0.110648
H57   H     H_    0.821811 0.078821 0.895500 0.139591
H58   H     H_    0.626914 0.022115 0.870709 0.242321
H59   H     H_    0.676854 0.177928 0.882044 0.134720
H60   H     H_    0.620172 0.207460 0.961310 0.156307
H61   H     H_    0.555202 0.097824 0.846469 0.129246
H62   H     H_    0.315116 0.897093 0.048768 0.273537
H63   H     H_    0.340826 0.844097 0.138319 0.136415
H64   H     H_    0.451099 0.885761 0.127512 0.155084
H65   H     H_    0.350843 0.777149 0.030707 0.154417
H66   H     H_    0.401622 0.991324 0.840268 0.245601
H67   H     H_    0.938439 0.194769 0.841548 0.118235
H68   H     H_    0.362101 0.843041 0.698635 0.131621
H69   H     H_    0.479042 0.908675 0.756855 0.132756
H70   H     H_    0.391399 0.795611 0.750605 0.156242
H71   H     H_    0.604506 0.012691 0.158555 0.268531
H72   H     H_    0.635381 0.157218 0.300507 0.127352
H73   H     H_    0.516471 0.077676 0.239677 0.165580
H74   H     H_    0.593353 0.194789 0.246445 0.159777
H75   H     H_    0.404162 0.104385 0.999366 0.326112
H76   H     H_    0.603144 0.898760 0.912150 0.324987
H77   H     H_    0.056807 0.805056 0.155459 0.129399
H78   H     H_    0.934955 0.900919 0.565820 0.149465
N1    N     N_2   0.762497 0.731280 0.857842 -0.528870
N2    N     N_2   0.231809 0.276023 0.143478 -0.514951
N3    N     N_2   0.132711 0.829738 0.914063 -0.520750
N4    N     N_2   0.831416 0.128486 0.028907 -0.478717
N5    N     N_2   0.621752 0.077698 0.921964 -0.478301
N6    N     N_2   0.379584 0.923680 0.078338 -0.496675
N7    N     N_2   0.399189 0.932364 0.837825 -0.517891
N8    N     N_2   0.601443 0.069117 0.161580 -0.481524
O1    O     O_3   0.251620 0.500000 0.748430 -0.448931
O2    O     O_R   0.570330 0.268390 0.136490 -0.537527
O3    O     O_R   0.134680 0.268390 0.572240 -0.553101
O4    O     O_R   0.865320 0.731610 0.427760 -0.554257
O5    O     O_R   0.306670 0.731630 0.863510 -0.550305
O6    O     O_R   0.693330 0.268370 0.136490 -0.507137
O7    O     O_R   0.135450 0.439270 0.865360 -0.534844
O8    O     O_R   0.864550 0.560730 0.134640 -0.537223
O9    O     O_R   0.429670 0.560710 0.692610 -0.545667
O10   O     O_R   0.570330 0.439290 0.307390 -0.537251
O11   O     O_R   0.308540 0.439240 0.865360 -0.480543
O12   O     O_3   0.748380 0.500000 0.251570 -0.454614
O13   O     O_R   0.691460 0.560760 0.134640 -0.479806
O14   O     O_R   0.133580 0.439310 0.571150 -0.547251
O15   O     O_R   0.866420 0.560690 0.428850 -0.549428
O16   O     O_R   0.430770 0.560690 0.864590 -0.544794
O17   O     O_R   0.569230 0.439310 0.135410 -0.552279
O18   O     O_R   0.133580 0.560760 0.692610 -0.546625
O19   O     O_R   0.866420 0.439240 0.307390 -0.537875
O20   O     O_3   0.065237 0.246274 0.962379 -0.731682
O21   O     O_3   0.923815 0.745639 0.035450 -0.718698
O22   O     O_3   0.163508 0.098922 0.718062 -0.712805
O23   O     O_R   0.134680 0.560740 0.864590 -0.547507
O24   O     O_3   0.830252 0.895714 0.283187 -0.709426
O25   O     O_3   0.653624 0.503332 0.971468 -0.685321
O26   O     O_3   0.347323 0.498502 0.029399 -0.683325
O27   O     O_3   0.388403 0.063706 0.024803 -0.683424
O28   O     O_3   0.612153 0.936955 0.976826 -0.671172
O29   O     O_R   0.865320 0.439260 0.135410 -0.540471
O30   O     O_R   0.306670 0.439270 0.571150 -0.546284
O31   O     O_R   0.693330 0.560730 0.428850 -0.548313
O32   O     O_R   0.135450 0.268370 0.694460 -0.533455
O33   O     O_R   0.864550 0.731630 0.305540 -0.534002
O34   O     O_R   0.429670 0.731610 0.863510 -0.533666
Zn1   Zn    Zn3+2 0.207400 0.586780 0.791530 0.916303
Zn2   Zn    Zn3+2 0.792600 0.413220 0.208470 0.950019
Zn3   Zn    Zn3+2 0.208510 0.413230 0.792630 0.971488
Zn4   Zn    Zn3+2 0.791490 0.586770 0.207370 0.967174
Zn5   Zn    Zn3+2 0.383150 0.586740 0.791530 0.939312
Zn6   Zn    Zn3+2 0.616850 0.413260 0.208470 0.941986
Zn7   Zn    Zn3+2 0.207400 0.413250 0.618010 0.917812
Zn8   Zn    Zn3+2 0.792600 0.586750 0.381990 0.915367

loop_
_geom_bond_atom_site_label_1
_geom_bond_atom_site_label_2
_ccdc_geom_bond_type
C39   H8    S    
C95   H60   S    
C14   C18   A    
C60   H16   S    
C84   C90   S    
C76   C79   A    
C6    C9    S    
C48   N2    S    
C93   N3    S    
O34   Zn5   S    
C47   C49   A    
C87   H12   S    
C15   C19   A    
C66   H18   S    
O19   Zn2   S    
C36   H5    S    
C95   H61   S    
C60   C62   A    
C59   N4    S    
C19   C21   A    
C84   C86   S    
C5    C11   S    
O4    Zn8   S    
C8    C11   S    
C81   O13   A    
O3    Zn7   S    
C86   C88   S    
C58   C71   A    
H36   O22   S    
C66   C69   A    
C21   C33   S    
H35   O21   S    
C97   H68   S    
C12   O4    A    
C30   H2    S    
C69   H20   S    
C67   C89   S    
C56   C78   S    
C96   H63   S    
C93   H50   S    
C53   C81   S    
C34   C86   S    
C61   C63   A    
O30   Zn7   S    
O32   Zn3   S    
C67   N5    S    
O12   Zn2   S    
C91   H39   S    
C20   C35   S    
C93   H51   S    
C15   H34   S    
C52   C54   A    
C94   H57   S    
C74   C77   A    
C46   H10   S    
C22   H45   S    
C45   C67   S    
H42   N2    S    
C13   H32   S    
C31   C33   A    
C16   O34   A    
C58   N3    S    
C51   C57   A    
C14   C27   A    
C44   C47   A    
C2    C16   S    
C70   H21   S    
H47   O25   S    
C30   C33   A    
C52   C55   A    
C59   C72   A    
C98   H74   S    
C37   H6    S    
C85   C87   S    
C83   C88   S    
C40   O23   A    
C14   H23   S    
O1    Zn3   S    
C4    C56   S    
C52   O26   S    
C28   O21   S    
C73   C75   A    
C91   N1    S    
C93   H52   S    
H75   O27   S    
C1    O3    A    
C42   C44   A    
C11   H31   S    
C42   C57   S    
H62   N6    S    
H48   O26   S    
O29   Zn2   S    
C24   H56   S    
C97   N7    S    
C58   C60   A    
C54   C80   S    
C53   C55   A    
C2    C45   S    
C3    O27   S    
C37   C39   A    
O12   Zn8   S    
C59   C61   A    
C69   C71   A    
C23   C84   S    
C62   C66   A    
C27   O20   S    
C32   C35   A    
C62   C79   S    
C17   C89   S    
C83   O19   A    
O13   Zn4   S    
C16   O5    A    
C96   N6    S    
C82   O18   A    
C95   N5    S    
C65   O31   A    
C81   O17   A    
C56   N8    S    
C25   H67   S    
C97   H69   S    
H38   N1    S    
C22   C25   A    
C1    C32   S    
C40   C76   S    
C78   N6    S    
C34   C85   S    
O18   Zn1   S    
C2    C4    S    
C34   C90   S    
H71   N8    S    
C61   H17   S    
H33   O20   S    
C6    C8    S    
C68   H19   S    
C41   C75   S    
C91   H40   S    
C9    C11   S    
C51   O25   S    
C15   C28   A    
O9    Zn5   S    
C17   O2    A    
O1    Zn7   S    
C64   O9    A    
C5    H29   S    
C1    O32   A    
C73   C79   A    
C94   N4    S    
C7    H27   S    
C86   H1    S    
C75   C77   A    
O12   Zn6   S    
C74   C76   A    
C96   H64   S    
C91   H41   S    
C98   H73   S    
C92   N2    S    
C8    H28   S    
C56   C89   S    
C74   H24   S    
C20   C22   A    
C50   H4    S    
C23   C88   S    
C12   C31   S    
C19   O24   S    
H76   O28   S    
C21   C24   A    
O15   Zn8   S    
C29   H78   S    
C83   O15   A    
C12   O33   A    
C92   H44   S    
C2    C78   S    
C45   N7    S    
C5    C7    S    
C65   O10   A    
C63   C77   S    
C85   C88   S    
C64   O30   A    
O33   Zn4   S    
C7    C9    S    
C80   O11   A    
O2    Zn6   S    
C63   C68   A    
C34   H26   S    
O1    Zn1   S    
C41   O8    A    
C95   H59   S    
O16   Zn5   S    
O23   Zn1   S    
C46   C48   A    
C8    C10   S    
C10   C64   S    
C24   C26   A    
C85   H13   S    
C10   C13   S    
O6    Zn2   S    
C4    C67   S    
C39   C43   A    
H58   N5    S    
O14   Zn7   S    
C82   O14   A    
C43   C55   S    
C17   O6    A    
C25   C27   A    
C97   H70   S    
C29   C35   A    
C26   C28   A    
C84   H11   S    
C82   C90   S    
C96   H65   S    
C18   O22   S    
C3    C89   S    
O31   Zn8   S    
C92   H43   S    
C38   H7    S    
C36   C38   A    
O10   Zn6   S    
C6    H30   S    
C5    C10   S    
C47   N1    S    
H66   N7    S    
C71   H14   S    
C6    C13   S    
C30   C32   A    
C37   C50   A    
H53   N4    S    
C40   O7    A    
C26   H77   S    
C94   H55   S    
C4    O28   S    
C72   H15   S    
C48   C50   A    
C23   H25   S    
C3    C45   S    
C44   H9    S    
C18   C20   A    
O11   Zn3   S    
C98   N8    S    
C92   H46   S    
C43   C46   A    
C9    C65   S    
C41   O29   A    
O8    Zn4   S    
C98   H72   S    
C38   C42   A    
H49   N3    S    
O7    Zn3   S    
C7    C13   S    
C70   C72   A    
C29   C31   A    
O1    Zn5   S    
C87   C90   S    
C73   H22   S    
C68   C70   A    
C23   C87   S    
O17   Zn6   S    
C51   C53   A    
C3    C78   S    
C94   H54   S    
O12   Zn4   S    
C36   C49   A    
O5    Zn1   S    
C49   H3    S    
H37   O24   S    
C54   C57   A    
C80   O16   A    
