data_mof_unit_21163.cif
_audit_creation_date              2012-12-11T14:36:04-0500
_audit_creation_method            fapswitch 2.2
_symmetry_space_group_name_H-M    P1
_symmetry_Int_Tables_number       1
_space_group_crystal_system       triclinic
_cell_length_a                    14.291542
_cell_length_b                    16.347665
_cell_length_c                    7.068828
_cell_angle_alpha                 89.138472
_cell_angle_beta                  81.833478
_cell_angle_gamma                 89.851834
_cell_volume                      1634.5815878

loop_
_atom_site_label
_atom_site_type_symbol
_atom_type_description
_atom_site_fract_x
_atom_site_fract_y
_atom_site_fract_z
_atom_type_partial_charge
O1    O     O_R   0.337460 0.413110 0.524760 -0.548610
O2    O     O_R   0.662540 0.913110 0.475240 -0.548945
O3    O     O_R   0.348690 0.587910 0.191230 -0.537840
O4    O     O_R   0.651310 0.087910 0.808770 -0.526043
O5    O     O_R   0.166530 0.586890 0.082470 -0.526091
O6    O     O_R   0.833470 0.086890 0.917530 -0.520512
C1    C     C_R   0.371273 0.615458 0.353807 0.747922
C2    C     C_R   0.627431 0.113990 0.645243 0.798247
O7    O     O_R   0.348700 0.413830 0.191250 -0.521071
O8    O     O_R   0.651300 0.913830 0.808750 -0.525017
O9    O     O_R   0.166530 0.411570 0.082490 -0.519769
O10   O     O_R   0.833470 0.911570 0.917510 -0.524362
C3    C     C_R   0.372474 0.387454 0.354321 0.751627
C4    C     C_R   0.627754 0.886870 0.646663 0.718493
O11   O     O_R   0.337460 0.588430 0.524740 -0.545279
O12   O     O_R   0.662540 0.088430 0.475260 -0.543010
O13   O     O_3   0.192230 0.499460 0.407330 -0.339183
O14   O     O_3   0.807770 0.999460 0.592670 -0.348836
V1    V     V_3+5 0.263080 0.500100 0.108540 1.525138
V2    V     V_3+5 0.736920 0.000100 0.891460 1.521619
O15   O     O_R   0.155290 0.412090 0.756570 -0.529429
O16   O     O_R   0.844710 0.912090 0.243430 -0.533927
C5    C     C_R   0.135167 0.381449 0.932637 0.728755
C6    C     C_R   0.875832 0.890779 0.064961 0.692715
O17   O     O_R   0.155290 0.586170 0.756550 -0.534544
O18   O     O_R   0.844710 0.086170 0.243450 -0.539607
C7    C     C_R   0.132792 0.615141 0.930600 0.697574
C8    C     C_R   0.867198 0.114494 0.066853 0.715163
V3    V     V_3+5 0.240910 0.499900 0.616030 1.500064
V4    V     V_3+5 0.759090 0.999900 0.383970 1.488462
O19   O     O_3   0.311760 0.500540 0.867100 -0.375431
O20   O     O_3   0.688240 0.000540 0.132900 -0.370872
C9    C     C_3   0.062754 0.721130 0.168071 0.022679
C10   C     C_3   0.900511 0.256631 0.916502 0.012108
H1    H     H_    0.138136 0.729864 0.187300 0.139232
H2    H     H_    0.844641 0.286930 0.018009 0.152817
C11   C     C_3   0.008804 0.803420 0.194519 -0.026692
C12   C     C_3   0.980741 0.318337 0.850602 -0.051219
H3    H     H_    0.958067 0.798335 0.326172 0.206727
H4    H     H_    0.006980 0.304489 0.702773 0.223759
C13   C     C_3   0.957997 0.665430 0.939190 0.034186
C14   C     C_3   0.038070 0.152379 0.925616 -0.017112
C15   C     C_3   0.092881 0.759055 0.816544 -0.432134
C16   C     C_3   0.957324 0.222934 0.219762 -0.443653
C17   C     C_3   0.062318 0.687176 0.963226 -0.006852
C18   C     C_3   0.939298 0.183890 0.028420 -0.031406
H5    H     H_    0.094069 0.738671 0.667997 0.210595
H6    H     H_    0.989229 0.176286 0.306888 0.196787
H7    H     H_    0.166549 0.777750 0.828673 0.156096
H8    H     H_    0.888651 0.241239 0.299888 0.196573
C19   C     C_3   0.948160 0.819701 0.028710 0.009441
C20   C     C_3   0.065852 0.308183 0.969709 0.013620
C21   C     C_3   0.890679 0.740936 0.989002 0.002880
C22   C     C_3   0.114983 0.221240 0.929141 0.001270
C23   C     C_3   0.025500 0.834763 0.853160 -0.036343
C24   C     C_3   0.020907 0.300976 0.185767 -0.042709
H9    H     H_    0.068513 0.888864 0.874266 0.152744
H10   H     H_    0.977832 0.356194 0.227568 0.160182
H11   H     H_    0.959048 0.655667 0.785380 0.168669
H12   H     H_    0.058859 0.099446 0.012023 0.114827
H13   H     H_    0.857921 0.754395 0.857880 0.160005
H14   H     H_    0.146856 0.204770 0.058252 0.171474
H15   H     H_    0.586089 0.788145 0.371211 0.144064
H16   H     H_    0.416267 0.288654 0.631916 0.144578
H17   H     H_    0.415329 0.706610 0.638372 0.180910
H18   H     H_    0.582091 0.205865 0.359362 0.185400
C25   C     C_2   0.444822 0.679816 0.346127 -0.305183
C26   C     C_2   0.554351 0.178075 0.652453 -0.289397
C27   C     C_2   0.460218 0.719907 0.504686 -0.084708
C28   C     C_2   0.538595 0.219004 0.493849 -0.075828
C29   C     C_2   0.550787 0.825303 0.657888 -0.011520
C30   C     C_2   0.448864 0.325993 0.342951 -0.008244
C31   C     C_2   0.537590 0.780589 0.503367 -0.133618
C32   C     C_2   0.462798 0.280743 0.497898 -0.137413
H19   H     H_    0.488789 0.692561 0.210957 0.168076
H20   H     H_    0.511878 0.190824 0.788516 0.163558
I1    I     I_    0.015648 0.637405 0.401699 -0.498008
I2    I     I_    0.819523 0.236508 0.686883 -0.435869
I3    I     I_    0.982370 0.893965 0.618656 -0.502258
I4    I     I_    0.125014 0.294647 0.378518 -0.491560
I5    I     I_    0.455164 0.820109 0.918213 -0.485523
I6    I     I_    0.540592 0.319578 0.077337 -0.431704
C33   C     C_3   0.084944 0.871203 0.210688 -0.762832
H21   H     H_    0.121970 0.859203 0.335666 0.247493
H22   H     H_    0.146016 0.869696 0.095132 0.205297
H23   H     H_    0.053242 0.933396 0.215499 0.225823
C34   C     C_3   0.937990 0.404359 0.847710 -0.811505
H24   H     H_    0.880788 0.406359 0.756750 0.260308
H25   H     H_    0.906322 0.420615 0.994367 0.214259
H26   H     H_    0.990571 0.450256 0.785045 0.241688
C35   C     C_3   0.920417 0.583056 0.027521 -0.749471
H27   H     H_    0.884142 0.586502 0.175570 0.257093
H28   H     H_    0.867745 0.558455 0.941806 0.215311
H29   H     H_    0.978831 0.539048 0.030718 0.207040
C36   C     C_3   0.034607 0.117843 0.725216 -0.693591
H30   H     H_    0.019729 0.166290 0.623712 0.241970
H31   H     H_    0.102296 0.087291 0.670777 0.215289
H32   H     H_    0.980509 0.069881 0.728176 0.242324
C37   C     C_3   0.805017 0.724403 0.145933 -0.766676
H33   H     H_    0.827813 0.713302 0.287593 0.235474
H34   H     H_    0.754771 0.776476 0.158285 0.200503
H35   H     H_    0.763343 0.671439 0.107834 0.222180
C38   C     C_3   0.205591 0.214930 0.782052 -0.756230
H36   H     H_    0.192276 0.199261 0.638755 0.254216
H37   H     H_    0.248797 0.271271 0.775109 0.209865
H38   H     H_    0.250775 0.164201 0.824288 0.202462

loop_
_geom_bond_atom_site_label_1
_geom_bond_atom_site_label_2
_ccdc_geom_bond_type
V4    O20   S    
C34   H24   S    
O13   V3    S    
C4    C29   S    
C36   H30   S    
O4    C2    A    
V1    O19   S    
C36   H32   S    
C21   C37   S    
C8    C18   S    
O3    C1    A    
C11   C19   S    
C12   C20   S    
O12   V4    S    
C9    C17   S    
C14   C18   S    
O7    C3    A    
O13   V1    S    
O5    C7    A    
C21   H13   S    
O7    V1    S    
O6    C8    A    
C37   H33   S    
C20   C22   S    
C28   C32   S    
C27   C31   S    
O14   V4    S    
C10   I2    S    
C19   C23   S    
C33   H22   S    
C26   C28   D    
C7    C17   S    
C6    C19   S    
C1    O11   A    
C2    O12   A    
C16   C18   S    
O11   V3    S    
O17   V3    S    
C14   C36   S    
C22   C38   S    
C13   H11   S    
C30   C32   D    
O8    C4    A    
C14   H12   S    
C35   H27   S    
C29   C31   D    
C15   H7    S    
C22   H14   S    
O15   V3    S    
C9    C11   S    
C19   C21   S    
H15   C31   S    
C35   H28   S    
C23   I3    S    
C16   C24   S    
C33   H21   S    
O9    V1    S    
O10   V2    S    
O1    V3    S    
C33   H23   S    
C38   H37   S    
O3    V1    S    
C15   C17   S    
C13   C21   S    
C10   C18   S    
C15   C23   S    
C13   C35   S    
C2    C26   S    
C23   H9    S    
O17   C7    A    
O16   C6    A    
C25   H19   S    
V2    O20   S    
C16   H8    S    
H16   C32   S    
O16   V4    S    
C37   H34   S    
C10   C12   S    
C36   H31   S    
O18   V4    S    
O5    V1    S    
C3    C30   S    
C26   H20   S    
O6    V2    S    
O10   C6    A    
O18   C8    A    
C24   I4    S    
C12   C34   S    
O2    V4    S    
O15   C5    A    
C11   H3    S    
C14   C22   S    
C35   H29   S    
C12   H4    S    
C9    I1    S    
C5    C20   S    
H18   C28   S    
O8    V2    S    
H17   C27   S    
O9    C5    A    
C9    H1    S    
C10   H2    S    
C24   H10   S    
C38   H38   S    
O14   V2    S    
O2    C4    A    
C1    C25   S    
O4    V2    S    
C16   H6    S    
C37   H35   S    
O1    C3    A    
V3    O19   S    
C34   H26   S    
C38   H36   S    
C34   H25   S    
C13   C17   S    
C11   C33   S    
C25   C27   D    
C15   H5    S    
C30   I6    S    
C20   C24   S    
C29   I5    S    
