data_mof_unit_31358.cif
_audit_creation_date              2012-12-11T21:12:33-0500
_audit_creation_method            fapswitch 2.2
_symmetry_space_group_name_H-M    P1
_symmetry_Int_Tables_number       1
_space_group_crystal_system       triclinic
_cell_length_a                    8.241059
_cell_length_b                    18.758468
_cell_length_c                    26.97772
_cell_angle_alpha                 99.14959
_cell_angle_beta                  92.826654
_cell_angle_gamma                 88.37063
_cell_volume                      4111.50675541

loop_
_atom_site_label
_atom_site_type_symbol
_atom_type_description
_atom_site_fract_x
_atom_site_fract_y
_atom_site_fract_z
_atom_type_partial_charge
Ba1   Ba    Ba6+2 0.160810 0.465630 0.521640 1.643308
Ba2   Ba    Ba6+2 0.649380 0.534380 0.478400 1.660219
C1    C     C_3   0.433275 0.274526 0.698309 -0.369627
C2    C     C_R   0.062101 0.095735 0.447353 -0.088056
C3    C     C_R   0.201243 0.952305 0.455498 -0.101473
C4    C     C_3   0.965303 0.271065 0.627228 0.372655
C5    C     C_R   0.051253 0.976587 0.475989 0.013844
C6    C     C_R   0.257046 0.881614 0.454678 -0.025204
C7    C     C_R   0.166487 0.831527 0.474311 0.002251
C8    C     C_R   0.021559 0.855359 0.498558 -0.019693
C9    C     C_R   0.964143 0.928247 0.499773 0.020568
C10   C     C_R   0.217115 0.758332 0.470745 0.037483
C11   C     C_R   0.120914 0.709609 0.489584 -0.311154
C12   C     C_3   0.439975 0.301605 0.648349 0.340430
C13   C     C_R   0.984864 0.732798 0.517044 0.035258
C14   C     C_R   0.935817 0.806716 0.522442 -0.047374
C15   C     C_R   0.844326 0.071689 0.499418 0.024424
C16   C     C_3   0.995615 0.199098 0.645606 -0.367508
C17   C     C_R   0.785754 0.144309 0.500036 0.001304
C18   C     C_R   0.871813 0.192921 0.476224 -0.041247
C19   C     C_R   0.004264 0.166074 0.447897 -0.026651
C20   C     C_R   0.804772 0.833799 0.551354 -0.023770
C21   C     C_R   0.747340 0.904281 0.552159 -0.091444
C22   C     C_R   0.820391 0.952119 0.524846 0.013722
C23   C     C_3   0.463536 0.314362 0.394325 0.314154
C24   C     C_R   0.757601 0.023443 0.523404 0.018512
C25   C     C_R   0.607571 0.047701 0.543887 -0.104490
C26   C     C_R   0.639648 0.167956 0.523686 -0.032738
C27   C     C_R   0.550419 0.118101 0.544008 -0.094114
C28   C     C_3   0.839372 0.621510 0.631615 0.299641
C29   C     C_R   0.586459 0.240660 0.525801 -0.007378
C30   C     C_R   0.681024 0.289177 0.506243 -0.299592
C31   C     C_R   0.821366 0.266573 0.480947 0.034466
C32   C     C_R   0.314573 0.463501 0.177513 0.594457
C33   C     C_R   0.194642 0.581236 0.175564 0.620003
C34   C     C_3   0.455552 0.233166 0.377899 -0.384665
C35   C     C_2   0.061145 0.560307 0.273513 -0.101392
C36   C     C_3   0.050316 0.581782 0.329634 -0.043506
C37   C     C_1   0.283818 0.500435 0.338139 0.002877
C38   C     C_2   0.324896 0.504388 0.291767 -0.035030
C39   C     C_2   0.202063 0.530327 0.255095 0.209535
C40   C     C_3   0.843318 0.638208 0.688583 -0.357839
C41   C     C_R   0.314130 0.515783 0.100170 -0.079913
C42   C     C_R   0.361116 0.459936 0.127490 -0.027375
C43   C     C_R   0.454500 0.401609 0.104435 -0.057380
C44   C     C_R   0.226435 0.575901 0.124176 -0.029680
C45   C     C_3   0.832376 0.732229 0.380756 0.346078
C46   C     C_2   0.157285 0.535699 0.359236 -0.290566
C47   C     C_2   0.647043 0.470449 0.636844 -0.290069
C48   C     C_R   0.486802 0.446495 0.974338 0.021168
C49   C     C_R   0.348573 0.564534 0.970699 0.020889
C50   C     C_R   0.438338 0.503463 0.947226 0.048705
C51   C     C_R   0.572018 0.386045 0.948742 -0.102443
C52   C     C_3   0.965505 0.382597 0.369447 0.297532
C53   C     C_R   0.608319 0.381896 0.898676 -0.059637
C54   C     C_R   0.563176 0.437962 0.871764 -0.022633
C55   C     C_R   0.480153 0.499240 0.896005 -0.081709
C56   C     C_3   0.820346 0.805391 0.363126 -0.277312
C57   C     C_R   0.439176 0.556280 0.869049 -0.033789
C58   C     C_R   0.485867 0.552169 0.818858 0.595013
C59   C     C_R   0.598210 0.433066 0.820767 0.579167
C60   C     C_2   0.737611 0.451298 0.723946 -0.088645
C61   C     C_3   0.749112 0.425385 0.668501 -0.058109
C62   C     C_1   0.519623 0.507916 0.655966 0.034308
C63   C     C_2   0.479377 0.509945 0.703436 -0.101149
C64   C     C_3   0.973923 0.366434 0.312570 -0.364837
C65   C     C_2   0.598097 0.483822 0.741309 0.186282
C66   C     C_R   0.447885 0.451318 0.025700 0.021108
C67   C     C_3   0.336830 0.721270 0.351240 0.788393
C68   C     C_R   0.355381 0.511630 0.048912 0.050048
C69   C     C_R   0.303935 0.567888 0.021539 0.020643
C70   C     C_R   0.498865 0.397773 0.055040 -0.100214
C71   C     C_R   0.173162 0.630023 0.096520 -0.053987
C72   C     C_R   0.307831 0.620598 0.942322 -0.098665
C73   C     C_R   0.353221 0.616649 0.892891 -0.059576
C74   C     C_R   0.208951 0.625762 0.046277 -0.098389
C75   C     C_3   0.333510 0.685901 0.591447 0.315310
C76   C     C_3   0.339431 0.767411 0.606924 -0.379642
C77   C     C_3   0.386898 0.730739 0.298831 0.522611
C78   C     C_R   0.988614 0.047915 0.474582 0.013723
F1    F     F_    0.197477 0.762613 0.361341 -0.825504
F2    F     F_    0.503339 0.678713 0.281289 -0.685299
H1    H     H_    0.380698 0.356075 0.651845 0.074887
H2    H     H_    0.205932 0.670167 0.582982 0.004008
H3    H     H_    0.405278 0.670750 0.557477 0.065982
H4    H     H_    0.304430 0.271579 0.708627 0.148954
H5    H     H_    0.263672 0.784459 0.639785 0.127290
H6    H     H_    0.466597 0.783981 0.617007 0.119976
H7    H     H_    0.569452 0.304979 0.639853 -0.054547
H8    H     H_    0.498478 0.312527 0.727832 0.141146
H9    H     H_    0.593110 0.329081 0.401281 0.015661
H10   H     H_    0.398385 0.327930 0.429789 0.057383
H11   H     H_    0.521682 0.217132 0.342859 0.131743
H12   H     H_    0.756882 0.683197 0.700874 0.134234
H13   H     H_    0.512299 0.204895 0.407759 0.055280
H14   H     H_    0.326938 0.216780 0.371090 0.121055
H15   H     H_    0.492446 0.219853 0.695678 0.115628
H16   H     H_    0.932086 0.155676 0.619479 0.071698
H17   H     H_    0.768952 0.735513 0.416314 0.078014
H18   H     H_    0.962366 0.720022 0.389037 0.026836
H19   H     H_    0.691228 0.821518 0.357031 0.121087
H20   H     H_    0.879077 0.847017 0.391780 0.080646
H21   H     H_    0.883279 0.802537 0.327388 0.158161
H22   H     H_    0.313168 0.663253 0.350953 -0.046762
H23   H     H_    0.808999 0.590146 0.704421 0.070330
H24   H     H_    0.276904 0.724156 0.272739 0.053175
H25   H     H_    0.014904 0.267596 0.589399 0.082843
H26   H     H_    0.434990 0.786395 0.299653 0.003820
H27   H     H_    0.158906 0.653422 0.485795 0.068099
H28   H     H_    0.372005 0.866895 0.437928 0.106707
H29   H     H_    0.065952 0.198895 0.425614 0.096681
H30   H     H_    0.743349 0.801007 0.573706 0.097822
H31   H     H_    0.434733 0.132548 0.560323 0.113507
H32   H     H_    0.640867 0.344999 0.508845 0.075080
H33   H     H_    0.280913 0.987064 0.440330 0.068683
H34   H     H_    0.967551 0.653710 0.703232 0.134465
H35   H     H_    0.163694 0.080130 0.424127 0.063042
H36   H     H_    0.646309 0.919981 0.575599 0.059452
H37   H     H_    0.831881 0.279778 0.624070 -0.077519
H38   H     H_    0.528549 0.013013 0.559374 0.070299
H39   H     H_    0.446581 0.488299 0.280158 0.138551
H40   H     H_    0.496274 0.358771 0.124886 0.122718
H41   H     H_    0.832566 0.435041 0.749389 0.126482
H42   H     H_    0.673176 0.334094 0.881098 0.122847
H43   H     H_    0.611037 0.339943 0.965858 0.069348
H44   H     H_    0.574608 0.351914 0.041309 0.069729
H45   H     H_    0.084302 0.401875 0.386138 0.011638
H46   H     H_    0.964162 0.576960 0.248886 0.135695
H47   H     H_    0.101578 0.676050 0.113585 0.124202
H48   H     H_    0.242544 0.669277 0.957252 0.070198
H49   H     H_    0.127867 0.185877 0.647073 0.149212
H50   H     H_    0.319146 0.661328 0.873185 0.122226
H51   H     H_    0.358988 0.528873 0.714743 0.136471
H52   H     H_    0.159133 0.668993 0.027952 0.070068
H53   H     H_    0.148227 0.544158 0.399750 0.077470
H54   H     H_    0.659204 0.458760 0.596575 0.086621
H55   H     H_    0.948308 0.201752 0.683845 0.120640
H56   H     H_    0.872282 0.425583 0.378886 0.083536
H57   H     H_    0.714398 0.608224 0.617610 0.012384
H58   H     H_    0.921713 0.574577 0.620492 0.078183
H59   H     H_    0.292678 0.795068 0.575623 0.050789
H60   H     H_    0.073157 0.326442 0.302094 0.144267
H61   H     H_    0.997488 0.416494 0.297412 0.062028
H62   H     H_    0.856794 0.344350 0.295532 0.131439
N1    N     N_R   0.235584 0.524638 0.201816 -0.418968
N2    N     N_R   0.561436 0.490108 0.794486 -0.421139
O1    O     O_2   0.106080 0.324280 0.466820 -0.461299
O2    O     O_2   0.719880 0.539087 0.324927 -0.464755
O3    O     O_3   0.760256 0.679595 0.343738 -0.509745
O4    O     O_3   0.859130 0.413620 0.470620 -0.488724
O5    O     O_3   0.459240 0.537930 0.559910 -0.492820
O6    O     O_2   0.583120 0.462390 0.379940 -0.463095
O7    O     O_3   0.391078 0.349669 0.356345 -0.630140
O8    O     O_2   0.551642 0.757203 0.481479 -0.509217
O9    O     O_3   0.460883 0.745047 0.387006 -0.615060
O10   O     O_2   0.342775 0.411605 0.199142 -0.603178
O11   O     O_2   0.659998 0.377188 0.799662 -0.622823
O12   O     O_3   0.397271 0.653004 0.631368 -0.623092
O13   O     O_2   0.133607 0.637125 0.197085 -0.600255
O14   O     O_2   0.461593 0.604446 0.797305 -0.598812
O15   O     O_3   0.376230 0.370290 0.556910 -0.482561
O16   O     O_2   0.248885 0.243144 0.519003 -0.487899
O17   O     O_3   0.925433 0.319371 0.387071 -0.641103
O18   O     O_3   0.357917 0.253234 0.611233 -0.605138
O19   O     O_2   0.227190 0.537650 0.620070 -0.461718
O20   O     O_3   0.971110 0.406970 0.583250 -0.482679
O21   O     O_2   0.078965 0.466880 0.674990 -0.492623
O22   O     O_3   0.041661 0.326554 0.660941 -0.587405
O23   O     O_2   0.704230 0.675760 0.533200 -0.467885
O24   O     O_3   0.951180 0.586390 0.529420 -0.490077
O25   O     O_3   0.434080 0.629720 0.443130 -0.473338
O26   O     O_3   0.888826 0.682384 0.612932 -0.639671
O27   O     O_3   0.351080 0.462080 0.440130 -0.479916
O28   O     O_3   0.839200 0.593040 0.416790 -0.497512
P1    P     P_3+3 0.929380 0.335110 0.452880 0.974500
P2    P     P_3+3 0.398530 0.559060 0.613740 0.995971
P3    P     P_3+3 0.961228 0.409148 0.647763 0.952739
P4    P     P_3+3 0.880940 0.664900 0.547160 0.973456
P5    P     P_3+3 0.840577 0.595188 0.352581 1.018789
P6    P     P_3+3 0.392975 0.276491 0.552586 0.938991
P7    P     P_3+3 0.398317 0.442976 0.376741 0.962206
P8    P     P_3+3 0.413651 0.723148 0.445434 0.964783

loop_
_geom_bond_atom_site_label_1
_geom_bond_atom_site_label_2
_ccdc_geom_bond_type
C76   H5    S    
Ba2   O4    S    
C53   C54   A    
Ba1   P2    S    
C47   C61   S    
C25   C27   A    
O23   P4    D    
C46   H53   S    
C17   C18   A    
C49   C72   A    
C41   C42   A    
O17   P1    S    
C21   H36   S    
O9    P8    S    
C25   H38   S    
C73   H50   S    
O19   P2    D    
C5    C9    A    
C38   H39   S    
Ba1   O27   S    
C24   C25   A    
C67   O9    S    
C58   N2    Am   
C60   C65   D    
O24   P4    S    
C1    H8    S    
C15   C24   A    
C26   C27   A    
C22   C24   A    
C2    C78   A    
C59   O11   D    
Ba2   O27   S    
C69   C74   A    
C32   N1    Am   
O1    P1    D    
C55   C57   A    
C64   H62   S    
O26   P4    S    
C13   C14   A    
O8    P8    D    
C9    C22   A    
O3    P5    S    
C45   H17   S    
C54   C55   A    
Ba1   Ba2   S    
C33   N1    Am   
C63   H51   S    
C1    H15   S    
C11   H27   S    
O25   P8    S    
C34   H11   S    
C10   P8    S    
C45   O3    S    
C6    C7    A    
C63   C65   S    
C48   C50   A    
C4    H25   S    
C68   C69   A    
C56   H20   S    
C52   O17   S    
C62   P2    S    
C7    C8    A    
O16   P6    D    
O18   P6    S    
C75   O12   S    
C35   H46   S    
O4    P1    S    
C75   H3    S    
C57   C58   A    
C47   C62   D    
C40   H12   S    
C3    H33   S    
C1    H4    S    
C12   O18   S    
C16   H49   S    
C49   C69   A    
C12   H1    S    
C65   N2    S    
Ba1   O15   S    
C60   H41   S    
C19   H29   S    
C71   H47   S    
C51   C53   A    
Ba2   O6    S    
C4    C16   S    
C4    O22   S    
C23   H9    S    
C48   C51   A    
C28   H58   S    
C72   C73   A    
C23   O7    S    
C49   C50   A    
C32   C42   A    
C8    C9    A    
C76   H59   S    
C37   C38   D    
C3    C5    A    
C74   H52   S    
C64   H61   S    
Ba2   O23   S    
C75   H2    S    
C75   C76   S    
C15   C78   A    
C45   H18   S    
O5    P2    S    
C77   H24   S    
C70   H44   S    
C16   H55   S    
C59   N2    Am   
C12   H7    S    
C35   C36   S    
C6    H28   S    
C3    C6    A    
C34   H14   S    
C29   C30   A    
Ba1   O19   S    
C66   C70   A    
C60   C61   S    
Ba1   O4    S    
C54   C59   A    
C56   H19   S    
C10   C11   A    
O15   P6    S    
C17   C26   A    
C28   O26   S    
C37   P7    S    
C1    C12   S    
C51   H43   S    
Ba2   O24   S    
C67   F1    S    
C52   C64   S    
C18   C31   A    
O12   P2    S    
C38   C39   S    
O21   P3    D    
C47   H54   S    
O7    P7    S    
C41   C68   A    
O20   P3    S    
C11   C13   A    
C71   C74   A    
C2    H35   S    
Ba1   O1    S    
C57   C73   A    
C4    H37   S    
C5    C78   A    
C42   C43   A    
C67   H22   S    
C76   H6    S    
Ba2   O5    S    
C27   H31   S    
C53   H42   S    
Ba1   P1    S    
C23   H10   S    
C14   C20   A    
C36   P5    S    
C21   C22   A    
C7    C10   A    
C36   C46   S    
C26   C29   A    
Ba1   O24   S    
C58   O14   D    
C77   F2    S    
C64   H60   S    
C32   O10   D    
C43   H40   S    
O2    P5    D    
C16   H16   S    
C52   H45   S    
Ba2   O25   S    
C20   H30   S    
C61   P3    S    
C29   P6    S    
C62   C63   D    
C72   H48   S    
C8    C14   A    
C30   C31   A    
C45   C56   S    
C2    C19   A    
C34   H13   S    
C52   H56   S    
C41   C44   A    
Ba1   O20   S    
C40   H34   S    
C28   H57   S    
C15   C17   A    
C77   H26   S    
Ba1   O5    S    
C35   C39   D    
C31   P1    S    
C40   H23   S    
C33   O13   D    
C67   C77   S    
C50   C55   A    
C23   C34   S    
O27   P7    S    
C39   N1    S    
C18   C19   A    
C66   C68   A    
C13   P4    S    
C20   C21   A    
C28   C40   S    
C56   H21   S    
Ba2   P4    S    
C30   H32   S    
O6    P7    D    
C33   C44   A    
C48   C66   A    
O28   P5    S    
C44   C71   A    
Ba2   O28   S    
O22   P3    S    
C37   C46   D    
C43   C70   A    
