data_mof_unit_39192.cif
_audit_creation_date              2012-12-10T17:40:50-0500
_audit_creation_method            fapswitch 2.2
_symmetry_space_group_name_H-M    P1
_symmetry_Int_Tables_number       1
_space_group_crystal_system       triclinic
_cell_length_a                    14.916293
_cell_length_b                    15.274989
_cell_length_c                    9.950591
_cell_angle_alpha                 89.985923
_cell_angle_beta                  89.445756
_cell_angle_gamma                 90.170006
_cell_volume                      2267.08832106

loop_
_atom_site_label
_atom_site_type_symbol
_atom_type_description
_atom_site_fract_x
_atom_site_fract_y
_atom_site_fract_z
_atom_type_partial_charge
C1    C     C_R   0.381643 0.879119 0.500683 0.990880
C2    C     C_R   0.663928 0.271085 0.491062 0.726522
C3    C     C_R   0.193911 0.256798 0.406947 0.736801
C4    C     C_R   0.163927 0.771085 0.491060 0.726521
C5    C     C_R   0.697252 0.824839 0.500168 -0.140979
C6    C     C_R   0.688697 0.183294 0.495070 -0.135458
C7    C     C_R   0.197252 0.324840 0.500168 -0.140981
C8    C     C_R   0.188697 0.683294 0.495070 -0.135458
C9    C     C_R   0.336083 0.999970 0.141778 -0.138342
C10   C     C_R   0.836083 0.499970 0.141778 -0.138342
C11   C     C_R   0.255434 0.000169 0.072772 -0.138614
C12   C     C_R   0.385459 0.124219 0.500771 0.971782
C13   C     C_R   0.755434 0.500169 0.072772 -0.138615
C14   C     C_R   0.255524 0.000212 0.933640 -0.125221
C15   C     C_R   0.755524 0.500212 0.933640 -0.125220
C16   C     C_R   0.336277 0.000079 0.862593 -0.133737
C17   C     C_R   0.836277 0.500079 0.862593 -0.133737
C18   C     C_R   0.419324 0.000061 0.928968 0.162840
C19   C     C_R   0.919324 0.500061 0.928968 0.162840
C20   C     C_R   0.419302 0.000072 0.073366 0.132318
C21   C     C_R   0.919302 0.500072 0.073366 0.132318
C22   C     C_R   0.577354 0.999787 0.068513 0.229584
C23   C     C_R   0.881643 0.379119 0.500683 0.990881
C24   C     C_R   0.077354 0.499787 0.068513 0.229584
C25   C     C_R   0.619237 0.120098 0.498981 0.963420
C26   C     C_R   0.624366 0.885025 0.499837 0.990003
C27   C     C_R   0.119237 0.620098 0.498981 0.963420
C28   C     C_R   0.124366 0.385025 0.499837 0.990005
C29   C     C_R   0.576814 0.000111 0.926343 -0.084957
C30   C     C_R   0.076814 0.500111 0.926343 -0.084958
C31   C     C_R   0.410268 0.279769 0.680885 0.546636
C32   C     C_R   0.436358 0.694675 0.514577 0.490758
C33   C     C_R   0.910268 0.779770 0.680884 0.546635
C34   C     C_R   0.885459 0.624219 0.500771 0.971782
C35   C     C_R   0.936358 0.194675 0.514573 0.490759
C36   C     C_R   0.414154 0.350363 0.769388 0.565176
C37   C     C_R   0.459944 0.606765 0.500745 0.564831
C38   C     C_R   0.914155 0.850364 0.769386 0.565175
C39   C     C_R   0.959944 0.106765 0.500740 0.564830
C40   C     C_R   0.846887 0.912579 0.770580 0.533668
C41   C     C_R   0.894119 0.043989 0.478775 0.555294
C42   C     C_R   0.346887 0.412579 0.770581 0.533668
C43   C     C_R   0.394119 0.543989 0.478778 0.555293
C44   C     C_R   0.775636 0.905008 0.682536 -0.363931
C45   C     C_R   0.257799 0.193486 0.408947 -0.258446
C46   C     C_R   0.804199 0.068412 0.477457 -0.355719
C47   C     C_R   0.275636 0.405008 0.682536 -0.363931
C48   C     C_R   0.304199 0.568412 0.477458 -0.355719
C49   C     C_R   0.768457 0.833017 0.593100 -0.097715
C50   C     C_R   0.779051 0.156898 0.492926 -0.137796
C51   C     C_R   0.268457 0.333017 0.593100 -0.097715
C52   C     C_R   0.279051 0.656898 0.492927 -0.137795
C53   C     C_R   0.335947 0.268603 0.593056 -0.084146
C54   C     C_R   0.345743 0.721309 0.504044 -0.103510
C55   C     C_R   0.835947 0.768603 0.593056 -0.084146
C56   C     C_R   0.229160 0.834389 0.494135 -0.320736
C57   C     C_R   0.845743 0.221309 0.504042 -0.103511
C58   C     C_R   0.326757 0.197443 0.501942 -0.111145
C59   C     C_R   0.318618 0.809913 0.502642 -0.114191
C60   C     C_R   0.826757 0.697443 0.501942 -0.111144
C61   C     C_R   0.818619 0.309913 0.502642 -0.114192
C62   C     C_R   0.757798 0.693486 0.408947 -0.258445
C63   C     C_R   0.729160 0.334389 0.494137 -0.320736
C64   C     C_R   0.693910 0.756797 0.406947 0.736799
F1    F     F_    0.482521 0.226719 0.678997 -0.589120
F2    F     F_    0.917338 0.959048 0.460241 -0.593284
F3    F     F_    0.352346 0.482729 0.853684 -0.598099
F4    F     F_    0.417339 0.459047 0.460244 -0.593285
F5    F     F_    0.625726 0.748639 0.318043 -0.609196
F6    F     F_    0.576834 0.295313 0.479965 -0.590092
F7    F     F_    0.125728 0.248640 0.318041 -0.609194
F8    F     F_    0.076834 0.795313 0.479962 -0.590092
F9    F     F_    0.502195 0.752227 0.542687 -0.632953
F10   F     F_    0.982521 0.726719 0.678995 -0.589120
F11   F     F_    0.002195 0.252227 0.542682 -0.632954
F12   F     F_    0.485467 0.359782 0.851843 -0.569686
F13   F     F_    0.547205 0.582541 0.508137 -0.593478
F14   F     F_    0.985468 0.859782 0.851841 -0.569687
F15   F     F_    0.047204 0.082541 0.508130 -0.593479
F16   F     F_    0.852346 0.982729 0.853683 -0.598099
H1    H     H_    0.251440 0.139079 0.339626 0.175675
H2    H     H_    0.139509 0.500472 0.871126 0.173422
H3    H     H_    0.729141 0.958737 0.682564 0.197953
H4    H     H_    0.754666 0.017997 0.461299 0.173827
H5    H     H_    0.229141 0.458737 0.682565 0.197953
H6    H     H_    0.254667 0.517997 0.461300 0.173827
H7    H     H_    0.330350 0.999637 0.248384 0.192678
H8    H     H_    0.830350 0.499636 0.248384 0.192678
H9    H     H_    0.192450 0.000186 0.127817 0.199500
H10   H     H_    0.692450 0.500186 0.127817 0.199499
H11   H     H_    0.210058 0.902818 0.489781 0.184775
H12   H     H_    0.751440 0.639078 0.339626 0.175674
H13   H     H_    0.710058 0.402818 0.489784 0.184775
H14   H     H_    0.192613 0.000232 0.880231 0.207636
H15   H     H_    0.692613 0.500232 0.880231 0.207636
H16   H     H_    0.330960 0.999904 0.756018 0.195929
H17   H     H_    0.830960 0.499904 0.756018 0.195930
H18   H     H_    0.639509 0.000472 0.871126 0.173422
I1    I     I_    0.705552 0.998204 0.156428 -0.151020
I2    I     I_    0.205552 0.498204 0.156428 -0.151019
N1    N     N_R   0.498810 0.000000 0.142780 -0.146898
N2    N     N_R   0.998810 0.500000 0.142780 -0.146898
N3    N     N_R   0.498740 1.000000 0.857170 -0.131412
N4    N     N_R   0.998740 0.500000 0.857170 -0.131413
O1    O     O_R   0.408390 0.908380 0.614690 -0.615305
O2    O     O_R   0.591620 0.908390 0.614640 -0.606266
O3    O     O_R   0.091620 0.591610 0.614640 -0.576545
O4    O     O_R   0.091620 0.408390 0.614640 -0.606268
O5    O     O_R   0.591610 0.091610 0.385310 -0.612423
O6    O     O_R   0.591610 0.908390 0.385310 -0.559242
O7    O     O_R   0.091610 0.591610 0.385310 -0.612423
O8    O     O_R   0.091610 0.408390 0.385310 -0.559240
O9    O     O_R   0.408390 0.091620 0.614690 -0.607755
O10   O     O_R   0.908390 0.408380 0.614690 -0.615306
O11   O     O_R   0.908390 0.591620 0.614690 -0.607756
O12   O     O_R   0.408370 0.908380 0.385360 -0.628941
O13   O     O_R   0.408370 0.091620 0.385360 -0.652962
O14   O     O_R   0.908370 0.408380 0.385360 -0.628940
O15   O     O_R   0.908370 0.591620 0.385360 -0.652962
O16   O     O_R   0.591620 0.091610 0.614640 -0.576545
Zn1   Zn    Zn3+2 0.500010 0.000000 0.653130 1.022430
Zn2   Zn    Zn3+2 0.000010 0.500000 0.653130 1.022429
Zn3   Zn    Zn3+2 0.499980 0.000000 0.346870 1.024987
Zn4   Zn    Zn3+2 0.999980 0.500000 0.346870 1.024987

loop_
_geom_bond_atom_site_label_1
_geom_bond_atom_site_label_2
_ccdc_geom_bond_type
C44   C49   A    
C33   C55   A    
C30   H2    S    
O12   Zn3   S    
C13   H10   S    
C36   C42   A    
C4    C8    A    
C44   H3    S    
C26   O2    A    
C23   O14   A    
C39   C41   A    
C22   C29   A    
O15   Zn4   S    
C28   O8    A    
C35   F11   S    
N1    Zn3   S    
C22   N1    A    
C29   H18   S    
C47   H5    S    
C19   C21   A    
O8    Zn4   S    
C3    C7    A    
C1    C59   S    
C15   H15   S    
C35   C39   A    
C11   C14   A    
C6    C25   S    
N4    Zn2   S    
C29   N3    A    
C60   C62   A    
C61   C63   A    
C62   C64   A    
C36   F12   S    
C56   H11   S    
C43   F4    S    
C62   H12   S    
C41   C46   A    
C40   F16   S    
C1    O12   A    
C43   C48   A    
C8    C52   A    
C40   C44   A    
C24   N2    A    
C25   O5    A    
C18   N3    A    
C12   C58   S    
C27   O7    A    
O11   Zn2   S    
C55   C60   A    
C4    C56   A    
C34   C60   S    
C5    C49   A    
C2    C6    A    
N2    Zn4   S    
C32   C54   A    
C52   C54   A    
C46   C50   A    
C54   C59   A    
C10   C21   A    
C45   C58   A    
C16   H16   S    
C32   F9    S    
O5    Zn3   S    
C48   H6    S    
C47   C51   A    
C20   N1    A    
C38   F14   S    
C34   O11   A    
C49   C55   A    
C37   F13   S    
C3    C45   A    
C6    C50   A    
C7    C28   S    
C12   O13   A    
C5    C64   A    
C51   C53   A    
C39   F15   S    
C37   C43   A    
C3    F7    S    
O6    Zn3   S    
C19   N4    A    
C11   H9    S    
C9    C20   A    
C27   O3    A    
C10   H8    S    
O16   Zn1   S    
O1    Zn1   S    
O14   Zn4   S    
C32   C37   A    
C31   C53   A    
C57   C61   A    
C9    C11   A    
C46   H4    S    
C21   N2    A    
C13   C15   A    
C42   F3    S    
C14   C16   A    
N3    Zn1   S    
C25   O16   A    
C4    F8    S    
C2    C63   A    
C12   O9    A    
C23   C61   S    
C34   O15   A    
C31   F1    S    
C26   O6    A    
C22   I1    S    
O7    Zn4   S    
C24   I2    S    
C50   C57   A    
C45   H1    S    
O4    Zn2   S    
C10   C13   A    
C53   C58   A    
C15   C17   A    
C41   F2    S    
C64   F5    S    
C63   H13   S    
C33   C38   A    
C56   C59   A    
C35   C57   A    
O13   Zn3   S    
C7    C51   A    
C9    H7    S    
C23   O10   A    
C38   C40   A    
C28   O4    A    
O2    Zn1   S    
C17   C19   A    
C18   C20   A    
C42   C47   A    
C24   C30   A    
C5    C26   S    
O10   Zn2   S    
C33   F10   S    
C48   C52   A    
O9    Zn1   S    
C16   C18   A    
C30   N4    A    
C8    C27   S    
C31   C36   A    
O3    Zn2   S    
C2    F6    S    
C17   H17   S    
C14   H14   S    
C1    O1    A    
