data_mof_unit_63288.cif
_audit_creation_date              2012-12-11T20:55:37-0500
_audit_creation_method            fapswitch 2.2
_symmetry_space_group_name_H-M    P1
_symmetry_Int_Tables_number       1
_space_group_crystal_system       triclinic
_cell_length_a                    8.243272
_cell_length_b                    19.133505
_cell_length_c                    22.810669
_cell_angle_alpha                 99.863453
_cell_angle_beta                  89.741272
_cell_angle_gamma                 92.117786
_cell_volume                      3542.15368174

loop_
_atom_site_label
_atom_site_type_symbol
_atom_type_description
_atom_site_fract_x
_atom_site_fract_y
_atom_site_fract_z
_atom_type_partial_charge
Ba1   Ba    Ba6+2 0.157290 0.533910 0.474710 1.649320
Ba2   Ba    Ba6+2 0.652900 0.466090 0.525240 1.660192
C1    C     C_3   0.394511 0.720853 0.260548 -0.312808
C2    C     C_R   0.988818 0.271800 0.479006 0.056413
C3    C     C_R   0.135909 0.187644 0.549829 -0.152765
C4    C     C_3   0.938183 0.724738 0.349068 0.353707
C5    C     C_R   0.204143 0.254279 0.544457 0.006651
C6    C     C_R   0.679017 0.809573 0.446652 -0.164519
C7    C     C_R   0.609540 0.743514 0.453072 0.010010
C8    C     C_R   0.858186 0.801494 0.528268 -0.151414
C9    C     C_R   0.822232 0.727356 0.519931 0.059537
C10   C     C_R   0.018491 0.153517 0.508307 -0.003263
C11   C     C_R   0.119780 0.298555 0.514643 -0.247626
C12   C     C_3   0.409762 0.691547 0.318080 0.366946
C13   C     C_R   0.794843 0.844603 0.488399 -0.006310
C14   C     C_R   0.690667 0.700286 0.484868 -0.248783
C15   C     C_R   0.230031 0.035345 0.537755 -0.032448
C16   C     C_3   0.968718 0.795841 0.328759 -0.358106
C17   C     C_R   0.324772 0.983722 0.554856 -0.088000
C18   C     C_R   0.278590 0.913241 0.537993 -0.053880
C19   C     C_R   0.132421 0.895848 0.508300 -0.034531
C20   C     C_R   0.014785 0.946580 0.506140 0.022773
C21   C     C_R   0.068116 0.020139 0.517026 0.062460
C22   C     C_R   0.851516 0.923631 0.490062 -0.006296
C23   C     C_3   0.485168 0.684170 0.616308 0.304250
C24   C     C_R   0.745906 0.977836 0.478462 -0.021981
C25   C     C_R   0.798897 0.051309 0.489581 0.009310
C26   C     C_R   0.962042 0.074369 0.505898 -0.010093
C27   C     C_R   0.585142 0.962473 0.456674 -0.100934
C28   C     C_3   0.822611 0.376448 0.342844 0.299300
C29   C     C_R   0.490570 0.013242 0.437626 0.436459
C30   C     C_R   0.536005 0.084566 0.456979 -0.140808
C31   C     C_R   0.680819 0.101740 0.487602 -0.140661
C32   C     C_R   0.644315 0.525089 0.334657 -0.284978
C33   C     C_R   0.206303 0.529705 0.962171 -0.033926
C34   C     C_3   0.496953 0.764576 0.633216 -0.391207
C35   C     C_R   0.162875 0.527858 0.902170 0.572542
C36   C     C_R   0.394015 0.458486 0.869590 0.625652
C37   C     C_R   0.442206 0.460312 0.929100 -0.036226
C38   C     C_R   0.347960 0.496432 0.975581 -0.054893
C39   C     C_R   0.112641 0.565034 0.009063 -0.063869
C40   C     C_3   0.820538 0.359069 0.275214 -0.366588
C41   C     C_R   0.159948 0.568235 0.068166 -0.061162
C42   C     C_R   0.302384 0.536237 0.082192 -0.027327
C43   C     C_R   0.396222 0.499744 0.035728 -0.045417
C44   C     C_R   0.583190 0.427256 0.943175 -0.066508
C45   C     C_3   0.873190 0.282989 0.648191 0.350502
C46   C     C_R   0.630399 0.430329 0.002298 -0.076672
C47   C     C_R   0.538239 0.466660 0.049144 -0.017513
C48   C     C_R   0.585312 0.471134 0.109093 0.636977
C49   C     C_R   0.353999 0.540463 0.141578 0.608257
C50   C     C_2   0.065756 0.471773 0.773047 -0.125789
C51   C     C_3   0.021359 0.480864 0.710501 -0.041033
C52   C     C_3   0.994450 0.632062 0.660138 0.311941
C53   C     C_1   0.301335 0.515959 0.696162 -0.009917
C54   C     C_2   0.337415 0.522038 0.753708 0.387215
C55   C     C_2   0.215282 0.494538 0.794925 0.145413
C56   C     C_3   0.863291 0.210643 0.667389 -0.367250
C57   C     C_R   0.697981 0.552964 0.235902 -0.093622
C58   C     C_R   0.746953 0.554429 0.295610 -0.100018
C59   C     C_R   0.501358 0.487867 0.314523 0.032310
C60   C     C_R   0.454823 0.483144 0.255138 -0.109481
C61   C     C_R   0.549465 0.516348 0.215619 0.230300
C62   C     C_2   0.172382 0.478810 0.672584 -0.353977
C63   C     C_3   0.021294 0.660349 0.726104 -0.363528
C64   C     C_3   0.321625 0.317260 0.393839 0.326791
C65   C     C_3   0.319923 0.236863 0.376773 -0.396654
C66   C     C_3   0.282012 0.037670 0.375831 0.155405
C67   C     C_3   0.375819 0.297453 0.680458 0.309792
C68   C     C_2   0.799647 0.590294 0.196095 0.506728
C69   C     C_3   0.471169 0.617231 0.808408 0.198070
C70   C     C_3   0.423622 0.278319 0.739817 -0.308299
C71   C     C_R   0.953948 0.197547 0.469429 -0.154851
H1    H     H_    0.352258 0.637324 0.312031 0.097039
H2    H     H_    0.197508 0.334063 0.405531 -0.001183
H3    H     H_    0.403200 0.332969 0.432801 0.082182
H4    H     H_    0.265163 0.720180 0.247081 0.159700
H5    H     H_    0.234565 0.219047 0.339207 0.117822
H6    H     H_    0.280489 0.212157 0.415235 0.052872
H7    H     H_    0.443638 0.219166 0.363504 0.125202
H8    H     H_    0.541326 0.688249 0.326949 -0.099934
H9    H     H_    0.463337 0.688009 0.224674 0.127275
H10   H     H_    0.607222 0.664825 0.603123 0.015927
H11   H     H_    0.400745 0.670512 0.577950 0.076487
H12   H     H_    0.735324 0.313240 0.260191 0.125577
H13   H     H_    0.584490 0.780334 0.670413 0.126254
H14   H     H_    0.539142 0.788318 0.594466 0.059512
H15   H     H_    0.375948 0.785196 0.647064 0.122711
H16   H     H_    0.445182 0.776228 0.266727 0.097654
H17   H     H_    0.916190 0.839041 0.361109 0.073240
H18   H     H_    0.775415 0.284645 0.615199 0.107021
H19   H     H_    0.992328 0.290271 0.627545 -0.048757
H20   H     H_    0.866560 0.168020 0.627784 0.073983
H21   H     H_    0.967197 0.205367 0.696952 0.107600
H22   H     H_    0.748030 0.204191 0.691589 0.141597
H23   H     H_    0.780920 0.405228 0.256246 0.083238
H24   H     H_    0.247157 0.279501 0.671673 -0.044607
H25   H     H_    0.388080 0.356106 0.683779 0.057884
H26   H     H_    0.338857 0.302211 0.774956 0.101188
H27   H     H_    0.549178 0.298629 0.751796 0.172775
H28   H     H_    0.991422 0.727831 0.394198 0.074735
H29   H     H_    0.417459 0.219764 0.737085 0.091775
H30   H     H_    0.870987 0.175780 0.433850 0.074081
H31   H     H_    0.174753 0.164381 0.587049 0.060300
H32   H     H_    0.640954 0.831993 0.408877 0.070830
H33   H     H_    0.941174 0.823846 0.563673 0.069127
H34   H     H_    0.944198 0.345689 0.258401 0.132276
H35   H     H_    0.162109 0.353081 0.516448 0.061961
H36   H     H_    0.645646 0.646459 0.484924 0.065974
H37   H     H_    0.294957 0.084335 0.537172 0.064707
H38   H     H_    0.444385 0.997843 0.573646 0.068065
H39   H     H_    0.361677 0.872598 0.543987 0.089042
H40   H     H_    0.805163 0.714688 0.350708 -0.063879
H41   H     H_    0.109764 0.842420 0.486627 0.122409
H42   H     H_    0.521432 0.913181 0.457078 0.098550
H43   H     H_    0.455594 0.126604 0.452494 0.090815
H44   H     H_    0.702071 0.155032 0.509897 0.147651
H45   H     H_    0.111953 0.616122 0.639532 0.012028
H46   H     H_    0.740238 0.404526 0.011182 0.118295
H47   H     H_    0.658188 0.399143 0.908430 0.119745
H48   H     H_    0.085134 0.596465 0.102879 0.132496
H49   H     H_    0.002709 0.590791 0.000206 0.133340
H50   H     H_    0.100889 0.807534 0.325385 0.161398
H51   H     H_    0.974705 0.452010 0.801277 0.136036
H52   H     H_    0.345074 0.453125 0.239253 0.101029
H53   H     H_    0.681189 0.527234 0.380406 0.080338
H54   H     H_    0.184131 0.438721 0.633016 0.069049
H55   H     H_    0.911647 0.794663 0.284575 0.113031
H56   H     H_    0.907579 0.585719 0.654795 0.042694
H57   H     H_    0.698338 0.388269 0.358844 0.009409
H58   H     H_    0.905074 0.423562 0.356531 0.070117
H59   H     H_    0.378281 0.058308 0.348199 0.021947
H60   H     H_    0.220888 0.081667 0.404590 0.038863
H61   H     H_    0.188741 0.008931 0.344968 0.074120
H62   H     H_    0.928823 0.599083 0.203924 0.066921
H63   H     H_    0.401468 0.652294 0.784287 0.020377
H64   H     H_    0.593713 0.642539 0.817683 0.074940
H65   H     H_    0.413268 0.613870 0.851907 0.031332
H66   H     H_    0.102999 0.708519 0.731706 0.125890
H67   H     H_    0.077983 0.620468 0.748419 0.051794
H68   H     H_    0.903344 0.674173 0.747988 0.127672
N1    N     N_R   0.256680 0.492656 0.856583 -0.426259
N2    N     N_R   0.496040 0.509544 0.154330 -0.408322
O1    O     O_2   0.108070 0.674980 0.540650 -0.464123
O2    O     O_2   0.687083 0.445171 0.697641 -0.402966
O3    O     O_3   0.857196 0.335876 0.698254 -0.607895
O4    O     O_3   0.861930 0.586170 0.535430 -0.487194
O5    O     O_3   0.451480 0.461630 0.428900 -0.495468
O6    O     O_2   0.599240 0.538720 0.642170 -0.438068
O7    O     O_3   0.428291 0.654970 0.665290 -0.648266
O8    O     O_2   0.530513 0.246590 0.520715 -0.508030
O9    O     O_3   0.477854 0.263449 0.635833 -0.603175
O10   O     O_2   0.043325 0.558853 0.890445 -0.592829
O11   O     O_2   0.474485 0.426493 0.829267 -0.575317
O12   O     O_3   0.375086 0.347411 0.345219 -0.635418
O13   O     O_2   0.705924 0.441048 0.121149 -0.603452
O14   O     O_2   0.273104 0.572036 0.182001 -0.606677
O15   O     O_3   0.366390 0.628250 0.433820 -0.471606
O16   O     O_2   0.285054 0.753343 0.480112 -0.506375
O17   O     O_3   0.930251 0.686243 0.634635 -0.638375
O18   O     O_3   0.331508 0.736291 0.364146 -0.592862
O19   O     O_2   0.211060 0.461230 0.357810 -0.458142
O20   O     O_3   0.958150 0.591500 0.402390 -0.485030
O21   O     O_2   0.079866 0.538615 0.296553 -0.454947
O22   O     O_3   0.342434 0.989952 0.410474 -0.643399
O23   O     O_3   0.010922 0.671453 0.308685 -0.595783
O24   O     O_2   0.739830 0.613362 0.154756 -0.598713
O25   O     O_3   0.488835 0.549260 0.774148 -0.595682
O26   O     O_2   0.702240 0.324970 0.459330 -0.463062
O27   O     O_3   0.948380 0.413820 0.464520 -0.491019
O28   O     O_3   0.443920 0.371740 0.566130 -0.466050
O29   O     O_3   0.876321 0.317554 0.365029 -0.632516
O30   O     O_3   0.358830 0.538360 0.571050 -0.483629
O31   O     O_3   0.852160 0.408490 0.597560 -0.498043
P1    P     P_3+3 0.933470 0.664380 0.557030 0.980281
P2    P     P_3+3 0.383600 0.440030 0.365120 0.982432
P3    P     P_3+3 0.948141 0.588749 0.325382 0.954133
P4    P     P_3+3 0.876840 0.335610 0.442930 0.979844
P5    P     P_3+3 0.855261 0.418769 0.675522 1.001349
P6    P     P_3+3 0.399653 0.717248 0.431809 0.943323
P7    P     P_3+3 0.418283 0.562359 0.645401 0.986158
P8    P     P_3+3 0.411947 0.282298 0.567798 0.920335

loop_
_geom_bond_atom_site_label_1
_geom_bond_atom_site_label_2
_ccdc_geom_bond_type
O12   P2    S    
C32   C58   A    
C53   C54   D    
C4    O23   S    
Ba1   P2    S    
C31   H44   S    
Ba2   O26   S    
C36   N1    Am   
C45   H19   S    
O28   P8    S    
C17   C18   A    
O16   P6    D    
C41   C42   A    
C15   H37   S    
C69   H64   S    
C52   C63   S    
C25   C31   A    
C69   H65   S    
C59   P2    S    
Ba1   O30   S    
C24   C25   A    
C15   C21   A    
C55   N1    S    
O27   P4    S    
C40   H23   S    
C12   H1    S    
C66   H60   S    
C33   C35   A    
C56   H20   S    
C22   C24   A    
C8    C13   A    
Ba2   O30   S    
C36   C37   A    
C51   C62   S    
O4    P1    S    
O19   P2    D    
Ba2   O5    S    
C28   H58   S    
Ba1   O27   S    
C54   C55   S    
Ba1   Ba2   S    
C4    H28   S    
C2    C11   A    
C66   H59   S    
O15   P6    S    
C16   H55   S    
C18   H39   S    
C63   H67   S    
C29   O22   S    
C48   O13   D    
C6    C7    A    
O20   P3    S    
C23   H11   S    
C46   H46   S    
C40   H34   S    
C41   H48   S    
C16   H50   S    
C66   O22   S    
Ba2   O6    S    
C64   C65   S    
C27   H42   S    
C3    H31   S    
O30   P7    S    
C57   C58   A    
C10   C71   A    
C6    H32   S    
O6    P7    D    
C39   C41   A    
C54   O25   S    
C65   H5    S    
C11   H35   S    
C51   P5    S    
C14   H36   S    
O7    P7    S    
C34   H14   S    
C38   C43   A    
C4    C16   S    
C44   C46   A    
C42   C43   A    
C35   N1    Am   
C16   H17   S    
C35   O10   D    
C65   H6    S    
C3    C10   A    
C8    C9    A    
C37   C38   A    
C3    C5    A    
C23   C34   S    
C34   H13   S    
C58   P3    S    
C28   H57   S    
C49   O14   D    
C32   C59   A    
C34   H15   S    
C23   O7    S    
C39   H49   S    
C67   C70   S    
C56   H22   S    
C4    H40   S    
C60   C61   A    
C63   H68   S    
C9    C14   A    
C29   C30   A    
C43   C47   A    
C32   H53   S    
C62   H54   S    
C64   H3    S    
C53   C62   D    
O2    P5    D    
C1    H9    S    
C53   P7    S    
C44   H47   S    
C40   H12   S    
O5    P2    S    
C21   C26   A    
C30   H43   S    
O18   P6    S    
C7    P6    S    
C28   O29   S    
C2    C71   A    
C1    C12   S    
Ba2   O27   S    
C37   C44   A    
C42   C49   A    
C13   C22   S    
C10   C26   S    
Ba1   O19   S    
C6    C13   A    
O23   P3    S    
C69   O25   S    
C52   H45   S    
C68   H62   S    
O17   P1    S    
C20   C22   A    
C57   C61   A    
Ba1   O4    S    
C36   O11   D    
O9    P8    S    
C1    H4    S    
O26   P4    D    
C69   H63   S    
C48   N2    Am   
O8    P8    D    
C70   H27   S    
O29   P4    S    
C52   H56   S    
Ba1   P1    S    
C5    P8    S    
C67   O9    S    
C45   H18   S    
C7    C14   A    
C65   H7    S    
C2    P4    S    
C19   H41   S    
C60   H52   S    
C17   H38   S    
Ba2   O28   S    
C9    P1    S    
C1    H16   S    
C30   C31   A    
C12   O18   S    
C66   H61   S    
C33   C38   A    
Ba2   O4    S    
C27   C29   A    
Ba1   O1    S    
C68   O24   D    
C67   H25   S    
C45   C56   S    
C50   H51   S    
Ba1   O15   S    
C64   O12   S    
C70   H29   S    
C46   C47   A    
C64   H2    S    
O1    P1    D    
C15   C17   A    
O3    P5    S    
C71   H30   S    
C49   N2    Am   
C56   H21   S    
C59   C60   A    
C33   C39   A    
C45   O3    S    
C8    H33   S    
C50   C55   D    
C57   C68   S    
C52   O17   S    
C63   H66   S    
C5    C11   A    
C18   C19   A    
Ba1   O20   S    
C24   C27   A    
C47   C48   A    
C25   C26   A    
C23   H10   S    
C61   N2    S    
C20   C21   A    
C28   C40   S    
Ba1   O5    S    
Ba2   P4    S    
C12   H8    S    
C19   C20   A    
O31   P5    S    
Ba2   O31   S    
O21   P3    D    
C50   C51   S    
C70   H26   S    
C67   H24   S    
