data_mof_unit_37395.cif
_audit_creation_date              2012-12-10T17:15:08-0500
_audit_creation_method            fapswitch 2.2
_symmetry_space_group_name_H-M    P1
_symmetry_Int_Tables_number       1
_space_group_crystal_system       triclinic
_cell_length_a                    10.057721
_cell_length_b                    10.488066
_cell_length_c                    12.940841
_cell_angle_alpha                 91.881058
_cell_angle_beta                  90.559899
_cell_angle_gamma                 94.462218
_cell_volume                      1360.10289286

loop_
_atom_site_label
_atom_site_type_symbol
_atom_type_description
_atom_site_fract_x
_atom_site_fract_y
_atom_site_fract_z
_atom_type_partial_charge
C1    C     C_R   0.445808 0.264284 0.490387 0.901968
C2    C     C_R   0.673035 0.465803 0.033012 -0.216466
C3    C     C_R   0.330783 0.537666 0.858731 0.086757
C4    C     C_R   0.670377 0.467476 0.141204 0.088001
C5    C     C_R   0.564651 0.485949 0.870002 -0.298649
C6    C     C_R   0.436496 0.519261 0.130112 -0.299309
C7    C     C_R   0.559861 0.489439 0.975799 0.144917
C8    C     C_R   0.441410 0.516574 0.024275 0.145243
C9    C     C_2   0.420941 0.126125 0.469225 -0.073175
C10   C     C_2   0.585614 0.872542 0.503184 -0.059454
C11   C     C_2   0.522880 0.068094 0.425959 -0.215951
C12   C     C_R   0.554594 0.735045 0.506876 0.900049
C13   C     C_2   0.527363 0.930211 0.425254 -0.225759
C14   C     C_3   0.794974 0.441710 0.203601 -0.364737
C15   C     C_3   0.919412 0.413251 0.141010 -0.417812
C16   C     C_3   0.037036 0.391157 0.211853 -0.853193
C17   C     C_3   0.206536 0.564053 0.796122 -0.363664
C18   C     C_3   0.082830 0.595675 0.858380 -0.412315
C19   C     C_3   0.966407 0.620474 0.787134 -0.866907
C20   C     C_3   0.664308 0.948442 0.589398 -0.426811
C21   C     C_3   0.712194 0.866834 0.677110 -0.330118
C22   C     C_3   0.770379 0.950252 0.767955 -0.904652
C23   C     C_2   0.070849 0.488391 0.507836 -0.140254
C24   C     C_3   0.293520 0.048440 0.500147 -0.404049
C25   C     C_3   0.181801 0.127129 0.541495 -0.345107
C26   C     C_3   0.061907 0.040717 0.574625 -0.927539
C27   C     C_2   0.929231 0.512338 0.492783 -0.137025
C28   C     C_R   0.472445 0.504859 0.699194 0.865294
C29   C     C_R   0.527764 0.496088 0.300803 0.872186
C30   C     C_R   0.547926 0.494015 0.189560 -0.113685
C31   C     C_R   0.452878 0.509702 0.810464 -0.117036
C32   C     C_R   0.328254 0.540277 0.966970 -0.215909
H1    H     H_    0.343466 0.540954 0.165928 0.171508
H2    H     H_    0.010631 0.311456 0.264195 0.263687
H3    H     H_    0.123457 0.366439 0.164486 0.249154
H4    H     H_    0.897263 0.325876 0.090909 0.229178
H5    H     H_    0.949429 0.495575 0.092104 0.218863
H6    H     H_    0.822665 0.527328 0.254403 0.210593
H7    H     H_    0.769990 0.357888 0.252176 0.218434
H8    H     H_    0.994618 0.700957 0.735982 0.264851
H9    H     H_    0.936167 0.533308 0.739133 0.260416
H10   H     H_    0.879841 0.645508 0.834207 0.249086
H11   H     H_    0.050623 0.514054 0.907368 0.218942
H12   H     H_    0.657708 0.464136 0.834277 0.173102
H13   H     H_    0.106879 0.682813 0.908380 0.228130
H14   H     H_    0.232761 0.646648 0.746523 0.221061
H15   H     H_    0.177369 0.477877 0.746323 0.209271
H16   H     H_    0.239013 0.560458 0.008338 0.131444
H17   H     H_    0.762263 0.445884 0.991534 0.131998
H18   H     H_    0.856143 0.014208 0.742859 0.264176
H19   H     H_    0.693232 0.009181 0.801309 0.263442
H20   H     H_    0.805481 0.888364 0.828960 0.255615
H21   H     H_    0.627315 0.804077 0.706010 0.217542
H22   H     H_    0.790307 0.806094 0.647779 0.244579
H23   H     H_    0.468102 0.874836 0.366233 0.161088
H24   H     H_    0.752105 0.001553 0.555120 0.212722
H25   H     H_    0.599560 0.019642 0.623582 0.224441
H26   H     H_    0.022352 0.978138 0.508634 0.265526
H27   H     H_    0.090049 0.980354 0.639065 0.269190
H28   H     H_    0.982304 0.101171 0.601224 0.244571
H29   H     H_    0.218685 0.188049 0.609333 0.220125
H30   H     H_    0.147797 0.188766 0.479805 0.243095
H31   H     H_    0.254050 0.990694 0.431345 0.213319
H32   H     H_    0.319862 0.981095 0.560358 0.220670
H33   H     H_    0.613696 0.122412 0.402995 0.171259
H34   H     H_    0.901507 0.583359 0.439111 0.158126
H35   H     H_    0.098601 0.417829 0.561897 0.153152
H36   H     H_    0.866642 0.381330 0.591746 0.156217
H37   H     H_    0.133410 0.618683 0.408266 0.154371
H38   H     H_    0.066558 0.479499 0.258569 0.256009
N1    N     N_2   0.162330 0.550370 0.457540 -0.194910
N2    N     N_2   0.837670 0.449630 0.542460 -0.198438
O1    O     O_R   0.567930 0.307680 0.508550 -0.613481
O2    O     O_R   0.432070 0.692320 0.491450 -0.611491
O3    O     O_R   0.351090 0.340020 0.481290 -0.608956
O4    O     O_R   0.648910 0.659980 0.518710 -0.609635
O5    O     O_R   0.590490 0.486480 0.665020 -0.608677
O6    O     O_R   0.409510 0.513520 0.334980 -0.608757
O7    O     O_R   0.373660 0.518820 0.637760 -0.630706
O8    O     O_R   0.626340 0.481180 0.362240 -0.631969
Zn1   Zn    Zn3+2 0.644780 0.478400 0.518200 0.910828
Zn2   Zn    Zn3+2 0.355220 0.521600 0.481800 0.912400

loop_
_geom_bond_atom_site_label_1
_geom_bond_atom_site_label_2
_ccdc_geom_bond_type
C12   O2    A    
C2    C7    A    
C20   H24   S    
C7    C8    A    
C16   H3    S    
C21   H22   S    
C15   C16   S    
C18   C19   S    
C23   H35   S    
H37   N1    S    
C28   O7    A    
C15   H5    S    
C16   H2    S    
C14   H7    S    
C29   O6    A    
C10   C20   S    
C23   C27   S    
C26   H27   S    
N2    Zn1   S    
C19   H10   S    
C22   H18   S    
N1    Zn2   S    
C24   H32   S    
C21   C22   S    
C32   H16   S    
O2    Zn2   S    
O1    Zn1   S    
C1    O3    A    
C23   N1    D    
C1    C9    S    
C17   H14   S    
C5    C7    A    
C6    C8    A    
C25   C26   S    
C8    C32   A    
C2    C4    A    
C29   C30   S    
C2    H17   S    
C14   H6    S    
C26   H26   S    
O6    Zn2   S    
O5    Zn1   S    
H36   N2    S    
C17   C18   S    
C16   H38   S    
O3    Zn2   S    
C25   H29   S    
C24   C25   S    
C3    C31   A    
C28   O5    A    
C9    C11   D    
C10   C12   S    
C6    C30   A    
C5    H12   S    
C24   H31   S    
C12   O4    A    
C18   H13   S    
C15   H4    S    
C22   H20   S    
C28   C31   S    
C17   H15   S    
O8    Zn1   S    
C10   C13   D    
O4    Zn1   S    
O7    Zn2   S    
C9    C24   S    
C6    H1    S    
C1    O1    A    
C27   H34   S    
C18   H11   S    
C21   H21   S    
C11   C13   S    
C29   O8    A    
C3    C17   S    
C25   H30   S    
C4    C14   S    
C3    C32   A    
C19   H8    S    
C19   H9    S    
C20   C21   S    
C14   C15   S    
C5    C31   A    
C20   H25   S    
C26   H28   S    
C4    C30   A    
C27   N2    D    
C11   H33   S    
C22   H19   S    
C13   H23   S    
