data_mof_unit_24289.cif
_audit_creation_date              2012-12-10T20:26:32-0500
_audit_creation_method            fapswitch 2.2
_symmetry_space_group_name_H-M    P1
_symmetry_Int_Tables_number       1
_space_group_crystal_system       triclinic
_cell_length_a                    10.696153
_cell_length_b                    10.724208
_cell_length_c                    9.942559
_cell_angle_alpha                 89.943751
_cell_angle_beta                  88.617638
_cell_angle_gamma                 91.462387
_cell_volume                      1139.78403108

loop_
_atom_site_label
_atom_site_type_symbol
_atom_type_description
_atom_site_fract_x
_atom_site_fract_y
_atom_site_fract_z
_atom_type_partial_charge
C1    C     C_R   0.501053 0.260347 0.500235 0.879242
C2    C     C_R   0.493242 0.128128 0.500163 -0.102449
C3    C     C_R   0.508875 0.064197 0.378765 -0.182628
C4    C     C_R   0.499858 0.936264 0.377412 -0.223555
C5    C     C_R   0.485743 0.871235 0.499090 -0.106856
C6    C     C_R   0.458150 0.935414 0.617564 0.133331
C7    C     C_3   0.515605 0.928223 0.752788 -0.473595
C8    C     C_3   0.517981 0.069658 0.753266 -0.462010
C9    C     C_R   0.390734 0.492097 0.072013 0.144728
C10   C     C_R   0.606760 0.527377 0.066930 0.012212
C11   C     C_R   0.606742 0.522186 0.923921 -0.158880
C12   C     C_R   0.262670 0.493083 0.502123 0.937488
C13   C     C_R   0.390729 0.496317 0.931101 0.162880
C14   C     C_3   0.285873 0.404376 0.920276 -0.504956
C15   C     C_3   0.286058 0.396033 0.073159 -0.031826
C16   C     C_R   0.497754 0.739634 0.499982 0.875416
C17   C     C_R   0.737182 0.500253 0.498618 0.917300
C18   C     C_2   0.930857 0.424225 0.414593 -0.142878
C19   C     C_2   0.869382 0.501917 0.495607 -0.295497
C20   C     C_2   0.066467 0.427776 0.408737 -0.155109
C21   C     C_2   0.130637 0.473569 0.511322 -0.338950
C22   C     C_R   0.460322 0.063202 0.617811 0.126658
H1    H     H_    0.881083 0.361993 0.346882 0.158423
H2    H     H_    0.614171 0.111661 0.749908 0.208117
H3    H     H_    0.692145 0.542268 0.866594 0.157044
H4    H     H_    0.200507 0.447631 0.881476 0.178814
H5    H     H_    0.314301 0.318382 0.866507 0.231397
H6    H     H_    0.199584 0.432543 0.118787 0.120494
H7    H     H_    0.914535 0.568638 0.561531 0.132316
H8    H     H_    0.113358 0.393655 0.319141 0.174718
H9    H     H_    0.086865 0.491286 0.608788 0.149300
H10   H     H_    0.534089 0.112054 0.285912 0.198867
H11   H     H_    0.512060 0.889649 0.282298 0.166791
H12   H     H_    0.450027 0.886479 0.829785 0.211178
H13   H     H_    0.610461 0.888017 0.748950 0.206074
H14   H     H_    0.453781 0.109632 0.830521 0.226850
N1    N     N_R   0.499170 0.499140 0.142800 -0.114526
N2    N     N_R   0.499170 0.499180 0.857150 -0.101591
O1    O     O_R   0.500020 0.316790 0.614690 -0.618579
O2    O     O_R   0.500000 0.316760 0.385350 -0.593653
O3    O     O_R   0.319080 0.500020 0.614640 -0.622411
O4    O     O_R   0.319070 0.499980 0.385300 -0.606432
O5    O     O_R   0.500000 0.683240 0.614650 -0.616489
O6    O     O_R   0.499980 0.683210 0.385310 -0.636474
O7    O     O_R   0.680930 0.500020 0.614700 -0.631787
O8    O     O_R   0.680920 0.499980 0.385360 -0.601762
Zn1   Zn    Zn3+2 0.500010 0.500020 0.653130 0.943286
Zn2   Zn    Zn3+2 0.499990 0.499980 0.346870 0.967164
C23   C     C_R   0.718970 0.584592 0.126013 0.172653
C24   C     C_R   0.836099 0.529891 0.109236 -0.191351
C25   C     C_R   0.944282 0.594382 0.149157 -0.119272
C26   C     C_R   0.936375 0.712429 0.207523 -0.092773
C27   C     C_R   0.820432 0.768391 0.221496 -0.174956
C28   C     C_R   0.712811 0.705696 0.177811 -0.090911
H15   H     H_    0.843742 0.438812 0.063244 0.126141
H16   H     H_    0.034284 0.553100 0.134847 0.120502
H17   H     H_    0.020283 0.761378 0.239382 0.136456
H18   H     H_    0.814312 0.861496 0.262638 0.136347
H19   H     H_    0.625248 0.752784 0.178560 0.120869
I1    I     I_    0.327974 0.212375 0.136682 -0.440900

loop_
_geom_bond_atom_site_label_1
_geom_bond_atom_site_label_2
_ccdc_geom_bond_type
C2    C22   A    
C11   N2    A    
C8    C22   S    
C27   H18   S    
C8    H14   S    
C6    C7    S    
C14   H5    S    
C15   I1    S    
C16   O6    A    
C24   H15   S    
C1    O2    A    
C9    C15   S    
C9    N1    A    
C2    C3    A    
C15   H6    S    
C7    C8    S    
C19   H7    S    
C20   H8    S    
C13   C14   S    
C20   C21   D    
N1    Zn2   S    
C21   H9    S    
C16   O5    A    
N2    Zn1   S    
C12   O3    A    
C7    H13   S    
C10   N1    A    
C12   C21   S    
C17   C19   S    
C17   O7    A    
C24   C25   A    
O4    Zn2   S    
C18   C20   S    
C28   H19   S    
O7    Zn1   S    
O3    Zn1   S    
C5    C6    A    
C7    H12   S    
O8    Zn2   S    
C13   N2    A    
C26   H17   S    
C1    O1    A    
C9    C13   A    
C18   H1    S    
C6    C22   A    
O6    Zn2   S    
C25   C26   A    
C17   O8    A    
O1    Zn1   S    
C1    C2    S    
C10   C11   A    
C23   C24   A    
C11   H3    S    
C4    H11   S    
C18   C19   D    
C5    C16   S    
C12   O4    A    
C3    H10   S    
C8    H2    S    
C14   C15   S    
C10   C23   S    
O5    Zn1   S    
O2    Zn2   S    
C14   H4    S    
C3    C4    A    
C23   C28   A    
C27   C28   A    
C26   C27   A    
C4    C5    A    
C25   H16   S    
