data_mof_unit_50732.cif
_audit_creation_date              2012-12-11T17:39:31-0500
_audit_creation_method            fapswitch 2.2
_symmetry_space_group_name_H-M    P1
_symmetry_Int_Tables_number       1
_space_group_crystal_system       triclinic
_cell_length_a                    14.840657
_cell_length_b                    15.124824
_cell_length_c                    14.865986
_cell_angle_alpha                 109.239104
_cell_angle_beta                  108.683248
_cell_angle_gamma                 110.542389
_cell_volume                      2566.55517777

loop_
_atom_site_label
_atom_site_type_symbol
_atom_type_description
_atom_site_fract_x
_atom_site_fract_y
_atom_site_fract_z
_atom_type_partial_charge
C1    C     C_R   0.907945 0.911309 0.713742 -0.145573
C2    C     C_R   0.908459 0.685100 0.444550 -0.140129
C3    C     C_R   0.701146 0.788032 0.197350 -0.108679
C4    C     C_R   0.093753 0.298252 0.496015 -0.155403
C5    C     C_R   0.307387 0.013685 0.602332 -0.136197
C6    C     C_R   0.641787 0.690768 0.191656 0.143208
C7    C     C_R   0.375480 0.083244 0.580167 0.070308
C8    C     C_R   0.002876 0.677746 0.465109 0.042361
C9    C     C_R   0.005755 0.944317 0.179765 0.047475
C10   C     C_R   0.502448 0.746294 0.571413 0.295574
C11   C     C_R   0.521913 0.839921 0.562614 -0.201662
C12   C     C_R   0.003738 0.301841 0.438416 0.059847
C13   C     C_R   0.595666 0.943750 0.655562 0.066679
C14   C     C_R   0.648634 0.954016 0.758192 -0.174990
C15   C     C_R   0.628767 0.861150 0.767631 -0.173557
C16   C     C_R   0.246392 0.220753 0.812790 -0.155840
C17   C     C_R   0.555932 0.757514 0.674786 -0.192429
C18   C     C_R   0.537712 0.075055 0.674324 -0.225647
C19   C     C_R   0.495237 0.124302 0.622341 0.040394
C20   C     C_R   0.556708 0.181570 0.584250 0.035090
C21   C     C_R   0.638549 0.161518 0.572630 -0.235118
C22   C     C_R   0.652895 0.080485 0.590099 0.061670
C23   C     C_R   0.271116 0.322032 0.822826 0.132628
C24   C     C_R   0.604446 0.040094 0.646601 0.045695
C25   C     C_R   0.525798 0.251687 0.452970 -0.176832
C26   C     C_R   0.507696 0.325206 0.423843 -0.101582
C27   C     C_R   0.500113 0.406615 0.494120 -0.113008
C28   C     C_R   0.741981 0.056652 0.468281 -0.127544
C29   C     C_R   0.510838 0.415029 0.593850 -0.113690
C30   C     C_R   0.530104 0.342353 0.624152 -0.139836
C31   C     C_R   0.536996 0.259451 0.553403 0.110933
C32   C     C_R   0.803870 0.116809 0.088105 -0.123568
C33   C     C_R   0.882488 0.216627 0.184124 -0.133772
C34   C     C_R   0.711862 0.037061 0.542996 0.053308
C35   C     C_R   0.849526 0.285344 0.235847 0.118864
C36   C     C_R   0.736828 0.253285 0.188259 -0.174512
C37   C     C_R   0.658584 0.153548 0.092004 -0.108452
C38   C     C_R   0.692025 0.085199 0.042392 -0.106919
C39   C     C_R   0.932621 0.484685 0.353072 -0.248518
C40   C     C_R   0.246949 0.312072 0.720806 -0.121582
C41   C     C_R   0.009420 0.582438 0.451991 0.072287
C42   C     C_R   0.090295 0.587690 0.539247 0.016712
C43   C     C_R   0.091977 0.494534 0.525124 -0.242487
C44   C     C_R   0.011110 0.395447 0.429936 0.061898
C45   C     C_R   0.701982 0.695304 0.287037 -0.166119
C46   C     C_R   0.932186 0.389168 0.340640 0.022232
C47   C     C_R   0.282559 0.734369 0.689336 -0.184905
C48   C     C_R   0.356166 0.826620 0.793105 -0.112660
C49   C     C_R   0.316200 0.869125 0.859137 -0.110804
C50   C     C_R   0.202450 0.819146 0.821594 -0.119065
C51   C     C_R   0.128363 0.727164 0.717526 -0.113338
C52   C     C_R   0.746707 0.968034 0.562726 -0.125882
C53   C     C_R   0.168001 0.684881 0.650216 0.108624
C54   C     C_2   0.365002 0.519273 0.933045 -0.121984
C55   C     C_2   0.320427 0.421314 0.925038 -0.195562
C56   C     C_R   0.307869 0.102933 0.510705 -0.157802
C57   C     C_2   0.461881 0.614511 0.034751 -0.109072
C58   C     C_2   0.531103 0.602406 0.107161 -0.209314
C59   C     C_R   0.395895 0.218891 0.111577 -0.119190
C60   C     C_R   0.306730 0.115555 0.068950 -0.189952
C61   C     C_R   0.199565 0.098969 0.037056 0.117296
C62   C     C_R   0.183304 0.187492 0.050667 -0.118375
C63   C     C_R   0.273097 0.291159 0.095677 -0.140299
C64   C     C_R   0.910069 0.210282 0.408373 -0.125765
C65   C     C_R   0.379251 0.306813 0.125750 -0.123468
C66   C     C_R   0.111549 0.970336 0.086380 -0.223568
C67   C     C_R   0.093622 0.780927 0.528238 -0.113233
C68   C     C_R   0.013823 0.904070 0.079824 0.049160
C69   C     C_R   0.919478 0.826149 0.976161 0.026135
C70   C     C_R   0.917682 0.838430 0.885885 -0.238672
C71   C     C_R   0.007979 0.926808 0.900710 0.055539
C72   C     C_R   0.106938 0.992726 0.003112 0.002174
C73   C     C_R   0.847324 0.682067 0.025019 -0.133043
C74   C     C_R   0.760196 0.596694 0.015767 -0.105076
C75   C     C_R   0.650917 0.560832 0.944664 -0.077624
C76   C     C_R   0.090826 0.000082 0.800188 -0.133269
C77   C     C_R   0.628657 0.610272 0.882761 -0.115959
C78   C     C_R   0.911789 0.933659 0.187836 -0.125245
C79   C     C_R   0.715605 0.694333 0.890302 -0.181766
C80   C     C_R   0.826029 0.732520 0.962723 0.119150
C81   C     C_R   0.001065 0.948712 0.810411 0.054236
C82   C     C_3   0.422181 0.635349 0.471115 -0.408815
C83   C     C_3   0.468212 0.612194 0.393269 -0.917034
C84   C     C_R   0.095530 0.022241 0.282835 -0.123250
H1    H     H_    0.823597 0.853197 0.686165 0.105053
H2    H     H_    0.478302 0.832190 0.483835 0.128529
H3    H     H_    0.179088 0.350873 0.520990 0.092826
H4    H     H_    0.703483 0.033769 0.830795 0.131189
H5    H     H_    0.668494 0.870148 0.847615 0.119021
H6    H     H_    0.501370 0.042314 0.716653 0.125670
H7    H     H_    0.684930 0.203806 0.542163 0.126913
H8    H     H_    0.529967 0.188099 0.396705 0.110073
H9    H     H_    0.499405 0.319012 0.346727 0.121376
H10   H     H_    0.485921 0.463068 0.471115 0.123767
H11   H     H_    0.503939 0.477826 0.647265 0.100454
H12   H     H_    0.332551 0.161299 0.484546 0.120789
H13   H     H_    0.538681 0.349999 0.701918 0.117406
H14   H     H_    0.631228 0.007733 0.968573 0.097762
H15   H     H_    0.256000 0.200789 0.877264 0.129481
H16   H     H_    0.829627 0.063819 0.049326 0.111196
H17   H     H_    0.968870 0.239936 0.218594 0.112747
H18   H     H_    0.709235 0.304374 0.226765 0.103647
H19   H     H_    0.571872 0.128842 0.056285 0.098326
H20   H     H_    0.872841 0.483120 0.286401 0.127994
H21   H     H_    0.150764 0.498304 0.594546 0.130833
H22   H     H_    0.314482 0.702399 0.638736 0.118766
H23   H     H_    0.179711 0.805098 0.558127 0.113996
H24   H     H_    0.444119 0.865071 0.822161 0.115415
H25   H     H_    0.373450 0.940499 0.939503 0.095229
H26   H     H_    0.171680 0.851651 0.873105 0.117051
H27   H     H_    0.727901 0.106135 0.433647 0.092199
H28   H     H_    0.040389 0.689358 0.689056 0.114990
H29   H     H_    0.344217 0.528026 0.860828 0.118207
H30   H     H_    0.335834 0.413963 0.997679 0.136584
H31   H     H_    0.485094 0.693604 0.040885 0.121771
H32   H     H_    0.511341 0.523703 0.100625 0.125189
H33   H     H_    0.448725 0.387188 0.160873 0.097072
H34   H     H_    0.827101 0.883137 0.122507 0.110827
H35   H     H_    0.478258 0.231318 0.135808 0.100166
H36   H     H_    0.321035 0.048724 0.061687 0.107051
H37   H     H_    0.101730 0.176659 0.029290 0.111398
H38   H     H_    0.260433 0.359500 0.107936 0.114820
H39   H     H_    0.255604 0.374648 0.698925 0.088220
H40   H     H_    0.188041 0.023045 0.163356 0.128017
H41   H     H_    0.845708 0.781311 0.805427 0.128281
H42   H     H_    0.931464 0.708785 0.080897 0.113043
H43   H     H_    0.777452 0.558717 0.064202 0.109649
H44   H     H_    0.583473 0.495050 0.937845 0.112607
H45   H     H_    0.181678 0.050936 0.308861 0.100231
H46   H     H_    0.543874 0.583579 0.829094 0.096863
H47   H     H_    0.696699 0.730697 0.841179 0.107665
H48   H     H_    0.743750 0.939740 0.619467 0.127006
H49   H     H_    0.825142 0.182988 0.354863 0.105504
H50   H     H_    0.174096 0.018610 0.846345 0.109189
H51   H     H_    0.672427 0.639258 0.314930 0.096802
H52   H     H_    0.478706 0.669869 0.361407 0.264300
H53   H     H_    0.549491 0.619916 0.436167 0.252368
H54   H     H_    0.410005 0.528063 0.322819 0.252294
H55   H     H_    0.403811 0.571142 0.494413 0.178980
H56   H     H_    0.823649 0.619259 0.400645 0.097969
H57   H     H_    0.342659 0.630718 0.428100 0.193345
H58   H     H_    0.672209 0.816693 0.142839 0.085512
H59   H     H_    0.332430 0.991235 0.663810 0.096185
H60   H     H_    0.540298 0.686123 0.683455 0.101213
N1    N     N_R   0.941940 0.944580 0.650780 -0.040029
N2    N     N_R   0.204460 0.150250 0.707090 -0.042159
N3    N     N_R   0.794270 0.003240 0.446420 -0.041522
N4    N     N_R   0.204920 0.207570 0.650770 -0.043136
N5    N     N_R   0.793810 0.945920 0.502740 -0.042627
N6    N     N_R   0.943620 0.152590 0.446420 -0.039628
N7    N     N_R   0.055110 0.000900 0.707100 -0.038940
N8    N     N_R   0.795080 0.792430 0.349230 -0.038892
N9    N     N_R   0.206190 0.054080 0.497260 -0.041595
N10   N     N_R   0.056380 0.847410 0.553580 -0.041441
N11   N     N_R   0.944890 0.999100 0.292900 -0.041924
N12   N     N_R   0.058060 0.055420 0.349220 -0.041563
N13   N     N_R   0.943200 0.791100 0.497260 -0.039186
N14   N     N_R   0.795540 0.849750 0.292910 -0.045489
N15   N     N_R   0.205730 0.996760 0.553580 -0.040808
N16   N     N_R   0.056800 0.208900 0.502740 -0.036531
Ni1   Ni    Ni4+2 0.869690 0.869690 0.500000 0.212166
Ni2   Ni    Ni4+2 0.130310 0.130310 0.500000 0.210941
Ni3   Ni    Ni4+2 0.129250 0.998840 0.629170 0.215349
Ni4   Ni    Ni4+2 0.870750 0.001160 0.370830 0.214146

loop_
_geom_bond_atom_site_label_1
_geom_bond_atom_site_label_2
_ccdc_geom_bond_type
C25   C31   A    
C66   C68   A    
C63   C65   A    
C51   H28   S    
C6    C45   A    
C27   C29   A    
C11   C13   A    
C41   C42   A    
C6    C58   S    
C1    N1    A    
C35   C36   A    
C38   H14   S    
C3    C6    A    
C39   H20   S    
C57   H31   S    
C4    H3    S    
C4    N16   A    
C30   H13   S    
C26   C27   A    
C37   C38   A    
N6    N16   A    
C67   N10   A    
C18   C24   A    
C16   N2    A    
C36   C37   A    
C78   H34   S    
C18   C19   A    
N3    Ni4   S    
C42   C53   S    
C30   C31   A    
C12   C64   A    
C78   N11   A    
C5    H59   S    
C10   C17   A    
C1    C81   A    
C23   C40   A    
C54   H29   S    
C84   H45   S    
C50   H26   S    
C36   H18   S    
C75   H44   S    
C43   H21   S    
C21   C22   A    
C64   H49   S    
C66   C72   A    
C47   C48   A    
C68   C69   A    
C5    N15   A    
C3    N14   A    
C70   C71   A    
N15   Ni3   S    
C32   C38   A    
C4    C12   A    
C29   C30   A    
N8    Ni1   S    
N14   Ni4   S    
C47   C53   A    
C26   H9    S    
N12   Ni2   S    
C59   C60   A    
C13   C14   A    
C58   H32   S    
C61   C62   A    
C3    H58   S    
C7    C56   A    
C82   H57   S    
C44   C46   A    
N2    N4    A    
C77   C79   A    
C28   H27   S    
C1    H1    S    
C22   C34   S    
N8    N14   A    
C45   H51   S    
C74   C75   A    
C40   N4    A    
C18   H6    S    
N10   Ni3   S    
C8    C41   S    
N10   N13   A    
C39   C41   A    
C29   H11   S    
C76   H50   S    
C52   N5    A    
C77   H46   S    
C14   H4    S    
C76   N7    A    
C25   C26   A    
C10   C82   S    
C32   H16   S    
C13   C24   S    
C64   N6    A    
C60   C61   A    
C51   C53   A    
C52   H48   S    
N9    N15   A    
C43   C44   A    
C82   H55   S    
C15   H5    S    
C74   H43   S    
C47   H22   S    
C79   H47   S    
C62   C63   A    
C50   C51   A    
C75   C77   A    
C83   H52   S    
N1    N7    A    
C39   C46   A    
C61   C72   S    
C48   C49   A    
C49   C50   A    
C16   C23   A    
N7    Ni3   S    
C17   H60   S    
C66   H40   S    
C33   H17   S    
N5    Ni1   S    
C42   C43   A    
C73   C74   A    
N13   Ni1   S    
C83   H53   S    
C63   H38   S    
C70   H41   S    
C5    C7    A    
C21   H7    S    
C56   H12   S    
C40   H39   S    
C54   C55   D    
C25   H8    S    
C59   H35   S    
N3    N5    A    
C34   C52   A    
C2    C8    A    
C56   N9    A    
C27   H10   S    
C76   C81   A    
C37   H19   S    
C16   H15   S    
C23   C55   S    
C55   H30   S    
N11   Ni4   S    
N6    Ni4   S    
N2    Ni3   S    
C7    C19   S    
N9    Ni2   S    
C45   N8    A    
C2    H56   S    
C32   C33   A    
C19   C20   A    
C49   H25   S    
N4    Ni2   S    
C71   C72   A    
C12   C44   S    
C59   C65   A    
C84   N12   A    
C67   H23   S    
C57   C58   D    
C48   H24   S    
N1    Ni1   S    
C2    N13   A    
C33   C35   A    
C73   C80   A    
C60   H36   S    
C22   C24   A    
C9    C78   A    
C83   H54   S    
C69   C70   A    
C9    C68   S    
C10   C11   A    
C9    C84   A    
C28   C34   A    
C79   C80   A    
C20   C21   A    
C8    C67   A    
C82   C83   S    
N11   N12   A    
C65   H33   S    
C14   C15   A    
C69   C80   S    
C11   H2    S    
C71   C81   S    
C15   C17   A    
C35   C46   S    
C54   C57   S    
C62   H37   S    
C73   H42   S    
N16   Ni2   S    
C28   N3    A    
C20   C31   S    
