data_mof_unit_34371.cif
_audit_creation_date              2013-03-05T16:45:08-0500
_audit_creation_method            fapswitch 2.2
_symmetry_space_group_name_H-M    P1
_symmetry_Int_Tables_number       1
_space_group_crystal_system       triclinic
_cell_length_a                    15.076456
_cell_length_b                    15.232071
_cell_length_c                    9.848432
_cell_angle_alpha                 89.79704
_cell_angle_beta                  89.872792
_cell_angle_gamma                 90.132334
_cell_volume                      2261.62371323

loop_
_atom_site_label
_atom_site_type_symbol
_atom_site_description
_atom_site_fract_x
_atom_site_fract_y
_atom_site_fract_z
_atom_type_partial_charge
O1    O     O_R   0.408400 0.908380 0.614690 -0.610954
O2    O     O_R   0.408400 0.091620 0.614690 -0.613537
O3    O     O_R   0.908400 0.408380 0.614690 -0.612829
O4    O     O_R   0.908400 0.591620 0.614690 -0.612891
O5    O     O_R   0.408370 0.908370 0.385350 -0.616683
O6    O     O_R   0.408370 0.091630 0.385350 -0.617095
O7    O     O_R   0.908370 0.408370 0.385350 -0.617218
O8    O     O_R   0.908370 0.591630 0.385350 -0.617046
C1    C     C_R   0.384961 0.874987 0.499798 0.887224
C2    C     C_R   0.385689 0.125090 0.499385 0.884821
C3    C     C_R   0.885904 0.374790 0.499649 0.888200
C4    C     C_R   0.885482 0.624892 0.499398 0.889854
Zn1   Zn    Zn3+2 0.500010 0.000000 0.653130 0.939228
Zn2   Zn    Zn3+2 0.000010 0.500000 0.653130 0.939079
Zn3   Zn    Zn3+2 0.499980 0.000000 0.346870 0.931629
Zn4   Zn    Zn3+2 0.999980 0.500000 0.346870 0.932270
O9    O     O_R   0.591610 0.091610 0.614650 -0.619986
O10   O     O_R   0.591610 0.908390 0.614650 -0.622852
O11   O     O_R   0.091610 0.591610 0.614650 -0.624214
O12   O     O_R   0.091610 0.408390 0.614650 -0.619114
O13   O     O_R   0.591590 0.091600 0.385310 -0.626946
O14   O     O_R   0.591590 0.908400 0.385310 -0.632864
O15   O     O_R   0.091590 0.591600 0.385310 -0.630239
O16   O     O_R   0.091590 0.408400 0.385310 -0.627868
C5    C     C_R   0.621042 0.118780 0.499719 0.875792
C6    C     C_R   0.621275 0.881471 0.499845 0.876903
C7    C     C_R   0.122402 0.617614 0.499698 0.874740
C8    C     C_R   0.121135 0.381291 0.499922 0.873866
C9    C     C_R   0.279661 0.214353 0.617052 0.090432
C10   C     C_R   0.293574 0.768787 0.621682 0.106656
C11   C     C_R   0.776792 0.711678 0.615612 0.095041
C12   C     C_R   0.778914 0.285972 0.616814 0.092873
C13   C     C_R   0.327207 0.198761 0.497995 -0.137147
C14   C     C_R   0.333591 0.795078 0.500159 -0.149114
C15   C     C_R   0.826336 0.697921 0.497914 -0.142494
C16   C     C_R   0.827494 0.301070 0.498482 -0.137799
C17   C     C_R   0.310709 0.249041 0.378715 0.153950
C18   C     C_R   0.322501 0.740968 0.383093 0.153424
C19   C     C_R   0.811346 0.749445 0.379409 0.153549
C20   C     C_R   0.811424 0.250917 0.379349 0.154052
C21   C     C_R   0.739760 0.806462 0.380102 -0.269803
C22   C     C_R   0.739299 0.194450 0.379937 -0.272223
C23   C     C_R   0.238823 0.305593 0.379709 -0.269888
C24   C     C_R   0.252731 0.680212 0.384345 -0.272200
H1    H     H_    0.726304 0.845993 0.290784 0.159053
H2    H     H_    0.724857 0.156130 0.290053 0.168211
H3    H     H_    0.224062 0.343855 0.289542 0.168060
H4    H     H_    0.238081 0.642309 0.294168 0.156769
C25   C     C_R   0.689755 0.818011 0.498285 -0.137568
C26   C     C_R   0.689783 0.182038 0.498405 -0.136395
C27   C     C_R   0.189977 0.318153 0.498718 -0.135143
C28   C     C_R   0.199679 0.671228 0.500385 -0.137369
C29   C     C_R   0.709121 0.771674 0.615791 0.133476
C30   C     C_R   0.710487 0.226577 0.616820 0.122553
C31   C     C_R   0.211430 0.273839 0.617405 0.120960
C32   C     C_R   0.227267 0.708065 0.621159 0.132483
C33   C     C_3   0.735464 0.809183 0.749570 -0.483903
C34   C     C_3   0.737395 0.187051 0.749460 -0.460206
C35   C     C_3   0.239752 0.313881 0.748572 -0.459738
C36   C     C_3   0.175451 0.752544 0.729760 -0.477648
C37   C     C_3   0.316068 0.250240 0.747295 -0.476154
C38   C     C_3   0.249992 0.819172 0.733397 -0.489018
C39   C     C_3   0.810811 0.744593 0.749197 -0.466711
C40   C     C_3   0.813913 0.250824 0.748677 -0.477980
H5    H     H_    0.757926 0.878681 0.742456 0.197779
H6    H     H_    0.758485 0.117344 0.740647 0.201310
H7    H     H_    0.260941 0.383588 0.737895 0.204159
H8    H     H_    0.170632 0.712253 0.823815 0.198160
H9    H     H_    0.685267 0.795463 0.829798 0.196936
H10   H     H_    0.688087 0.200163 0.830984 0.198787
H11   H     H_    0.191202 0.300989 0.831463 0.198186
H12   H     H_    0.111680 0.780010 0.692326 0.197927
H13   H     H_    0.381722 0.282668 0.733761 0.203023
H14   H     H_    0.288452 0.813599 0.828968 0.197867
H15   H     H_    0.877224 0.776199 0.740797 0.201032
H16   H     H_    0.879610 0.218477 0.737462 0.202139
H17   H     H_    0.313083 0.202784 0.832552 0.195216
H18   H     H_    0.229358 0.886366 0.702384 0.203795
H19   H     H_    0.804550 0.695926 0.832238 0.193699
H20   H     H_    0.810132 0.298788 0.832668 0.195451
C41   C     C_R   0.431678 0.037319 0.071468 0.203652
C42   C     C_R   0.930824 0.463902 0.071601 0.202144
N1    N     N_R   0.499140 0.000000 0.142800 -0.102533
N2    N     N_R   0.999140 0.500000 0.142800 -0.102424
C43   C     C_R   0.571588 0.971402 0.071915 -0.135844
C44   C     C_R   0.072054 0.527795 0.071625 -0.135312
H21   H     H_    0.628837 0.947029 0.126013 0.141969
H22   H     H_    0.129659 0.551548 0.125536 0.141235
C45   C     C_R   0.571649 0.971615 0.927898 -0.146490
C46   C     C_R   0.072096 0.527712 0.927574 -0.147070
H23   H     H_    0.629065 0.947982 0.873676 0.144657
H24   H     H_    0.129815 0.551181 0.873035 0.145779
N3    N     N_R   0.499160 0.000000 0.857150 -0.104714
N4    N     N_R   0.999160 0.500000 0.857150 -0.105217
C47   C     C_R   0.431792 0.037709 0.928767 0.223756
C48   C     C_R   0.930879 0.463678 0.929017 0.222892
C49   C     C_3   0.336865 0.010673 0.924744 -0.523444
C50   C     C_3   0.836266 0.491635 0.923789 -0.511899
C51   C     C_3   0.336582 0.011096 0.078553 -0.518970
C52   C     C_3   0.836004 0.491155 0.077827 -0.524396
H25   H     H_    0.292690 0.060737 0.879339 0.197547
H26   H     H_    0.329438 0.944653 0.881761 0.215774
H27   H     H_    0.828581 0.557722 0.879044 0.212500
H28   H     H_    0.791808 0.441414 0.879408 0.196955
H29   H     H_    0.293911 0.063379 0.121888 0.195319
H30   H     H_    0.326452 0.945028 0.123981 0.211082
H31   H     H_    0.826593 0.557206 0.122455 0.210042
H32   H     H_    0.792653 0.439202 0.121754 0.196382
C53   C     C_3   0.370590 0.250874 0.254099 -0.387583
C54   C     C_3   0.462636 0.286762 0.287810 -0.829208
H33   H     H_    0.495768 0.246003 0.366037 0.257654
H34   H     H_    0.504493 0.286908 0.194872 0.239817
H35   H     H_    0.457262 0.355139 0.325811 0.248233
H36   H     H_    0.375401 0.185773 0.206166 0.222760
H37   H     H_    0.342469 0.293915 0.173613 0.186224
C55   C     C_3   0.381296 0.744488 0.257639 -0.383660
C56   C     C_3   0.475817 0.715644 0.290354 -0.816611
H38   H     H_    0.518122 0.722515 0.198468 0.241698
H39   H     H_    0.504597 0.756131 0.372438 0.258833
H40   H     H_    0.476055 0.645810 0.323246 0.244616
H41   H     H_    0.355849 0.699531 0.177901 0.183224
H42   H     H_    0.380942 0.810160 0.209598 0.222424
C57   C     C_3   0.872921 0.752476 0.256647 -0.381105
C58   C     C_3   0.964240 0.788629 0.294096 -0.830128
H43   H     H_    0.996715 0.747118 0.372034 0.255579
H44   H     H_    0.007238 0.790270 0.202424 0.243278
H45   H     H_    0.957859 0.856455 0.333987 0.246276
H46   H     H_    0.879052 0.687788 0.207347 0.222849
H47   H     H_    0.845599 0.796060 0.176207 0.184539
C59   C     C_3   0.871765 0.249329 0.255230 -0.385534
C60   C     C_3   0.963671 0.213828 0.290095 -0.831457
H48   H     H_    0.005868 0.213870 0.197538 0.240201
H49   H     H_    0.996511 0.254683 0.368185 0.257763
H50   H     H_    0.958131 0.145435 0.328779 0.247381
H51   H     H_    0.843945 0.206119 0.175022 0.185908
H52   H     H_    0.876658 0.314444 0.206451 0.222881

loop_
_geom_bond_atom_site_label_1
_geom_bond_atom_site_label_2
_geom_bond_distance
_ccdc_geom_bond_type
C31   C35   1.493274 S    
C59   H51   1.112197 S    
O10   C6    1.283903 A    
C60   H50   1.110875 S    
C57   C58   1.528056 S    
C19   C21   1.386884 A    
C39   H19   1.105578 S    
O7    C3    1.279414 A    
C26   C30   1.387063 A    
C55   H42   1.105076 S    
Zn1   O10   2.002070 S    
C12   C16   1.393190 A    
C3    C16   1.425516 S    
N2    C44   1.367973 A    
C56   H39   1.107235 S    
C41   C47   1.405371 A    
C8    C27   1.416646 S    
C44   H22   1.081205 S    
C36   H12   1.112494 S    
C50   H27   1.103887 S    
C9    C13   1.394305 A    
Zn4   N2    2.009839 S    
C19   C57   1.523174 S    
C55   C56   1.526926 S    
C36   C38   1.513076 S    
C22   H2    1.084276 S    
C12   C30   1.370568 A    
O2    Zn1   2.001495 S    
C54   H33   1.108271 S    
O13   C5    1.281720 A    
C49   C51   1.514805 S    
O6    Zn3   2.002386 S    
C5    C26   1.413474 S    
C34   H6    1.112700 S    
Zn3   O14   2.001282 S    
C37   H17   1.106769 S    
C48   C50   1.490535 S    
C33   C39   1.504510 S    
O15   C7    1.283171 A    
O4    C4    1.289945 A    
O11   C7    1.283623 A    
C17   C53   1.522081 S    
C49   H26   1.098058 S    
C35   H7    1.112643 S    
C24   C28   1.399571 A    
C20   C22   1.384865 A    
C52   H32   1.111084 S    
O8    Zn4   2.002386 S    
C57   H47   1.112204 S    
C45   N3    1.367560 A    
C40   H20   1.107021 S    
C21   C25   1.397206 A    
C41   N1    1.361662 A    
C18   C24   1.399437 A    
C46   N4    1.368095 A    
C43   H21   1.081096 S    
C34   C40   1.506401 S    
C51   H29   1.110749 S    
C9    C37   1.500696 S    
C35   C37   1.506277 S    
C42   C48   1.404241 A    
C55   H41   1.112099 S    
C10   C14   1.396071 A    
C11   C39   1.500564 S    
C16   C20   1.423247 A    
O1    C1    1.291865 A    
C12   C40   1.500309 S    
C44   C46   1.418684 A    
C6    C25   1.416035 S    
C43   C45   1.418326 A    
C34   H10   1.111894 S    
Zn3   N1    2.009839 S    
C41   C51   1.488851 S    
C37   H13   1.112743 S    
C10   C32   1.360376 A    
C13   C17   1.422742 A    
C32   C36   1.488996 S    
Zn1   N3    2.009290 S    
C17   C23   1.386019 A    
C15   C19   1.422892 A    
O5    C1    1.283312 A    
Zn2   O12   2.002070 S    
C18   C55   1.519727 S    
C46   H24   1.081043 S    
O8    C4    1.280800 A    
C40   H16   1.112731 S    
C11   C29   1.371252 A    
C4    C15   1.427324 S    
N4    C48   1.363131 A    
C54   H35   1.111034 S    
O3    Zn2   1.998915 S    
C53   H36   1.102231 S    
C22   C26   1.395781 A    
C58   H45   1.110905 S    
O7    Zn4   1.996059 S    
N1    C43   1.367888 A    
Zn4   O15   1.998702 S    
C42   N2    1.363141 A    
C10   C38   1.495435 S    
C1    C14   1.441165 S    
C11   C15   1.394293 A    
C56   H40   1.110869 S    
O1    Zn1   1.998916 S    
C60   H48   1.110434 S    
O2    C2    1.290392 A    
O12   C8    1.283396 A    
C7    C28   1.421284 S    
C58   H44   1.110461 S    
C30   C34   1.493780 S    
C51   H30   1.109965 S    
C20   C59   1.522413 S    
C52   H31   1.108618 S    
C29   C33   1.492179 S    
C14   C18   1.429494 A    
C42   C52   1.490725 S    
Zn2   O11   1.995741 S    
C38   H18   1.112341 S    
C59   H52   1.102764 S    
O16   C8    1.281705 A    
C33   H5    1.112622 S    
C60   H49   1.107941 S    
O6    C2    1.281056 A    
C47   C49   1.488962 S    
C9    C31   1.372410 A    
C50   C52   1.517020 S    
Zn1   O9    1.995741 S    
O9    C5    1.281779 A    
C59   C60   1.527907 S    
C53   C54   1.527963 S    
C23   C27   1.396798 A    
C57   H46   1.103982 S    
N3    C47   1.364313 A    
C39   H15   1.112797 S    
C25   C29   1.385396 A    
Zn2   N4    2.009290 S    
C2    C13   1.428762 S    
C27   C31   1.386946 A    
O4    Zn2   2.001495 S    
C54   H34   1.110593 S    
O5    Zn3   1.996059 S    
O3    C3    1.290523 A    
C53   H37   1.112184 S    
C24   H4    1.083861 S    
Zn3   O13   1.998702 S    
C36   H8    1.111490 S    
Zn4   O16   2.001282 S    
C45   H23   1.079266 S    
O14   C6    1.280904 A    
C21   H1    1.084027 S    
C38   H14   1.109684 S    
C33   H9    1.111817 S    
C56   H38   1.110457 S    
C23   H3    1.084220 S    
C50   H28   1.107595 S    
C49   H25   1.107380 S    
C28   C32   1.381459 A    
C35   H11   1.111892 S    
C58   H43   1.108307 S    
