data_mof_unit_7716.cif
_audit_creation_date              2012-12-11T14:33:10-0500
_audit_creation_method            fapswitch 2.2
_symmetry_space_group_name_H-M    P1
_symmetry_Int_Tables_number       1
_space_group_crystal_system       triclinic
_cell_length_a                    6.955254
_cell_length_b                    13.731386
_cell_length_c                    17.944065
_cell_angle_alpha                 112.369315
_cell_angle_beta                  95.483586
_cell_angle_gamma                 90.215517
_cell_volume                      1576.04060043

loop_
_atom_site_label
_atom_site_type_symbol
_atom_type_description
_atom_site_fract_x
_atom_site_fract_y
_atom_site_fract_z
_atom_type_partial_charge
O1    O     O_R   0.484560 0.544530 0.414330 -0.536854
O2    O     O_R   0.197040 0.638810 0.585080 -0.537922
O3    O     O_R   0.026800 0.455470 0.585670 -0.541805
C1    C     C_R   0.373447 0.679280 0.609656 0.679273
O4    O     O_R   0.155000 0.556150 0.414940 -0.541317
O5    O     O_R   0.984450 0.372220 0.414320 -0.535752
C2    C     C_R   0.317642 0.564964 0.386543 0.762030
O6    O     O_R   0.526900 0.627780 0.585680 -0.541098
O7    O     O_3   0.339170 0.439750 0.499990 -0.376029
V1    V     V_3+5 0.064350 0.511180 0.500000 1.382378
O8    O     O_R   0.654880 0.361190 0.414920 -0.540821
C3    C     C_R   0.816963 0.324627 0.386373 0.768388
O9    O     O_R   0.696930 0.443850 0.585060 -0.542847
C4    C     C_R   0.873372 0.434131 0.612680 0.685294
V2    V     V_3+5 0.564340 0.488820 0.500000 1.377617
O10   O     O_3   0.839390 0.560250 0.500010 -0.374694
C5    C     C_R   0.041174 0.860818 0.822932 -0.083122
C6    C     C_R   0.907475 0.399819 0.681183 -0.054639
C7    C     C_R   0.901958 0.826078 0.686848 -0.128876
C8    C     C_R   0.956546 0.790535 0.748107 -0.151597
C9    C     C_R   0.066589 0.967912 0.836389 -0.127108
C10   C     C_R   0.987838 0.009235 0.779239 0.105378
C11   C     C_R   0.916391 0.933846 0.701595 0.125862
C12   C     C_R   0.985401 0.120416 0.793724 -0.093082
C13   C     C_R   0.935604 0.149585 0.724859 0.026964
C14   C     C_R   0.876518 0.069739 0.648608 -0.142777
C15   C     C_R   0.862330 0.965114 0.638042 -0.211702
C16   C     C_R   0.026750 0.204820 0.872053 0.423397
C17   C     C_R   0.052640 0.307957 0.876579 -0.258397
C18   C     C_R   0.011927 0.335254 0.809968 0.025453
C19   C     C_R   0.944800 0.257852 0.733663 0.100220
C20   C     C_R   0.031917 0.441566 0.820625 -0.095428
C21   C     C_R   0.981816 0.473313 0.756744 -0.141327
C22   C     C_R   0.891000 0.292803 0.669299 -0.185877
H1    H     H_    0.811084 0.907416 0.578523 0.111621
H2    H     H_    0.837318 0.239949 0.609113 0.086253
H3    H     H_    0.001854 0.555556 0.766354 0.085464
H4    H     H_    0.096793 0.370279 0.934896 0.182008
H5    H     H_    0.843746 0.769319 0.628093 0.135526
H6    H     H_    0.933795 0.707928 0.736857 0.094511
H7    H     H_    0.153612 0.015771 0.890687 0.186020
H8    H     H_    0.837032 0.085005 0.594836 0.116361
H9    H     H_    0.086224 0.500666 0.878942 0.140863
H10   H     H_    0.113439 0.224692 0.307914 0.156036
H11   H     H_    0.834131 0.035329 0.192785 0.153835
C23   C     C_2   0.135299 0.037981 0.183488 -0.326607
C24   C     C_2   0.972363 0.078524 0.216240 -0.126927
H12   H     H_    0.674934 0.177701 0.294342 0.127178
C25   C     C_2   0.812737 0.221257 0.318055 -0.337461
C26   C     C_2   0.975334 0.181292 0.284676 -0.103836
C27   C     C_R   0.406157 0.785860 0.676005 -0.056043
C28   C     C_R   0.538636 0.473614 0.824744 -0.057845
C29   C     C_R   0.516140 0.888812 0.816693 -0.118305
C30   C     C_R   0.472203 0.791774 0.753586 -0.143912
C31   C     C_R   0.392035 0.880671 0.661737 -0.206649
C32   C     C_R   0.439305 0.981840 0.725820 0.094046
C33   C     C_R   0.496556 0.983061 0.804060 0.053915
C34   C     C_R   0.432255 0.081665 0.716113 0.073762
C35   C     C_R   0.482017 0.179185 0.784698 -0.000430
C36   C     C_R   0.523850 0.174174 0.861285 -0.133439
C37   C     C_R   0.528390 0.078365 0.870452 -0.096228
C38   C     C_R   0.377860 0.087508 0.640410 -0.170582
C39   C     C_R   0.372717 0.183743 0.631426 -0.218038
C40   C     C_R   0.425256 0.278380 0.696876 0.127006
C41   C     C_R   0.484072 0.278619 0.774715 0.097070
C42   C     C_R   0.418471 0.373137 0.684427 -0.128281
C43   C     C_R   0.473211 0.469162 0.747419 -0.144497
C44   C     C_R   0.542327 0.378529 0.838568 -0.211008
H13   H     H_    0.553457 0.078792 0.931010 0.196066
H14   H     H_    0.590276 0.385181 0.899282 0.118354
H15   H     H_    0.462784 0.540621 0.735635 0.091265
H16   H     H_    0.327923 0.183993 0.571953 0.114784
H17   H     H_    0.565188 0.890313 0.876253 0.153298
H18   H     H_    0.490141 0.720788 0.765633 0.089874
H19   H     H_    0.346593 0.872892 0.600544 0.088814
H20   H     H_    0.550930 0.243616 0.916016 0.180727
H21   H     H_    0.337000 0.018485 0.586616 0.118003
H22   H     H_    0.369416 0.372950 0.625294 0.144551
H23   H     H_    0.334334 0.666982 0.194274 0.153970
H24   H     H_    0.614600 0.590372 0.307927 0.154869
C45   C     C_2   0.314188 0.602089 0.318754 -0.329977
C46   C     C_2   0.476364 0.610580 0.285173 -0.111529
H25   H     H_    0.772802 0.635822 0.206850 0.133892
C47   C     C_2   0.634836 0.655683 0.183609 -0.325510
C48   C     C_2   0.472625 0.646870 0.217058 -0.114183
H26   H     H_    0.176290 0.622025 0.295514 0.128836
O11   O     O_R   0.421600 0.630430 0.917010 -0.542452
O12   O     O_R   0.793840 0.702190 0.087630 -0.540556
O13   O     O_R   0.964010 0.886170 0.088190 -0.538735
C49   C     C_R   0.631261 0.693133 0.115987 0.758569
O14   O     O_R   0.751460 0.619510 0.917500 -0.539644
O15   O     O_R   0.921330 0.802900 0.916840 -0.536008
C50   C     C_R   0.574537 0.579519 0.891995 0.687172
O16   O     O_R   0.464290 0.713700 0.088350 -0.539189
O17   O     O_3   0.609200 0.818520 0.002630 -0.372640
V3    V     V_3+5 0.884140 0.747190 0.002530 1.401825
O18   O     O_R   0.251150 0.814630 0.917340 -0.548181
C51   C     C_R   0.075024 0.824265 0.889920 0.715770
O19   O     O_R   0.293530 0.897310 0.087470 -0.538804
C52   C     C_R   0.131331 0.934106 0.115754 0.764310
V4    V     V_3+5 0.384070 0.769710 0.002370 1.395597
O20   O     O_3   0.109180 0.698190 0.002460 -0.376714
H27   H     H_    0.273203 0.081368 0.207367 0.135236
S1    S     S_3+6 0.028467 0.198131 0.969918 -0.058824
O21   O     O_2   0.234332 0.193160 0.001975 -0.360060
O22   O     O_2   0.947224 0.297069 0.026550 -0.328501
O23   O     O_3   0.897887 0.095536 0.970881 -0.543123
H28   H     H_    0.928477 0.095827 0.026030 0.358273

loop_
_geom_bond_atom_site_label_1
_geom_bond_atom_site_label_2
_ccdc_geom_bond_type
C34   C38   A    
C31   C32   A    
O12   V3    S    
C13   C19   A    
V4    O20   S    
V3    O20   S    
C4    C6    S    
C38   H21   S    
O2    C1    A    
O17   V3    S    
C1    O6    A    
S1    O22   D    
C3    C25   S    
O15   C51   A    
C29   C30   A    
C14   C15   A    
C38   C39   A    
C16   C17   A    
C45   C46   D    
O5    C3    A    
C18   C19   A    
C8    H6    S    
C37   H13   S    
V2    O10   S    
O18   C51   A    
O15   V3    S    
C5    C8    A    
C32   C33   A    
O14   V3    S    
O11   V4    S    
O8    V2    S    
C7    C8    A    
O16   V4    S    
C17   H4    S    
O23   H28   S    
O1    V2    S    
C11   C15   A    
O7    V1    S    
C43   H15   S    
C45   H26   S    
C28   C44   A    
C31   H19   S    
C42   C43   A    
C35   C36   A    
C30   H18   S    
O9    C4    A    
C47   C49   S    
S1    O21   D    
C49   O16   A    
C24   C26   S    
H11   C24   S    
C42   H22   S    
O13   C52   A    
C12   C13   A    
H24   C46   S    
O4    C2    A    
C29   C33   A    
C1    C27   S    
C15   H1    S    
C13   C14   A    
C36   H20   S    
C21   H3    S    
C36   C37   A    
C40   C42   A    
C7    C11   A    
C17   C18   A    
O14   C50   A    
C16   S1    S    
H25   C47   S    
C41   C44   A    
C19   C22   A    
C28   C50   S    
C47   C48   D    
C6    C22   A    
C28   C43   A    
C7    H5    S    
C9    H7    S    
H12   C25   S    
O19   V4    S    
O12   C49   A    
O6    V2    S    
O9    V2    S    
C10   C12   A    
O2    V1    S    
H23   C48   S    
C14   H8    S    
C5    C51   S    
H10   C26   S    
C23   C52   S    
C23   C24   D    
C2    C45   S    
O1    C2    A    
C29   H17   S    
C12   C16   A    
O5    V1    S    
O8    C3    A    
C33   C37   A    
O3    C4    A    
C46   C48   S    
C23   H27   S    
O19   C52   A    
C27   C30   A    
C20   C21   A    
O13   V3    S    
C34   C35   A    
O4    V1    S    
O3    V1    S    
V1    O10   S    
C35   C41   A    
C18   C20   A    
O11   C50   A    
C40   C41   A    
C20   H9    S    
C32   C34   A    
C27   C31   A    
O7    V2    S    
C6    C21   A    
C5    C9    A    
C39   C40   A    
C39   H16   S    
C22   H2    S    
C44   H14   S    
C25   C26   D    
C10   C11   A    
C9    C10   A    
S1    O23   S    
O18   V4    S    
O17   V4    S    
