data_mof_unit_38244.cif
_audit_creation_date              2012-12-10T16:47:17-0500
_audit_creation_method            fapswitch 2.2
_symmetry_space_group_name_H-M    P1
_symmetry_Int_Tables_number       1
_space_group_crystal_system       triclinic
_cell_length_a                    12.112022
_cell_length_b                    12.228522
_cell_length_c                    7.840065
_cell_angle_alpha                 90.731023
_cell_angle_beta                  94.538168
_cell_angle_gamma                 90.073354
_cell_volume                      1157.47086868

loop_
_atom_site_label
_atom_site_type_symbol
_atom_type_description
_atom_site_fract_x
_atom_site_fract_y
_atom_site_fract_z
_atom_type_partial_charge
C1    C     C_R   0.353235 0.852587 0.455216 0.874169
C2    C     C_2   0.711385 0.755832 0.556856 0.209484
C3    C     C_2   0.739750 0.217730 0.566472 0.213959
C4    C     C_2   0.260237 0.782284 0.433534 0.213772
C5    C     C_2   0.788613 0.744167 0.443142 0.209456
C6    C     C_2   0.211386 0.255833 0.556857 0.209582
C7    C     C_2   0.239754 0.717725 0.566471 0.214027
C8    C     C_2   0.760235 0.282286 0.433533 0.213890
C9    C     C_2   0.641401 0.043056 0.004611 0.726551
C10   C     C_2   0.358606 0.956921 0.995348 0.726592
C11   C     C_2   0.141467 0.542830 0.004505 0.726463
C12   C     C_R   0.646761 0.147417 0.544784 0.874328
C13   C     C_2   0.858568 0.457010 0.995365 0.726516
C14   C     C_R   0.643258 0.849467 0.542902 0.883056
C15   C     C_R   0.356742 0.150533 0.457098 0.882869
C16   C     C_R   0.853234 0.352588 0.455215 0.874163
C17   C     C_R   0.146762 0.647415 0.544784 0.874330
C18   C     C_R   0.143258 0.349467 0.542902 0.883105
C19   C     C_R   0.856742 0.650533 0.457098 0.882873
C20   C     C_2   0.288612 0.244166 0.443140 0.209421
H1    H     H_    0.875866 0.805852 0.266849 0.371820
H2    H     H_    0.349965 0.869419 0.011089 0.032329
H3    H     H_    0.150571 0.630380 0.989843 0.032248
H4    H     H_    0.849824 0.369504 0.010981 0.032300
H5    H     H_    0.124143 0.194155 0.733167 0.371849
H6    H     H_    0.291254 0.647789 0.781421 0.351454
H7    H     H_    0.708716 0.352247 0.218613 0.351411
H8    H     H_    0.375862 0.305849 0.266841 0.371791
H9    H     H_    0.624138 0.694152 0.733159 0.371813
H10   H     H_    0.791233 0.147820 0.781452 0.351565
H11   H     H_    0.208711 0.852252 0.218623 0.351479
H12   H     H_    0.650246 0.130613 0.989668 0.032354
N1    N     N_2   0.541470 1.000000 0.055820 -0.178544
N2    N     N_2   0.458530 0.000000 0.944180 -0.178310
N3    N     N_2   0.041470 0.500000 0.055820 -0.178492
N4    N     N_2   0.958530 0.500000 0.944180 -0.178182
O1    O     O_R   0.375700 0.885870 0.609240 -0.580315
O2    O     O_R   0.597720 0.114130 0.675960 -0.680560
O3    O     O_R   0.597720 0.885870 0.675960 -0.621006
O4    O     O_R   0.402280 0.114130 0.324040 -0.621488
O5    O     O_R   0.902280 0.385870 0.324040 -0.680829
O6    O     O_R   0.097720 0.614130 0.675960 -0.680450
O7    O     O_R   0.097720 0.385870 0.675960 -0.620796
O8    O     O_R   0.902280 0.614130 0.324040 -0.621391
O9    O     O_3   0.810158 0.825755 0.328277 -0.723022
O10   O     O_3   0.189840 0.174244 0.671721 -0.722739
O11   O     O_3   0.314061 0.708720 0.709966 -0.784530
O12   O     O_R   0.624300 0.114130 0.390760 -0.580556
O13   O     O_3   0.685920 0.291301 0.290051 -0.784577
O14   O     O_3   0.310155 0.325752 0.328270 -0.723151
O15   O     O_3   0.689837 0.674241 0.671714 -0.722813
O16   O     O_3   0.814054 0.208731 0.709971 -0.784483
O17   O     O_3   0.185921 0.791301 0.290053 -0.784511
O18   O     O_2   0.720016 0.982768 0.987452 -0.563008
O19   O     O_2   0.279749 0.017077 0.011406 -0.562776
O20   O     O_2   0.219864 0.482334 0.986938 -0.563016
O21   O     O_2   0.779786 0.517247 0.011551 -0.562796
O22   O     O_R   0.624300 0.885870 0.390760 -0.559411
O23   O     O_R   0.375700 0.114130 0.609240 -0.559159
O24   O     O_R   0.875700 0.385870 0.609240 -0.580373
O25   O     O_R   0.124300 0.614130 0.390760 -0.580637
O26   O     O_R   0.124300 0.385870 0.390760 -0.559513
O27   O     O_R   0.875700 0.614130 0.609240 -0.559191
O28   O     O_R   0.402280 0.885870 0.324040 -0.680889
Zn1   Zn    Zn3+2 0.482250 0.000000 0.690430 1.027859
Zn2   Zn    Zn3+2 0.517750 0.000000 0.309570 1.027366
Zn3   Zn    Zn3+2 0.982250 0.500000 0.690430 1.027932
Zn4   Zn    Zn3+2 0.017750 0.500000 0.309570 1.027338

loop_
_geom_bond_atom_site_label_1
_geom_bond_atom_site_label_2
_ccdc_geom_bond_type
H11   O17   S    
C3    O16   S    
O7    Zn3   S    
O24   Zn3   S    
C5    C19   S    
C1    O1    A    
C4    O17   S    
C6    C20   D    
N3    N4    D    
O1    Zn1   S    
O2    Zn1   S    
O26   Zn4   S    
C12   O12   A    
C1    C4    S    
O12   Zn2   S    
C11   N3    S    
N1    N2    D    
N4    Zn3   S    
C8    C16   S    
C19   O27   A    
O4    Zn2   S    
C18   O7    A    
C10   H2    S    
C9    N1    S    
C10   O19   D    
O3    Zn1   S    
O25   Zn4   S    
O6    Zn3   S    
C15   O23   A    
H6    O11   S    
C4    C7    D    
C6    C18   S    
N3    Zn4   S    
N2    Zn1   S    
C11   H3    S    
C9    O18   D    
N1    Zn2   S    
O5    Zn4   S    
H1    O9    S    
C12   O2    A    
C15   C20   S    
C14   O22   A    
O27   Zn3   S    
C15   O4    A    
C8    O13   S    
C2    C5    D    
O8    Zn4   S    
C2    O15   S    
C5    O9    S    
C1    O28   A    
C13   O21   D    
C19   O8    A    
H5    O10   S    
C13   N4    S    
C10   N2    S    
C3    C8    D    
H9    O15   S    
C2    C14   S    
H10   O16   S    
C17   O6    A    
C18   O26   A    
C20   O14   S    
C3    C12   S    
C6    O10   S    
C9    H12   S    
C17   O25   A    
C14   O3    A    
C16   O24   A    
H8    O14   S    
C16   O5    A    
O22   Zn2   S    
O23   Zn1   S    
C11   O20   D    
H7    O13   S    
C13   H4    S    
C7    O11   S    
C7    C17   S    
O28   Zn2   S    
