data_mof_unit_43657.cif
_audit_creation_date              2012-12-10T17:40:58-0500
_audit_creation_method            fapswitch 2.2
_symmetry_space_group_name_H-M    P1
_symmetry_Int_Tables_number       1
_space_group_crystal_system       triclinic
_cell_length_a                    15.067923
_cell_length_b                    13.71281
_cell_length_c                    11.714287
_cell_angle_alpha                 90.010576
_cell_angle_beta                  89.976242
_cell_angle_gamma                 90.111384
_cell_volume                      2420.442921

loop_
_atom_site_label
_atom_site_type_symbol
_atom_type_description
_atom_site_fract_x
_atom_site_fract_y
_atom_site_fract_z
_atom_type_partial_charge
C1    C     C_R   0.328534 0.500079 0.500997 0.822826
C2    C     C_R   0.671466 0.500149 0.500452 0.821965
C3    C     C_R   0.907172 0.586277 0.471972 0.095266
C4    C     C_R   0.092814 0.416711 0.538266 0.096857
C5    C     C_R   0.953353 0.332735 0.570345 -0.155595
C6    C     C_R   0.046648 0.670449 0.440673 -0.155871
C7    C     C_R   0.045894 0.332933 0.571182 -0.148227
C8    C     C_R   0.954105 0.670412 0.440378 -0.161228
C9    C     C_R   0.436119 0.792933 0.558402 0.120114
C10   C     C_R   0.566311 0.207011 0.445905 0.121276
C11   C     C_R   0.563720 0.793054 0.441034 0.120825
C12   C     C_R   0.433028 0.206478 0.552311 0.126436
C13   C     C_R   0.565102 0.896431 0.437011 -0.130532
C14   C     C_R   0.429678 0.103068 0.551353 -0.123621
C15   C     C_R   0.434351 0.896268 0.561118 -0.123391
C16   C     C_R   0.569773 0.103514 0.445858 -0.123817
C17   C     C_R   0.499894 0.948137 0.499179 -0.014753
C18   C     C_R   0.499951 0.051510 0.499083 -0.019424
C19   C     C_R   0.630406 0.948863 0.374391 0.301456
C20   C     C_R   0.358602 0.050419 0.601974 0.316175
C21   C     C_R   0.367575 0.948540 0.620820 0.259971
C22   C     C_R   0.639551 0.051185 0.391843 0.272105
C23   C     C_R   0.500076 0.499999 0.283838 0.834660
C24   C     C_R   0.499929 0.500011 0.716163 0.828665
C25   C     C_1   0.500081 0.500015 0.162239 -0.127702
C26   C     C_1   0.499934 0.500044 0.837761 -0.131798
C27   C     C_1   0.500044 0.500047 0.059846 0.049316
C28   C     C_1   0.499976 0.500060 0.940155 0.047224
C29   C     C_R   0.814684 0.585377 0.471094 -0.202123
C30   C     C_R   0.185294 0.417251 0.537571 -0.179922
C31   C     C_R   0.768245 0.500691 0.502097 -0.089318
C32   C     C_R   0.231751 0.500791 0.503257 -0.090765
C33   C     C_R   0.814352 0.416772 0.535547 -0.173031
C34   C     C_R   0.185662 0.585457 0.472022 -0.187853
C35   C     C_R   0.906814 0.416439 0.537032 0.100951
C36   C     C_R   0.093186 0.586370 0.472636 0.100567
C37   C     C_R   0.953472 0.501409 0.504764 0.061870
C38   C     C_R   0.046513 0.501496 0.505226 0.060142
Cu1   Cu    Cu3+1 0.500000 0.597420 0.500000 0.988522
Cu2   Cu    Cu3+1 0.500000 0.402580 0.500000 0.985244
H1    H     H_    0.778907 0.650269 0.445268 0.184485
H2    H     H_    0.221247 0.353203 0.564927 0.209555
H3    H     H_    0.778233 0.352165 0.561803 0.193158
H4    H     H_    0.221690 0.650314 0.446044 0.169959
H5    H     H_    0.918195 0.267166 0.595556 0.182686
H6    H     H_    0.081816 0.736081 0.415705 0.177443
H7    H     H_    0.080708 0.267553 0.597164 0.198587
H8    H     H_    0.919275 0.736037 0.415259 0.196021
H9    H     H_    0.385444 0.750307 0.600155 0.192385
H10   H     H_    0.615000 0.249537 0.400221 0.194052
H11   H     H_    0.614434 0.750531 0.399469 0.187937
H12   H     H_    0.383156 0.248316 0.596615 0.183283
N1    N     N_R   0.500000 0.743810 0.500000 -0.225885
N2    N     N_R   0.500000 0.256190 0.500000 -0.225535
O1    O     O_R   0.370260 0.582280 0.500020 -0.594357
O2    O     O_R   0.629740 0.417720 0.499980 -0.586268
O3    O     O_R   0.629740 0.582280 0.499980 -0.596990
O4    O     O_R   0.370260 0.417720 0.500020 -0.584854
O5    O     O_R   0.500010 0.582270 0.337200 -0.562527
O6    O     O_R   0.499990 0.417730 0.662800 -0.580162
O7    O     O_R   0.499990 0.582270 0.662800 -0.561089
O8    O     O_R   0.500010 0.417730 0.337200 -0.571821
S1    S     S_3+6 0.691674 0.888362 0.264641 0.034648
O9    O     O_2   0.768548 0.835289 0.317508 -0.329618
O10   O     O_2   0.632875 0.815881 0.204769 -0.293899
O11   O     O_3   0.729389 0.967317 0.166011 -0.414635
H13   H     H_    0.767683 0.927952 0.115078 0.388253
S2    S     S_3+6 0.253936 0.108886 0.620327 0.010439
O12   O     O_2   0.255734 0.169240 0.727433 -0.308933
O13   O     O_2   0.237544 0.174209 0.519566 -0.338566
O14   O     O_3   0.169806 0.028358 0.627091 -0.419049
H14   H     H_    0.116109 0.068389 0.640213 0.373918
S3    S     S_3+6 0.303166 0.888807 0.728149 0.067123
O15   O     O_2   0.228647 0.833674 0.672224 -0.225101
O16   O     O_2   0.359988 0.817824 0.793008 -0.304144
O17   O     O_3   0.260765 0.968567 0.822519 -0.404329
H15   H     H_    0.313075 0.997915 0.860617 0.357976
S4    S     S_3+6 0.741863 0.111648 0.360541 0.056255
O18   O     O_2   0.733445 0.164404 0.248664 -0.204905
O19   O     O_2   0.762712 0.184773 0.452307 -0.358068
O20   O     O_3   0.827434 0.033367 0.353214 -0.412489
H16   H     H_    0.834017 0.007649 0.431775 0.351597

loop_
_geom_bond_atom_site_label_1
_geom_bond_atom_site_label_2
_ccdc_geom_bond_type
S1    O10   D    
C24   O7    A    
Cu2   O6    S    
S3    O15   D    
C14   C18   A    
O20   H16   S    
C2    O3    A    
C23   O5    A    
C35   C37   A    
C24   C26   S    
S4    O19   D    
Cu1   O3    S    
C21   S3    S    
Cu2   O8    S    
C3    C29   A    
C23   O8    A    
Cu1   O1    S    
C19   S1    S    
S2    O12   D    
Cu2   O2    S    
C31   C33   A    
C11   N1    A    
O11   H13   S    
S1    O11   S    
S3    O16   D    
C4    C7    A    
C12   H12   S    
Cu1   O7    S    
Cu2   O4    S    
C13   C19   A    
C33   H3    S    
C14   C20   A    
C19   C22   A    
C9    H9    S    
O17   H15   S    
C22   S4    S    
C3    C8    A    
Cu1   Cu2   S    
C5    C7    A    
S4    O18   D    
C6    C8    A    
C5    H5    S    
C1    C32   S    
C2    C31   S    
C7    H7    S    
C8    H8    S    
C37   C38   A    
C24   O6    A    
Cu1   O5    S    
C17   C18   A    
C34   H4    S    
S2    O13   D    
C12   C14   A    
Cu2   N2    S    
S3    O17   S    
C9    N1    A    
C10   H10   S    
C15   C17   A    
C16   C22   A    
C6    H6    S    
C29   H1    S    
C20   S2    S    
C4    C38   A    
C25   C27   T    
C26   C28   T    
C13   C17   A    
C36   C38   A    
C1    O1    A    
O14   H14   S    
C29   C31   A    
C2    O2    A    
C1    O4    A    
C30   C32   A    
C11   C13   A    
S4    O20   S    
Cu1   N1    S    
S2    O14   S    
C5    C35   A    
C33   C35   A    
C6    C36   A    
C34   C36   A    
C23   C25   S    
C9    C15   A    
C10   N2    A    
C4    C30   A    
C11   H11   S    
S1    O9    D    
C15   C21   A    
C20   C21   A    
C3    C37   A    
C16   C18   A    
C27   C28   S    
C30   H2    S    
C10   C16   A    
C12   N2    A    
C32   C34   A    
