data_mof_unit_6178.cif
_audit_creation_date              2013-03-05T16:34:13-0500
_audit_creation_method            fapswitch 2.2
_symmetry_space_group_name_H-M    P1
_symmetry_Int_Tables_number       1
_space_group_crystal_system       triclinic
_cell_length_a                    10.842979
_cell_length_b                    10.787019
_cell_length_c                    9.531902
_cell_angle_alpha                 89.781174
_cell_angle_beta                  90.485145
_cell_angle_gamma                 90.007954
_cell_volume                      1114.83575813

loop_
_atom_site_label
_atom_site_type_symbol
_atom_site_description
_atom_site_fract_x
_atom_site_fract_y
_atom_site_fract_z
_atom_type_partial_charge
O1    O     O_R   0.500000 0.319640 0.618810 -0.581902
O2    O     O_R   0.500010 0.319680 0.381230 -0.595179
C1    C     C_R   0.493877 0.262394 0.499937 0.796435
O3    O     O_R   0.319640 0.499990 0.618790 -0.595327
O4    O     O_R   0.319650 0.500030 0.381210 -0.575833
C2    C     C_R   0.262388 0.503103 0.499114 0.782731
Cu1   Cu    Cu3+1 0.499990 0.499980 0.640670 0.946081
Cu2   Cu    Cu3+1 0.500010 0.500020 0.359330 0.964082
O5    O     O_R   0.499990 0.680320 0.618770 -0.584200
O6    O     O_R   0.500000 0.680360 0.381190 -0.564034
O7    O     O_R   0.680350 0.499970 0.618790 -0.571278
O8    O     O_R   0.680360 0.500010 0.381210 -0.584909
C3    C     C_R   0.495418 0.737795 0.499706 0.829524
C4    C     C_R   0.737747 0.494927 0.500840 0.818200
H1    H     H_    0.241745 0.764420 0.920316 0.121130
C5    C     C_R   0.186771 0.795273 0.135340 0.221621
C6    C     C_R   0.141448 0.738656 0.257607 -0.138512
H2    H     H_    0.124103 0.794002 0.350035 0.127389
C7    C     C_R   0.116042 0.611124 0.259709 0.103763
C8    C     C_R   0.135660 0.540150 0.138924 -0.138016
H3    H     H_    0.114525 0.441987 0.138556 0.120293
C9    C     C_R   0.181965 0.595795 0.017796 -0.182550
H4    H     H_    0.196662 0.540767 0.924705 0.146590
C10   C     C_R   0.207748 0.722644 0.015853 -0.127951
C11   C     C_R   0.932378 0.548290 0.389378 -0.210824
H5    H     H_    0.880361 0.589478 0.304354 0.188913
C12   C     C_R   0.871887 0.492220 0.501949 -0.099870
C13   C     C_R   0.940955 0.438167 0.612736 0.001376
C14   C     C_R   0.068724 0.447705 0.610699 -0.233844
H6    H     H_    0.122150 0.404651 0.694457 0.149797
C15   C     C_R   0.128691 0.503511 0.497644 -0.078487
C16   C     C_R   0.059870 0.553148 0.384528 -0.004702
C17   C     C_R   0.906883 0.384905 0.865134 -0.187004
H7    H     H_    0.951105 0.470816 0.895707 0.132694
C18   C     C_R   0.870492 0.300829 0.968825 -0.153487
H8    H     H_    0.884695 0.322898 0.078512 0.131665
C19   C     C_R   0.819106 0.186865 0.930720 -0.099601
H9    H     H_    0.793535 0.120490 0.010852 0.167833
C20   C     C_R   0.802912 0.157647 0.788972 -0.146521
H10   H     H_    0.767154 0.067685 0.759373 0.138554
C21   C     C_R   0.834327 0.243648 0.685139 -0.121947
H11   H     H_    0.822772 0.219025 0.575710 0.112943
C22   C     C_R   0.887140 0.357830 0.722510 0.135562
C23   C     C_R   0.437541 0.063464 0.615651 0.109201
C24   C     C_R   0.474556 0.129759 0.496952 -0.096565
C25   C     C_R   0.486941 0.065132 0.369875 -0.223150
H12   H     H_    0.504171 0.113139 0.271934 0.177968
C26   C     C_R   0.486747 0.936108 0.370061 -0.174145
H13   H     H_    0.500047 0.888287 0.272236 0.226686
C27   C     C_R   0.477930 0.870772 0.497203 -0.111031
C28   C     C_R   0.442777 0.936146 0.616511 0.086208
C29   C     C_3   0.483538 0.931020 0.766316 -0.400458
C30   C     C_3   0.472229 0.071711 0.767177 -0.465298
H14   H     H_    0.415492 0.884001 0.834739 0.190460
H15   H     H_    0.580321 0.898825 0.778043 0.212123
H16   H     H_    0.394192 0.104803 0.832035 0.181879
H17   H     H_    0.560124 0.121136 0.785687 0.217292
C31   C     C_R   0.549396 0.597881 0.073390 0.205821
N1    N     N_R   0.500790 0.500930 0.147930 -0.207108
C32   C     C_R   0.440180 0.410516 0.074283 -0.064426
H18   H     H_    0.393174 0.337087 0.129903 0.136064
C33   C     C_R   0.439871 0.410747 0.925378 -0.079356
H19   H     H_    0.392332 0.337781 0.869430 0.132581
N2    N     N_R   0.500790 0.500890 0.852020 -0.178902
C34   C     C_R   0.550489 0.596619 0.925608 0.209775
C35   C     C_3   0.680956 0.637953 0.917752 -0.536877
C36   C     C_3   0.680770 0.641177 0.077080 0.127725
H20   H     H_    0.741800 0.565245 0.875269 0.199172
H21   H     H_    0.690971 0.729133 0.865005 0.218009
H22   H     H_    0.744640 0.573008 0.126030 0.105413
C37   C     C_3   0.209388 0.933063 0.131428 -0.456515
C38   C     C_3   0.088183 0.004202 0.117266 -0.788544
H23   H     H_    0.038608 0.976444 0.019779 0.262894
H24   H     H_    0.028346 0.985779 0.209093 0.265501
H25   H     H_    0.107399 0.105263 0.112013 0.230269
H26   H     H_    0.257810 0.962142 0.228955 0.211117
H27   H     H_    0.269495 0.958078 0.041692 0.200699
N3    N     N_R   0.692942 0.767037 0.132799 0.139182
O9    O     O_R   0.639069 0.860546 0.070926 -0.432222
O10   O     O_R   0.762559 0.787185 0.242063 -0.392639

loop_
_geom_bond_atom_site_label_1
_geom_bond_atom_site_label_2
_geom_bond_distance
_ccdc_geom_bond_type
C35   H20   1.105189 S    
C21   H11   1.083571 S    
C18   H8    1.082899 S    
Cu1   Cu2   2.681705 S    
C20   C21   1.398148 A    
C24   C25   1.407288 A    
C23   C24   1.397874 A    
Cu1   O7    1.968484 S    
C5    C37   1.506775 S    
C19   H9    1.082717 S    
C13   C14   1.389493 A    
C18   C19   1.397646 A    
C38   H25   1.110872 S    
Cu2   N1    2.015121 S    
O4    C2    1.289087 A    
O7    C4    1.290986 A    
N3    O10   1.300047 A    
C35   H21   1.108652 S    
C32   C33   1.419317 A    
O5    C3    1.291718 A    
C33   N2    1.368654 A    
C6    C7    1.403061 A    
C23   C30   1.492394 S    
C7    C8    1.402795 A    
C5    C6    1.406022 A    
C4    C12   1.454717 S    
C29   H15   1.110032 S    
C11   C16   1.384532 A    
C26   C27   1.403568 A    
C35   C36   1.519243 S    
N1    C32   1.368628 A    
C5    C10   1.404980 A    
C21   C22   1.404124 A    
C36   N3    1.465262 S    
O3    Cu1   1.964863 S    
C7    C16   1.477876 S    
C29   H14   1.110192 S    
C17   H7    1.083169 S    
C25   C26   1.391778 A    
C28   C29   1.492012 S    
C17   C22   1.406195 A    
C38   H24   1.111229 S    
C20   H10   1.082485 S    
C30   H17   1.105168 S    
N3    O9    1.302412 A    
C27   C28   1.396217 A    
C11   H5    1.077919 S    
C1    C24   1.446310 S    
C32   H18   1.081430 S    
O1    C1    1.293708 A    
C14   H6    1.085394 S    
C31   C34   1.408908 A    
C15   C16   1.410024 A    
Cu2   O8    1.964864 S    
C33   H19   1.080763 S    
C6    H2    1.083900 S    
C23   C28   1.374554 A    
O3    C2    1.294414 A    
H1    C10   1.082006 S    
C8    C9    1.396380 A    
C9    C10   1.396636 A    
C37   H27   1.112135 S    
C29   C30   1.522663 S    
C30   H16   1.111864 S    
Cu1   O5    1.955705 S    
C25   H12   1.083442 S    
C26   H13   1.078121 S    
O1    Cu1   1.957250 S    
Cu2   O6    1.957250 S    
O2    Cu2   1.955707 S    
O8    C4    1.295377 A    
C38   H23   1.111617 S    
O6    C3    1.291821 A    
O4    Cu2   1.968484 S    
C11   C12   1.397950 A    
C13   C22   1.479734 S    
C36   H22   1.109098 S    
N2    C34   1.359303 A    
O2    C1    1.289380 A    
C31   N1    1.369971 A    
C37   C38   1.526682 S    
C14   C15   1.397586 A    
C37   H26   1.110035 S    
C17   C18   1.398130 A    
C2    C15   1.449626 S    
Cu1   N2    2.014575 S    
C3    C27   1.447004 S    
C31   C36   1.499205 S    
C8    H3    1.083381 S    
C19   C20   1.398186 A    
C34   C35   1.485599 S    
C12   C13   1.413508 A    
C9    H4    1.082383 S    
