data_mof_unit_10278.cif
_audit_creation_date              2012-12-10T16:56:35-0500
_audit_creation_method            fapswitch 2.2
_symmetry_space_group_name_H-M    P1
_symmetry_Int_Tables_number       1
_space_group_crystal_system       triclinic
_cell_length_a                    10.78776
_cell_length_b                    10.911064
_cell_length_c                    9.708975
_cell_angle_alpha                 90.414528
_cell_angle_beta                  89.679713
_cell_angle_gamma                 90.093615
_cell_volume                      1142.75481161

loop_
_atom_site_label
_atom_site_type_symbol
_atom_type_description
_atom_site_fract_x
_atom_site_fract_y
_atom_site_fract_z
_atom_type_partial_charge
C1    C     C_R   0.500182 0.265344 0.499704 0.836474
C2    C     C_3   0.878505 0.496530 0.496269 0.044562
C3    C     C_3   0.926431 0.631350 0.510141 0.075992
C4    C     C_3   0.933886 0.433495 0.361430 -0.185912
C5    C     C_2   0.517033 0.932457 0.387757 -0.184472
C6    C     C_2   0.515823 0.866532 0.503570 -0.329150
C7    C     C_2   0.525083 0.066409 0.389429 -0.168424
C8    C     C_2   0.496309 0.133139 0.501243 -0.323827
C9    C     C_2   0.437612 0.421561 0.921353 -0.143058
C10   C     C_2   0.431315 0.425356 0.077772 0.333940
C11   C     C_R   0.260252 0.497216 0.500469 0.783557
C12   C     C_R   0.504040 0.734590 0.500496 0.881680
C13   C     C_R   0.740091 0.495313 0.498942 0.793678
C14   C     C_3   0.070725 0.409843 0.613383 -0.400589
C15   C     C_3   0.928367 0.420251 0.619897 -0.422697
C16   C     C_3   0.071750 0.631384 0.517895 -0.161609
C17   C     C_3   0.076494 0.443949 0.361556 -0.449232
C18   C     C_3   0.122732 0.496882 0.501178 0.074110
Cu1   Cu    Cu3+1 0.500030 0.500020 0.638630 0.935088
Cu2   Cu    Cu3+1 0.499970 0.499980 0.361370 0.953964
H1    H     H_    0.112212 0.426044 0.715884 0.176189
H2    H     H_    0.102020 0.678515 0.421918 0.080773
H3    H     H_    0.898844 0.678190 0.414511 0.125729
H4    H     H_    0.513152 0.887589 0.287623 0.166623
H5    H     H_    0.527413 0.908262 0.604212 0.148675
H6    H     H_    0.552312 0.110883 0.294401 0.162596
H7    H     H_    0.467317 0.091975 0.597177 0.134931
H8    H     H_    0.386632 0.350011 0.868195 0.169974
H9    H     H_    0.536112 0.574142 0.894566 0.189551
H10   H     H_    0.096143 0.313571 0.587004 0.160966
H11   H     H_    0.560924 0.555648 0.105628 0.180243
H12   H     H_    0.887167 0.326632 0.618452 0.157737
H13   H     H_    0.901378 0.461905 0.719615 0.188289
H14   H     H_    0.110719 0.502305 0.276038 0.173008
H15   H     H_    0.117022 0.351377 0.342870 0.167069
H16   H     H_    0.912902 0.333927 0.372616 0.131273
N1    N     N_2   0.498630 0.498660 0.846910 -0.303390
N2    N     N_2   0.498590 0.498630 0.153040 -0.296523
O1    O     O_R   0.500020 0.321960 0.617040 -0.592169
O2    O     O_R   0.499980 0.321920 0.382900 -0.540118
O3    O     O_R   0.317710 0.500000 0.617070 -0.572205
O4    O     O_R   0.317670 0.499960 0.382930 -0.577216
O5    O     O_R   0.500020 0.678080 0.617100 -0.564306
O6    O     O_R   0.499980 0.678040 0.382960 -0.584945
O7    O     O_R   0.682330 0.500040 0.617070 -0.579754
O8    O     O_R   0.682290 0.500000 0.382930 -0.580184
C19   C     C_R   0.882830 0.471151 0.221109 0.168587
C20   C     C_R   0.909250 0.586041 0.161484 -0.140697
C21   C     C_R   0.861170 0.616498 0.033212 -0.176979
C22   C     C_R   0.789366 0.532006 0.960849 -0.191555
C23   C     C_R   0.766764 0.416076 0.015012 -0.139693
C24   C     C_R   0.812405 0.385872 0.144564 -0.102452
H17   H     H_    0.969951 0.651506 0.210611 0.094454
H18   H     H_    0.880850 0.705323 0.989134 0.133354
H19   H     H_    0.751356 0.556430 0.862484 0.164614
H20   H     H_    0.712158 0.350215 0.957527 0.139208
H21   H     H_    0.791879 0.295951 0.185395 0.096315
N3    N     N_2   0.346360 0.345598 0.144951 -0.355163
H22   H     H_    0.256371 0.376536 0.139572 0.230124
C25   C     C_3   0.356612 0.216847 0.109839 -0.732628
H23   H     H_    0.314100 0.161582 0.193268 0.235612
H24   H     H_    0.455317 0.189630 0.098040 0.224192
H25   H     H_    0.306591 0.196568 0.012571 0.194908
C26   C     C_R   0.128948 0.706085 0.636744 0.164507
C27   C     C_R   0.115060 0.673621 0.776545 -0.101733
C28   C     C_R   0.169538 0.743918 0.880808 -0.148461
C29   C     C_R   0.237714 0.848437 0.848012 -0.114723
C30   C     C_R   0.251447 0.882874 0.710798 -0.127079
C31   C     C_R   0.198577 0.812063 0.605890 -0.174771
H26   H     H_    0.059578 0.596575 0.807507 0.113217
H27   H     H_    0.157607 0.717898 0.987461 0.119308
H28   H     H_    0.279098 0.903279 0.928971 0.115611
H29   H     H_    0.303032 0.964759 0.685617 0.117734
H30   H     H_    0.211590 0.840972 0.500340 0.112274
N4    N     N_2   0.865079 0.697387 0.622756 -0.421119
H31   H     H_    0.880599 0.668849 0.721470 0.255507
C32   C     C_3   0.848207 0.828200 0.607499 -0.707791
H32   H     H_    0.938864 0.876143 0.609390 0.234831
H33   H     H_    0.789936 0.863625 0.693518 0.223520
H34   H     H_    0.800085 0.848337 0.509433 0.230077

loop_
_geom_bond_atom_site_label_1
_geom_bond_atom_site_label_2
_ccdc_geom_bond_type
C4    H16   S    
C11   C18   S    
C1    C8    S    
C14   C18   S    
C3    H3    S    
Cu1   Cu2   S    
C7    C8    D    
C32   H32   S    
C7    H6    S    
C25   H25   S    
C14   H1    S    
C10   N3    S    
C29   H28   S    
C12   O5    A    
C6    C12   S    
C5    C6    D    
Cu2   O2    S    
C6    H5    S    
N3    C25   S    
C21   H18   S    
C11   O4    A    
C25   H24   S    
C23   H20   S    
C2    C13   S    
Cu1   N1    S    
C1    O2    A    
C19   C20   A    
C30   C31   A    
C3    N4    S    
C9    C10   S    
C28   C29   A    
C14   H10   S    
Cu2   O6    S    
Cu1   O5    S    
C22   C23   A    
C32   H33   S    
C20   H17   S    
C29   C30   A    
C15   H12   S    
C5    C7    S    
N3    H22   S    
C23   C24   A    
C25   H23   S    
C2    C4    S    
N4    H31   S    
Cu2   N2    S    
C28   H27   S    
C9    N1    D    
C17   C18   S    
C31   H30   S    
C26   C31   A    
C2    C15   S    
N4    C32   S    
Cu1   O1    S    
C4    C17   S    
C20   C21   A    
C27   C28   A    
C17   H14   S    
C32   H34   S    
C16   H2    S    
Cu2   O4    S    
Cu1   O7    S    
C19   C24   A    
C17   H15   S    
C22   H19   S    
H11   N2    S    
C10   N2    D    
C26   C27   A    
C2    C3    S    
C30   H29   S    
C12   O6    A    
C13   O7    A    
C13   O8    A    
C5    H4    S    
C11   O3    A    
C24   H21   S    
C1    O1    A    
Cu1   O3    S    
C16   C18   S    
C21   C22   A    
H9    N1    S    
C8    H7    S    
C14   C15   S    
C16   C26   S    
C15   H13   S    
Cu2   O8    S    
C3    C16   S    
C27   H26   S    
C9    H8    S    
C4    C19   S    
