data_mof_unit_17682.cif
_audit_creation_date              2012-12-11T16:51:02-0500
_audit_creation_method            fapswitch 2.2
_symmetry_space_group_name_H-M    P1
_symmetry_Int_Tables_number       1
_space_group_crystal_system       triclinic
_cell_length_a                    24.313309
_cell_length_b                    17.054485
_cell_length_c                    15.583776
_cell_angle_alpha                 90.0
_cell_angle_beta                  128.781195
_cell_angle_gamma                 89.999978
_cell_volume                      5037.27632675

loop_
_atom_site_label
_atom_site_type_symbol
_atom_type_description
_atom_site_fract_x
_atom_site_fract_y
_atom_site_fract_z
_atom_type_partial_charge
C1    C     C_R   0.841353 0.869103 0.220678 0.245138
C2    C     C_R   0.158647 0.869103 0.779322 0.245138
C3    C     C_R   0.341353 0.369103 0.220678 0.245138
C4    C     C_R   0.658647 0.369103 0.779322 0.245138
C5    C     C_R   0.910551 0.143285 0.592732 -0.080678
C6    C     C_R   0.089449 0.143285 0.407268 -0.080678
C7    C     C_R   0.410551 0.643285 0.592732 -0.080678
C8    C     C_R   0.589449 0.643285 0.407268 -0.080678
C9    C     C_R   0.862449 0.189826 0.501674 0.096881
C10   C     C_R   0.137551 0.189826 0.498326 0.096882
C11   C     C_R   0.362449 0.689826 0.501674 0.096882
C12   C     C_R   0.637551 0.689826 0.498326 0.096882
C13   C     C_R   0.854273 0.127203 0.137097 0.121657
C14   C     C_R   0.145727 0.127203 0.862903 0.121657
C15   C     C_R   0.354273 0.627203 0.137097 0.121657
C16   C     C_R   0.645727 0.627203 0.862903 0.121657
C17   C     C_R   0.769325 0.849653 0.601191 0.059084
C18   C     C_R   0.230675 0.849653 0.398809 0.059083
C19   C     C_R   0.269325 0.349652 0.601191 0.059083
C20   C     C_R   0.730676 0.349653 0.398809 0.059082
C21   C     C_R   0.756487 0.869600 0.503039 -0.033539
C22   C     C_R   0.243513 0.869600 0.496961 -0.033539
C23   C     C_R   0.256487 0.369600 0.503039 -0.033539
C24   C     C_R   0.743513 0.369600 0.496961 -0.033538
C25   C     C_R   0.686959 0.859566 0.404942 -0.200834
C26   C     C_R   0.313040 0.859566 0.595058 -0.200834
C27   C     C_R   0.186960 0.359566 0.404942 -0.200834
C28   C     C_R   0.813040 0.359566 0.595058 -0.200834
C29   C     C_R   0.139728 0.310704 0.403565 0.321945
C30   C     C_R   0.860272 0.310704 0.596435 0.321944
C31   C     C_R   0.639728 0.810704 0.403565 0.321944
C32   C     C_R   0.360272 0.810704 0.596435 0.321944
C33   C     C_R   0.164785 0.267733 0.500026 -0.041216
C34   C     C_R   0.835215 0.267733 0.499974 -0.041216
C35   C     C_R   0.664785 0.767733 0.500026 -0.041216
C36   C     C_R   0.335215 0.767733 0.499974 -0.041216
C37   C     C_R   0.225452 0.297167 0.599120 0.069790
C38   C     C_R   0.774548 0.297168 0.400881 0.069789
C39   C     C_R   0.725452 0.797167 0.599119 0.069790
C40   C     C_R   0.274548 0.797167 0.400880 0.069790
C41   C     C_3   0.785137 0.759504 0.704210 -0.520135
C42   C     C_3   0.214863 0.759504 0.295790 -0.520136
C43   C     C_3   0.285137 0.259504 0.704210 -0.520136
C44   C     C_3   0.714864 0.259505 0.295790 -0.520134
C45   C     C_R   0.116812 0.902704 0.409572 -0.107530
C46   C     C_R   0.883188 0.902704 0.590428 -0.107530
C47   C     C_R   0.616812 0.402704 0.409572 -0.107528
C48   C     C_R   0.383188 0.402704 0.590428 -0.107531
C49   C     C_3   0.833001 0.819020 0.709150 0.253345
C50   C     C_3   0.166998 0.819020 0.290849 0.253345
C51   C     C_3   0.333001 0.319020 0.709150 0.253345
C52   C     C_3   0.666999 0.319020 0.290849 0.253345
C53   C     C_2   0.160166 0.760673 0.892037 0.434247
C54   C     C_2   0.839834 0.760673 0.107963 0.434248
C55   C     C_2   0.660166 0.260673 0.892037 0.434246
C56   C     C_2   0.339834 0.260673 0.107963 0.434248
C57   C     C_2   0.194727 0.708062 0.877038 -0.232377
C58   C     C_2   0.805273 0.708061 0.122962 -0.232377
C59   C     C_2   0.694727 0.208062 0.877038 -0.232376
C60   C     C_2   0.305273 0.208061 0.122962 -0.232377
C61   C     C_2   0.809004 0.156440 0.023841 -0.122207
C62   C     C_2   0.190996 0.156440 0.976159 -0.122206
C63   C     C_2   0.309004 0.656440 0.023841 -0.122206
C64   C     C_2   0.690996 0.656440 0.976159 -0.122206
C65   C     C_2   0.738993 0.148735 0.960615 -0.049653
C66   C     C_2   0.261007 0.148735 0.039385 -0.049653
C67   C     C_2   0.238993 0.648735 0.960615 -0.049653
C68   C     C_2   0.761007 0.648735 0.039385 -0.049653
C69   C     C_R   0.189244 0.899734 0.590024 -0.057782
C70   C     C_R   0.810756 0.899734 0.409976 -0.057782
C71   C     C_R   0.689244 0.399734 0.590024 -0.057782
C72   C     C_R   0.310756 0.399734 0.409976 -0.057781
C73   C     C_R   0.066742 0.868996 0.779226 0.332994
C74   C     C_R   0.933258 0.868996 0.220775 0.332994
C75   C     C_R   0.566742 0.368996 0.779226 0.332994
C76   C     C_R   0.433258 0.368996 0.220775 0.332994
C77   C     C_R   0.870403 0.830668 0.179060 -0.143467
C78   C     C_R   0.129596 0.830668 0.820941 -0.143467
C79   C     C_R   0.370404 0.330668 0.179060 -0.143468
C80   C     C_R   0.629596 0.330668 0.820941 -0.143466
C81   C     C_R   0.185133 0.886362 0.499098 0.028765
C82   C     C_R   0.814867 0.886362 0.500902 0.028765
C83   C     C_R   0.685133 0.386362 0.499098 0.028764
C84   C     C_R   0.314866 0.386362 0.500902 0.028765
C85   C     C_R   0.840442 0.145987 0.409509 -0.120390
C86   C     C_R   0.159558 0.145986 0.590491 -0.120390
C87   C     C_R   0.340442 0.645986 0.409509 -0.120390
C88   C     C_R   0.659558 0.645986 0.590491 -0.120390
C89   C     C_R   0.924624 0.107701 0.199215 -0.061671
C90   C     C_R   0.075376 0.107701 0.800785 -0.061671
C91   C     C_R   0.424624 0.607701 0.199215 -0.061671
C92   C     C_R   0.575376 0.607701 0.800785 -0.061671
C93   C     C_R   0.166681 0.107255 0.801259 -0.095796
C94   C     C_R   0.833319 0.107255 0.198741 -0.095797
C95   C     C_R   0.666681 0.607255 0.801259 -0.095796
C96   C     C_R   0.333319 0.607255 0.198741 -0.095796
H1    H     H_    0.779215 0.766864 0.768539 0.267075
H2    H     H_    0.220785 0.766864 0.231461 0.267075
H3    H     H_    0.279215 0.266864 0.768539 0.267075
H4    H     H_    0.720785 0.266865 0.231461 0.267074
H5    H     H_    0.220092 0.105099 0.829282 0.132459
H6    H     H_    0.779908 0.105099 0.170718 0.132459
H7    H     H_    0.720092 0.605099 0.829282 0.132459
H8    H     H_    0.279908 0.605099 0.170718 0.132459
N1    N     N_R   0.888400 0.921830 0.294620 -0.089484
N2    N     N_R   0.111600 0.921830 0.705380 -0.089484
N3    N     N_R   0.388400 0.421830 0.294620 -0.089484
N4    N     N_R   0.611600 0.421830 0.705380 -0.089484
N5    N     N_R   0.079940 0.922160 0.443410 -0.052959
N6    N     N_R   0.920060 0.922160 0.556590 -0.052959
N7    N     N_R   0.579940 0.422160 0.443410 -0.052959
N8    N     N_R   0.420060 0.422160 0.556590 -0.052959
N9    N     N_R   0.125650 0.922400 0.556620 -0.051634
N10   N     N_R   0.874350 0.922400 0.443380 -0.051634
N11   N     N_R   0.625650 0.422400 0.556620 -0.051634
N12   N     N_R   0.374350 0.422400 0.443380 -0.051634
N13   N     N_R   0.054230 0.922730 0.705400 -0.104347
N14   N     N_R   0.945770 0.922730 0.294600 -0.104347
N15   N     N_R   0.554230 0.422730 0.705400 -0.104347
N16   N     N_R   0.445770 0.422730 0.294600 -0.104347
N17   N     N_R   0.873790 0.077030 0.443380 -0.048522
N18   N     N_R   0.126210 0.077030 0.556620 -0.048522
N19   N     N_R   0.373790 0.577030 0.443380 -0.048522
N20   N     N_R   0.626210 0.577030 0.556620 -0.048522
N21   N     N_R   0.945200 0.076700 0.294600 -0.054780
N22   N     N_R   0.054800 0.076700 0.705400 -0.054780
N23   N     N_R   0.445200 0.576700 0.294600 -0.054780
N24   N     N_R   0.554800 0.576700 0.705400 -0.054780
N25   N     N_R   0.111030 0.077600 0.705380 -0.051142
N26   N     N_R   0.888970 0.077600 0.294620 -0.051142
N27   N     N_R   0.611030 0.577600 0.705380 -0.051142
N28   N     N_R   0.388970 0.577600 0.294620 -0.051142
N29   N     N_R   0.919490 0.077280 0.556590 -0.054679
N30   N     N_R   0.080510 0.077280 0.443410 -0.054679
N31   N     N_R   0.419490 0.577280 0.556590 -0.054679
N32   N     N_R   0.580510 0.577280 0.443410 -0.054679
Ni1   Ni    Ni4+2 0.882160 0.999430 0.370180 0.245773
Ni2   Ni    Ni4+2 0.117840 0.999430 0.629820 0.245773
Ni3   Ni    Ni4+2 0.382160 0.499430 0.370180 0.245773
Ni4   Ni    Ni4+2 0.617840 0.499430 0.629820 0.245773
Ni5   Ni    Ni4+2 0.012460 0.999430 0.370180 0.250778
Ni6   Ni    Ni4+2 0.987540 0.999430 0.629820 0.250777
Ni7   Ni    Ni4+2 0.512460 0.499430 0.370180 0.250777
Ni8   Ni    Ni4+2 0.487540 0.499430 0.629820 0.250778
Br1   Br    Br    0.742008 0.873185 0.145808 -0.552420
Br2   Br    Br    0.257992 0.873185 0.854192 -0.552420
Br3   Br    Br    0.242008 0.373185 0.145809 -0.552420
Br4   Br    Br    0.757992 0.373185 0.854192 -0.552421
Br5   Br    Br    0.044372 0.306584 0.269079 -0.498538
Br6   Br    Br    0.955628 0.306583 0.730922 -0.498538
Br7   Br    Br    0.544371 0.806584 0.269079 -0.498538
Br8   Br    Br    0.455628 0.806584 0.730920 -0.498538
H9    H     H_    0.796304 0.698755 0.692972 0.185569
H10   H     H_    0.203697 0.698755 0.307028 0.185569
H11   H     H_    0.296303 0.198755 0.692972 0.185569
H12   H     H_    0.703697 0.198756 0.307026 0.185569
Br9   Br    Br    0.868172 0.895814 0.825368 -0.340281
Br10  Br    Br    0.131828 0.895814 0.174632 -0.340281
Br11  Br    Br    0.368172 0.395814 0.825368 -0.340281
Br12  Br    Br    0.631828 0.395815 0.174632 -0.340282
H13   H     H_    0.873063 0.791617 0.705781 0.124403
H14   H     H_    0.126937 0.791617 0.294219 0.124404
H15   H     H_    0.373063 0.291617 0.705781 0.124403
H16   H     H_    0.626937 0.291617 0.294218 0.124404
H17   H     H_    0.715236 0.111654 0.986055 0.175760
H18   H     H_    0.284764 0.111654 0.013945 0.175760
H19   H     H_    0.215236 0.611654 0.986055 0.175760
H20   H     H_    0.784764 0.611654 0.013945 0.175760
H21   H     H_    0.198764 0.715652 0.811934 0.166598
H22   H     H_    0.801236 0.715652 0.188066 0.166598
H23   H     H_    0.698764 0.215652 0.811935 0.166598
H24   H     H_    0.301236 0.215651 0.188066 0.166598
H25   H     H_    0.832521 0.193777 0.998037 0.189236
H26   H     H_    0.167479 0.193778 0.001963 0.189236
H27   H     H_    0.332521 0.693777 0.998037 0.189235
H28   H     H_    0.667479 0.693778 0.001963 0.189236
Br13  Br    Br    0.155551 0.747550 0.010018 -0.454779
Br14  Br    Br    0.844449 0.747550 0.989981 -0.454779
Br15  Br    Br    0.655550 0.247549 0.010018 -0.454778
Br16  Br    Br    0.344449 0.247551 0.989981 -0.454779
H29   H     H_    0.101489 0.919503 0.330954 0.173733
H30   H     H_    0.898511 0.919503 0.669046 0.173733
H31   H     H_    0.601489 0.419503 0.330954 0.173732
H32   H     H_    0.398511 0.419503 0.669046 0.173733
H33   H     H_    0.237708 0.909450 0.671274 0.159014
H34   H     H_    0.762292 0.909450 0.328726 0.159014
H35   H     H_    0.737708 0.409450 0.671274 0.159014
H36   H     H_    0.262292 0.409450 0.328726 0.159014
Br17  Br    Br    0.020910 0.865735 0.843149 -0.412625
Br18  Br    Br    0.979090 0.865734 0.156852 -0.412626
Br19  Br    Br    0.520910 0.365735 0.843149 -0.412625
Br20  Br    Br    0.479090 0.365733 0.156852 -0.412626
H37   H     H_    0.805675 0.164317 0.325071 0.127589
H38   H     H_    0.194325 0.164317 0.674929 0.127589
H39   H     H_    0.305675 0.664317 0.325071 0.127589
H40   H     H_    0.694325 0.664317 0.674929 0.127589
H41   H     H_    0.954801 0.105111 0.169877 0.137073
H42   H     H_    0.045199 0.105111 0.830123 0.137073
H43   H     H_    0.454801 0.605111 0.169877 0.137073
H44   H     H_    0.545199 0.605111 0.830123 0.137073
H45   H     H_    0.936809 0.155362 0.677988 0.153793
H46   H     H_    0.063191 0.155363 0.322012 0.153793
H47   H     H_    0.436809 0.655363 0.677988 0.153793
H48   H     H_    0.563191 0.655363 0.322012 0.153793
H49   H     H_    0.670721 0.883650 0.328009 0.180768
H50   H     H_    0.329279 0.883649 0.671991 0.180768
H51   H     H_    0.170721 0.383650 0.328009 0.180768
H52   H     H_    0.829279 0.383649 0.671992 0.180768

loop_
_geom_bond_atom_site_label_1
_geom_bond_atom_site_label_2
_ccdc_geom_bond_type
C25   C31   A    
C69   H33   S    
C87   N19   A    
C26   C32   A    
C55   C59   D    
C8    N32   A    
C15   C91   A    
C1    C77   A    
C88   H40   S    
C35   C39   A    
C76   C79   A    
C88   N20   A    
N14   Ni5   S    
C3    C79   A    
C45   H29   S    
C39   C41   S    
C89   N21   A    
C70   N10   A    
N28   Ni3   S    
C7    C11   A    
C4    N4    A    
C69   N9    A    
N29   Ni6   S    
C94   N26   A    
C56   C79   S    
C91   N23   A    
C76   Br20  S    
C32   C36   A    
C11   C36   S    
C42   H10   S    
C24   C83   S    
C43   H3    S    
C4    C80   A    
N32   Ni7   S    
C42   H2    S    
C54   C58   D    
C45   N5    A    
C30   Br6   S    
C50   H14   S    
C14   C62   S    
N19   Ni3   S    
C31   Br7   S    
C27   C29   A    
C17   C39   A    
N10   Ni1   S    
N17   Ni1   S    
N6    Ni6   S    
C18   C40   A    
N23   N28   A    
C72   H36   S    
C7    H47   S    
N27   Ni4   S    
C19   C37   A    
C9    C85   A    
C74   Br18  S    
C1    Br1   S    
N21   N26   A    
C71   C83   A    
N18   N30   A    
N25   Ni2   S    
C20   C24   A    
C29   C33   A    
N21   Ni5   S    
C74   C77   A    
C86   N18   A    
C73   C78   A    
C51   H15   S    
C59   H23   S    
C47   C83   A    
C64   H28   S    
C75   C80   A    
N6    N10   A    
C14   C93   A    
C49   H13   S    
N5    N9    A    
C96   N28   A    
C54   C77   S    
C91   H43   S    
C44   C52   S    
C40   C42   S    
C60   C66   S    
C46   C82   A    
C95   N27   A    
N15   Ni8   S    
C51   Br11  S    
N4    N15   A    
C49   Br9   S    
C26   H50   S    
N16   Ni7   S    
C57   C67   S    
C25   H49   S    
C75   Br19  S    
C92   N24   A    
C41   C49   S    
C95   H7    S    
C41   H9    S    
C69   C81   A    
C74   N14   A    
C63   C67   D    
C73   N13   A    
C23   C84   S    
C30   C34   A    
C60   H24   S    
C22   C81   S    
C36   C40   A    
C62   C66   D    
C75   N15   A    
N18   Ni2   S    
C47   H31   S    
C11   C87   A    
C15   C96   A    
C48   H32   S    
C66   H18   S    
C34   C38   A    
N20   N32   A    
N23   Ni7   S    
N22   N25   A    
C3    N3    A    
C14   C90   A    
C29   Br5   S    
C2    N2    A    
N12   Ni3   S    
C33   C37   A    
C54   Br14  S    
N19   N31   A    
C4    Br4   S    
C44   H12   S    
C37   C43   S    
C19   C23   A    
C38   C44   S    
C2    C78   A    
C61   C65   D    
C13   C61   S    
C20   C38   A    
C63   H27   S    
C32   Br8   S    
C8    H48   S    
C8    C12   A    
C12   C88   A    
C93   N25   A    
C90   N22   A    
C71   N11   A    
C76   N16   A    
N11   Ni4   S    
C12   C35   S    
C85   N17   A    
N24   Ni8   S    
C72   C84   A    
C42   C50   S    
C5    N29   A    
C68   H20   S    
C58   C68   S    
N31   Ni8   S    
C48   N8    A    
C52   H16   S    
C16   C92   A    
C23   C27   A    
C46   N6    A    
N2    N13   A    
C9    C34   S    
C28   H52   S    
C41   H1    S    
N1    N14   A    
C2    Br2   S    
C93   H5    S    
N24   N27   A    
C64   C68   D    
N3    N16   A    
N8    N12   A    
C18   C50   S    
N4    Ni4   S    
C56   Br16  S    
C67   H19   S    
C50   Br10  S    
C21   C25   A    
C10   C86   A    
C16   C95   A    
C53   C57   D    
C58   H22   S    
C18   C22   A    
C55   Br15  S    
N20   Ni4   S    
C45   C81   A    
C24   C28   A    
C71   H35   S    
C53   Br13  S    
C6    C10   A    
N5    Ni5   S    
C6    H46   S    
C90   H42   S    
N7    Ni7   S    
C13   C89   A    
C89   H41   S    
C72   N12   A    
C73   Br17  S    
C13   C94   A    
N8    Ni8   S    
C96   H8    S    
N13   Ni6   S    
C87   H39   S    
C6    N30   A    
C3    Br3   S    
C59   C65   S    
N30   Ni5   S    
C5    H45   S    
C55   C80   S    
C44   H4    S    
C46   H30   S    
C43   C51   S    
C19   C51   S    
C47   N7    A    
C17   C49   S    
C28   C30   A    
N22   Ni6   S    
C53   C78   S    
C10   C33   S    
C31   C35   A    
C85   H37   S    
N3    Ni3   S    
C57   H21   S    
C70   C82   A    
C17   C21   A    
N2    Ni2   S    
C43   H11   S    
C70   H34   S    
N1    Ni1   S    
C48   C84   A    
C65   H17   S    
C56   C60   D    
C21   C82   S    
C94   H6    S    
C27   H51   S    
C20   C52   S    
C22   C26   A    
C61   H25   S    
C15   C63   S    
N9    Ni2   S    
N7    N11   A    
C5    C9    A    
C16   C64   S    
N17   N29   A    
C92   H44   S    
N26   Ni1   S    
C52   Br12  S    
C86   H38   S    
C7    N31   A    
C1    N1    A    
C62   H26   S    
