data_mof_unit_20180.cif
_audit_creation_date              2012-12-10T17:35:46-0500
_audit_creation_method            fapswitch 2.2
_symmetry_space_group_name_H-M    P1
_symmetry_Int_Tables_number       1
_space_group_crystal_system       triclinic
_cell_length_a                    10.50821
_cell_length_b                    11.972989
_cell_length_c                    12.826544
_cell_angle_alpha                 96.249088
_cell_angle_beta                  89.02863
_cell_angle_gamma                 86.40535
_cell_volume                      1600.56270636

loop_
_atom_site_label
_atom_site_type_symbol
_atom_type_description
_atom_site_fract_x
_atom_site_fract_y
_atom_site_fract_z
_atom_type_partial_charge
C1    C     C_R   0.494010 0.525247 0.701447 0.954798
C2    C     C_R   0.506793 0.474605 0.298693 0.922329
C3    C     C_R   0.434996 0.462959 0.870575 0.366527
C4    C     C_R   0.573637 0.534903 0.130538 0.303513
C5    C     C_R   0.473345 0.454682 0.973294 -0.044609
C6    C     C_R   0.538626 0.542203 0.026701 -0.049171
C7    C     C_R   0.356143 0.953853 0.430681 -0.292280
C8    C     C_R   0.643891 0.046137 0.569225 -0.291205
C9    C     C_R   0.373312 0.837438 0.433552 0.105807
C10   C     C_R   0.626557 0.162571 0.566604 0.141926
C11   C     C_R   0.566044 0.858484 0.525508 0.006479
C12   C     C_R   0.434084 0.141497 0.474295 -0.007328
C13   C     C_R   0.553381 0.975927 0.523896 0.078774
C14   C     C_R   0.446725 0.024050 0.475919 0.078399
C15   C     C_R   0.742463 0.500041 0.498617 0.979281
C16   C     C_R   0.257536 0.499795 0.500113 0.991354
C17   C     C_3   0.954495 0.491598 0.596566 -0.339952
C18   C     C_3   0.045482 0.508596 0.400944 -0.336128
C19   C     C_3   0.031994 0.587121 0.563496 0.526387
C20   C     C_3   0.967953 0.413068 0.433940 0.474574
C21   C     C_3   0.122850 0.500011 0.500231 -0.186622
C22   C     C_3   0.877107 0.500031 0.497311 -0.155490
C23   C     C_3   0.047338 0.403108 0.532256 -0.215577
C24   C     C_3   0.952480 0.596907 0.465188 -0.164771
C25   C     C_R   0.519686 0.452585 0.185133 -0.175654
C26   C     C_R   0.486044 0.546223 0.815387 -0.201609
C27   C     C_R   0.562936 0.637257 0.976850 -0.131367
C28   C     C_R   0.451241 0.358674 0.022342 -0.103077
C29   C     C_R   0.542198 0.639860 0.869982 0.028288
C30   C     C_R   0.468124 0.357116 0.129645 0.024671
H1    H     H_    0.913657 0.485772 0.676056 0.191028
H2    H     H_    0.086202 0.514602 0.321454 0.184431
H3    H     H_    0.088975 0.323657 0.558586 0.222830
H4    H     H_    0.910633 0.676224 0.438733 0.220208
H5    H     H_    0.599705 0.708844 0.021579 0.188132
H6    H     H_    0.418191 0.285938 0.976645 0.202814
H7    H     H_    0.354155 0.180128 0.436204 0.133853
H8    H     H_    0.646047 0.819845 0.563497 0.132855
H9    H     H_    0.696628 0.216928 0.601063 0.144121
H10   H     H_    0.303121 0.783096 0.399276 0.147666
H11   H     H_    0.272551 0.988482 0.394273 0.176095
H12   H     H_    0.727539 0.011531 0.605549 0.166880
N1    N     N_R   0.523490 0.207800 0.519350 -0.102046
N2    N     N_R   0.476510 0.792200 0.480650 -0.100307
O1    O     O_R   0.506270 0.421700 0.658830 -0.570555
O2    O     O_R   0.493730 0.578300 0.341170 -0.598149
O3    O     O_R   0.491200 0.609310 0.646410 -0.635286
O4    O     O_R   0.508800 0.390690 0.353590 -0.636791
O5    O     O_R   0.693580 0.406210 0.506230 -0.611349
O6    O     O_R   0.306420 0.593790 0.493770 -0.604547
O7    O     O_R   0.678510 0.593830 0.493810 -0.608884
O8    O     O_R   0.321490 0.406170 0.506190 -0.603317
Zn1   Zn    Zn3+2 0.510060 0.374730 0.508290 1.032013
Zn2   Zn    Zn3+2 0.489940 0.625270 0.491710 1.023168
S1    S     S_3+6 0.072387 0.707363 0.648341 0.022300
O9    O     O_2   0.184989 0.677900 0.712964 -0.289965
O10   O     O_2   0.104437 0.799408 0.583418 -0.302426
O11   O     O_3   0.946420 0.751549 0.727997 -0.583771
H13   H     H_    0.974489 0.817784 0.772726 0.391182
S2    S     S_3+6 0.926780 0.294333 0.347598 0.061682
O12   O     O_2   0.869131 0.210534 0.410320 -0.269998
O13   O     O_2   0.832268 0.330218 0.269202 -0.251751
O14   O     O_3   0.058950 0.233565 0.284226 -0.546250
H14   H     H_    0.092176 0.292694 0.244842 0.347297
S3    S     S_3+6 0.692936 0.621017 0.188934 0.056203
O15   O     O_2   0.757107 0.564859 0.274759 -0.262578
O16   O     O_2   0.792982 0.638114 0.108014 -0.263873
O17   O     O_3   0.626856 0.747535 0.239482 -0.520708
H15   H     H_    0.538991 0.751751 0.212821 0.318905
S4    S     S_3+6 0.314172 0.377001 0.815094 0.029731
O18   O     O_2   0.374481 0.265737 0.766971 -0.283585
O19   O     O_2   0.219148 0.355987 0.898747 -0.318573
O20   O     O_3   0.235953 0.440333 0.722491 -0.541255
H16   H     H_    0.153061 0.469644 0.755733 0.389670
C31   C     C_3   0.429939 0.256669 0.184912 -0.369180
C32   C     C_3   0.382680 0.155755 0.114753 -0.364256
C33   C     C_3   0.352821 0.060275 0.179078 -0.828837
H17   H     H_    0.439437 0.030727 0.219255 0.263731
H18   H     H_    0.276377 0.089271 0.238391 0.286142
H19   H     H_    0.319658 0.988528 0.126541 0.263988
H20   H     H_    0.294301 0.182130 0.075008 0.263440
H21   H     H_    0.457452 0.123077 0.054822 0.235193
H22   H     H_    0.514866 0.224660 0.225882 0.253892
H23   H     H_    0.353020 0.286458 0.243865 0.203436
C34   C     C_3   0.580544 0.739793 0.814095 -0.355682
C35   C     C_3   0.632794 0.839113 0.883183 -0.354284
C36   C     C_3   0.661764 0.934567 0.818567 -0.838483
H24   H     H_    0.734502 0.904565 0.756425 0.274234
H25   H     H_    0.573694 0.966513 0.781842 0.269488
H26   H     H_    0.699415 0.004867 0.870200 0.267576
H27   H     H_    0.561121 0.872635 0.945385 0.228481
H28   H     H_    0.722435 0.810739 0.920064 0.265932
H29   H     H_    0.654608 0.708870 0.752994 0.225308
H30   H     H_    0.494649 0.773771 0.775639 0.244514

loop_
_geom_bond_atom_site_label_1
_geom_bond_atom_site_label_2
_ccdc_geom_bond_type
S1    O9    D    
C16   C21   S    
C27   C29   A    
C18   C21   S    
O20   H16   S    
C36   H24   S    
C31   H22   S    
C4    C25   A    
C15   C22   S    
C33   H17   S    
C2    O2    A    
O6    Zn2   S    
S2    O14   S    
C18   C24   S    
C19   C21   S    
C8    H12   S    
C12   N1    A    
C35   H27   S    
C4    S3    S    
C31   H23   S    
C23   H3    S    
S2    O13   D    
C12   H7    S    
C34   H29   S    
N1    Zn1   S    
C7    C14   A    
O17   H15   S    
S3    O16   D    
S4    O18   D    
C15   O7    A    
C20   S2    S    
C29   C34   S    
C15   O5    A    
O1    Zn1   S    
C13   C14   A    
C33   H18   S    
O4    Zn1   S    
C3    S4    S    
C32   C33   S    
C4    C6    A    
C32   H21   S    
C35   C36   S    
C1    O3    A    
C27   H5    S    
O11   H13   S    
C34   C35   S    
C9    H10   S    
C24   H4    S    
S2    O12   D    
C11   H8    S    
C31   C32   S    
C5    C28   A    
C34   H30   S    
C6    C27   A    
C20   C23   S    
S3    O17   S    
O2    Zn2   S    
S4    O20   S    
C11   N2    A    
C17   C23   S    
O3    Zn2   S    
C20   C22   S    
S1    O10   D    
C1    C26   S    
C17   H1    S    
C22   C24   S    
S1    O11   S    
C18   H2    S    
O8    Zn1   S    
C33   H19   S    
C19   S1    S    
C25   C30   A    
C7    C9    A    
C9    N2    A    
C10   N1    A    
C3    C26   A    
C16   O8    A    
C16   O6    A    
C3    C5    A    
C32   H20   S    
C17   C22   S    
O7    Zn2   S    
C2    O4    A    
C21   C23   S    
C19   C24   S    
C12   C14   A    
C35   H28   S    
C30   C31   S    
C11   C13   A    
C1    O1    A    
C5    C6    A    
O5    Zn1   S    
C28   C30   A    
C17   C19   S    
C2    C25   S    
C18   C20   S    
C7    H11   S    
O14   H14   S    
C8    C13   A    
N2    Zn2   S    
C28   H6    S    
C26   C29   A    
C8    C10   A    
S3    O15   D    
C36   H26   S    
C36   H25   S    
C10   H9    S    
S4    O19   D    
