data_mof_unit_13303.cif
_audit_creation_date              2012-12-11T15:26:06-0500
_audit_creation_method            fapswitch 2.2
_symmetry_space_group_name_H-M    P1
_symmetry_Int_Tables_number       1
_space_group_crystal_system       triclinic
_cell_length_a                    24.603859
_cell_length_b                    17.167841
_cell_length_c                    15.572865
_cell_angle_alpha                 90.065451
_cell_angle_beta                  51.051335
_cell_angle_gamma                 90.226756
_cell_volume                      5115.64951895

loop_
_atom_site_label
_atom_site_type_symbol
_atom_type_description
_atom_site_fract_x
_atom_site_fract_y
_atom_site_fract_z
_atom_type_partial_charge
C1    C     C_R   0.341168 0.127391 0.782919 -0.176600
C2    C     C_2   0.329635 0.792621 0.929437 0.166070
C3    C     C_2   0.338591 0.230806 0.899836 0.180468
C4    C     C_2   0.673793 0.789888 0.074223 0.172337
C5    C     C_2   0.144827 0.754584 0.150462 0.167738
C6    C     C_2   0.854884 0.246984 0.862715 0.173249
C7    C     C_2   0.857903 0.751551 0.857069 0.171326
C8    C     C_2   0.185322 0.324297 0.037912 0.170979
C9    C     C_2   0.760177 0.151040 0.960664 -0.181334
C10   C     C_2   0.261358 0.807945 0.003632 -0.229630
C11   C     C_2   0.302363 0.281275 0.886972 -0.184069
C12   C     C_R   0.657889 0.870977 0.221528 -0.159173
C13   C     C_2   0.742672 0.804177 0.005882 -0.231286
C14   C     C_2   0.212991 0.745217 0.068404 -0.243098
C15   C     C_2   0.808314 0.202310 0.866266 -0.236668
C16   C     C_2   0.791272 0.741128 0.945481 -0.250752
C17   C     C_2   0.254732 0.336706 0.972893 -0.253144
C18   C     C_R   0.591304 0.143007 0.590991 -0.123241
C19   C     C_R   0.409540 0.857000 0.407936 -0.124309
C20   C     C_R   0.411573 0.143534 0.406784 -0.127107
C21   C     C_R   0.614578 0.898621 0.592427 -0.126732
C22   C     C_R   0.114848 0.602251 0.592181 -0.135227
C23   C     C_R   0.665995 0.109035 0.199123 -0.172434
C24   C     C_R   0.886266 0.395591 0.407112 -0.124763
C25   C     C_R   0.900071 0.632970 0.407765 -0.130193
C26   C     C_R   0.114574 0.396112 0.591774 -0.136997
C27   C     C_R   0.663488 0.143227 0.406814 -0.125183
C28   C     C_R   0.334819 0.857920 0.591986 -0.118984
C29   C     C_R   0.334749 0.141659 0.590904 -0.120871
C30   C     C_R   0.688432 0.899346 0.408823 -0.124401
C31   C     C_R   0.188611 0.601420 0.409064 -0.135242
C32   C     C_R   0.811926 0.396686 0.590712 -0.135217
C33   C     C_R   0.825574 0.631729 0.591533 -0.127899
C34   C     C_R   0.340566 0.875043 0.786522 -0.165778
C35   C     C_R   0.187861 0.396041 0.408146 -0.122118
C36   C     C_R   0.575632 0.108999 0.199307 -0.121245
C37   C     C_R   0.433178 0.874646 0.782673 -0.128948
C38   C     C_R   0.431245 0.126795 0.783885 -0.120273
C39   C     C_R   0.570327 0.876152 0.212998 -0.145010
C40   C     C_R   0.058850 0.642123 0.242669 -0.134966
C41   C     C_R   0.940377 0.360303 0.761574 -0.126978
C42   C     C_R   0.944656 0.641853 0.754051 -0.140270
C43   C     C_R   0.072850 0.383722 0.205522 -0.129977
C44   C     C_R   0.368868 0.163221 0.827171 0.073496
C45   C     C_R   0.852446 0.642278 0.757397 -0.151292
C46   C     C_R   0.633139 0.840685 0.169486 0.108831
C47   C     C_R   0.645317 0.129385 0.137467 0.069977
C48   C     C_R   0.368228 0.842700 0.833262 0.103827
C49   C     C_R   0.887733 0.684411 0.784752 0.097427
C50   C     C_R   0.141129 0.358849 0.148204 0.087416
C51   C     C_R   0.112263 0.687322 0.222637 0.099784
C52   C     C_R   0.881343 0.318394 0.795638 0.081289
C53   C     C_R   0.641134 0.187033 0.498329 0.042162
C54   C     C_R   0.358300 0.813698 0.500133 0.038581
C55   C     C_R   0.359464 0.186199 0.498537 0.040421
C56   C     C_R   0.163392 0.382933 0.206688 -0.159957
C57   C     C_R   0.683183 0.885736 0.500973 0.046812
C58   C     C_R   0.183468 0.616464 0.500935 0.050599
C59   C     C_R   0.817759 0.380475 0.498263 0.044876
C60   C     C_R   0.845210 0.672402 0.499680 0.044960
C61   C     C_R   0.182738 0.380232 0.499891 0.045700
C62   C     C_R   0.272040 0.291454 0.598035 -0.166773
C63   C     C_R   0.803231 0.839634 0.400925 -0.167206
C64   C     C_R   0.730681 0.290554 0.396798 -0.168431
C65   C     C_R   0.270755 0.707899 0.600758 -0.165719
C66   C     C_R   0.762080 0.780479 0.600572 -0.165911
C67   C     C_R   0.144355 0.645585 0.255257 -0.162442
C68   C     C_R   0.304986 0.337700 0.398616 -0.169067
C69   C     C_R   0.306262 0.657399 0.401093 -0.166987
C70   C     C_R   0.694636 0.341347 0.596788 -0.169314
C71   C     C_R   0.723433 0.838566 0.601034 -0.168674
C72   C     C_R   0.349904 0.289316 0.398135 -0.166275
C73   C     C_R   0.350574 0.707337 0.400840 -0.168185
C74   C     C_R   0.649423 0.293403 0.596684 -0.165332
C75   C     C_R   0.226793 0.339476 0.598614 -0.167497
C76   C     C_R   0.841490 0.781067 0.400355 -0.168234
C77   C     C_R   0.775895 0.338515 0.396805 -0.168263
C78   C     C_R   0.849487 0.359246 0.760801 -0.155359
C79   C     C_R   0.226310 0.658141 0.601075 -0.170731
C80   C     C_R   0.739208 0.860711 0.501127 0.138664
C81   C     C_R   0.329505 0.259154 0.498072 0.143609
C82   C     C_R   0.328742 0.739743 0.500575 0.143623
C83   C     C_R   0.671344 0.260607 0.497098 0.142696
C84   C     C_R   0.239793 0.356025 0.499075 0.140764
C85   C     C_R   0.816413 0.745765 0.500170 0.150093
C86   C     C_R   0.761233 0.357028 0.497136 0.140348
C87   C     C_R   0.240413 0.639836 0.501137 0.140483
C88   C     C_3   0.429318 0.699599 0.843435 -0.917481
C89   C     C_2   0.690321 0.159892 0.023973 0.173411
C90   C     C_3   0.645096 0.166475 0.924379 -0.946062
C91   C     C_3   0.571183 0.703945 0.145626 -0.937930
C92   C     C_3   0.401939 0.285606 0.956726 -0.950483
C93   C     C_3   0.837734 0.276630 0.030263 -0.943900
C94   C     C_3   0.036299 0.831594 0.267940 -0.900254
C95   C     C_3   0.129754 0.200245 0.063210 -0.926735
C96   C     C_3   0.962643 0.832063 0.723976 -0.903115
H1    H     H_    0.288599 0.133812 0.811283 0.099523
H2    H     H_    0.436230 0.842519 0.322895 0.091197
H3    H     H_    0.441240 0.158916 0.321016 0.095053
H4    H     H_    0.593389 0.902220 0.677625 0.084008
H5    H     H_    0.094141 0.597743 0.677066 0.082153
H6    H     H_    0.907670 0.398894 0.321785 0.085529
H7    H     H_    0.921216 0.641567 0.323538 0.082910
H8    H     H_    0.094246 0.400008 0.676516 0.085093
H9    H     H_    0.703209 0.157810 0.321075 0.094349
H10   H     H_    0.292146 0.844726 0.676753 0.089112
H11   H     H_    0.290583 0.154026 0.674916 0.085143
H12   H     H_    0.708070 0.861308 0.201746 0.101996
H13   H     H_    0.735382 0.903829 0.324021 0.082668
H14   H     H_    0.235852 0.596069 0.324692 0.081890
H15   H     H_    0.764551 0.401174 0.675092 0.086736
H16   H     H_    0.778526 0.638667 0.675212 0.082995
H17   H     H_    0.234726 0.399935 0.323200 0.083538
H18   H     H_    0.545895 0.106806 0.169881 0.101954
H19   H     H_    0.465737 0.869417 0.806712 0.099539
H20   H     H_    0.461209 0.133334 0.812274 0.100194
H21   H     H_    0.542897 0.874572 0.179694 0.097047
H22   H     H_    0.030226 0.653724 0.213163 0.092176
H23   H     H_    0.718793 0.107644 0.171156 0.092296
H24   H     H_    0.976714 0.345778 0.776062 0.113764
H25   H     H_    0.981124 0.655792 0.768557 0.102436
H26   H     H_    0.042573 0.382285 0.176953 0.104957
H27   H     H_    0.257831 0.274101 0.676552 0.099787
H28   H     H_    0.819794 0.860493 0.322263 0.106594
H29   H     H_    0.746551 0.271016 0.318030 0.113418
H30   H     H_    0.255373 0.726921 0.679415 0.109839
H31   H     H_    0.745410 0.759150 0.679133 0.109393
H32   H     H_    0.318930 0.353601 0.319891 0.107604
H33   H     H_    0.321039 0.639881 0.322315 0.106473
H34   H     H_    0.287288 0.870350 0.817157 0.094009
H35   H     H_    0.679568 0.359128 0.675664 0.108745
H36   H     H_    0.677049 0.858525 0.679890 0.108295
H37   H     H_    0.396536 0.269828 0.319250 0.111285
H38   H     H_    0.397949 0.726069 0.322023 0.113845
H39   H     H_    0.601075 0.276230 0.675342 0.108201
H40   H     H_    0.179015 0.356949 0.677523 0.106919
H41   H     H_    0.886853 0.759846 0.321432 0.103334
H42   H     H_    0.824923 0.353919 0.318067 0.109320
H43   H     H_    0.178014 0.641224 0.679910 0.106313
H44   H     H_    0.241006 0.864127 0.004084 0.129828
H45   H     H_    0.801916 0.656176 0.781831 0.094138
H46   H     H_    0.781941 0.113710 0.988186 0.117271
H47   H     H_    0.762791 0.860260 0.007229 0.128056
H48   H     H_    0.300311 0.274287 0.819688 0.121641
H49   H     H_    0.796327 0.214750 0.811498 0.140534
H50   H     H_    0.234800 0.686804 0.050934 0.146555
H51   H     H_    0.276901 0.376955 0.997323 0.141990
H52   H     H_    0.769933 0.682155 0.968128 0.146715
H53   H     H_    0.343852 0.709720 0.012582 0.164194
H54   H     H_    0.437537 0.638242 0.855163 0.246419
H55   H     H_    0.467980 0.736531 0.839366 0.240131
H56   H     H_    0.215462 0.379858 0.181649 0.093181
H57   H     H_    0.437507 0.703063 0.764787 0.264954
H58   H     H_    0.682825 0.260443 0.957453 0.170724
H59   H     H_    0.694764 0.148252 0.844172 0.254692
H60   H     H_    0.616759 0.205738 0.908008 0.247105
H61   H     H_    0.611977 0.114288 0.969048 0.252474
H62   H     H_    0.667650 0.702993 0.986013 0.165616
H63   H     H_    0.560605 0.643430 0.134372 0.249818
H64   H     H_    0.541468 0.744174 0.133198 0.235210
H65   H     H_    0.553267 0.708962 0.231040 0.265981
H66   H     H_    0.297638 0.252574 0.061711 0.177393
H67   H     H_    0.190148 0.662291 0.246105 0.109335
H68   H     H_    0.394907 0.346979 0.942962 0.250886
H69   H     H_    0.451944 0.263156 0.880874 0.250748
H70   H     H_    0.404851 0.284027 0.025022 0.247495
H71   H     H_    0.878137 0.172900 0.942019 0.165674
H72   H     H_    0.781089 0.262039 0.085852 0.252707
H73   H     H_    0.844862 0.339867 0.010701 0.260458
H74   H     H_    0.858992 0.263554 0.073872 0.242262
H75   H     H_    0.124328 0.859106 0.107200 0.163295
H76   H     H_    0.018458 0.892934 0.281552 0.248970
H77   H     H_    0.026086 0.810448 0.344325 0.262990
H78   H     H_    0.801369 0.345130 0.775677 0.095996
H79   H     H_    0.006142 0.796343 0.250891 0.233678
H80   H     H_    0.181350 0.269083 0.921976 0.162274
H81   H     H_    0.104054 0.166831 0.036356 0.243432
H82   H     H_    0.090893 0.209413 0.153803 0.261657
H83   H     H_    0.174357 0.165747 0.043933 0.250092
H84   H     H_    0.880640 0.860279 0.888153 0.162252
H85   H     H_    0.978997 0.894174 0.706157 0.246471
H86   H     H_    0.967491 0.808209 0.653087 0.262924
H87   H     H_    0.997805 0.800245 0.733466 0.239719
H88   H     H_    0.567179 0.156673 0.675259 0.085907
N1    N     N_R   0.388930 0.078160 0.705470 -0.033602
N2    N     N_R   0.419500 0.922160 0.443350 -0.040930
N3    N     N_R   0.419500 0.077840 0.443350 -0.042038
N4    N     N_R   0.580500 0.922160 0.556650 -0.039375
N5    N     N_R   0.080500 0.577840 0.556650 -0.035568
N6    N     N_R   0.919500 0.422160 0.443350 -0.039285
N7    N     N_R   0.919500 0.577840 0.443350 -0.036458
N8    N     N_R   0.080500 0.422160 0.556650 -0.038273
N9    N     N_R   0.626210 0.077590 0.443410 -0.039524
N10   N     N_R   0.373790 0.922410 0.556590 -0.040195
N11   N     N_R   0.373790 0.077590 0.556590 -0.039263
N12   N     N_R   0.611070 0.921840 0.294530 -0.038347
N13   N     N_R   0.626210 0.922410 0.443410 -0.038152
N14   N     N_R   0.126210 0.577590 0.443410 -0.035165
N15   N     N_R   0.873790 0.422410 0.556590 -0.037724
N16   N     N_R   0.873790 0.577590 0.556590 -0.035556
N17   N     N_R   0.126210 0.422410 0.443410 -0.036220
N18   N     N_R   0.554800 0.077270 0.294580 -0.041863
N19   N     N_R   0.445200 0.922730 0.705420 -0.042110
N20   N     N_R   0.445200 0.077270 0.705420 -0.041478
N21   N     N_R   0.554800 0.922730 0.294580 -0.039535
N22   N     N_R   0.054800 0.577270 0.294580 -0.041259
N23   N     N_R   0.611070 0.078160 0.294530 -0.034332
N24   N     N_R   0.945200 0.422730 0.705420 -0.045271
N25   N     N_R   0.945200 0.577270 0.705420 -0.042337
N26   N     N_R   0.054800 0.422730 0.294580 -0.043344
N27   N     N_2   0.358987 0.722752 0.935599 -0.107030
N28   N     N_2   0.659137 0.207019 0.990070 -0.105464
N29   N     N_2   0.645335 0.719885 0.065538 -0.101904
N30   N     N_2   0.343817 0.238189 0.985701 -0.104440
N31   N     N_2   0.874376 0.231045 0.930119 -0.105617
N32   N     N_2   0.110170 0.827886 0.175067 -0.100710
N33   N     N_2   0.154405 0.274122 0.005782 -0.106987
N34   N     N_R   0.388930 0.921840 0.705470 -0.037534
N35   N     N_2   0.891047 0.826574 0.824537 -0.099656
N36   N     N_R   0.888930 0.578160 0.705470 -0.040155
N37   N     N_R   0.111070 0.421840 0.294530 -0.037614
N38   N     N_R   0.111070 0.578160 0.294530 -0.041434
N39   N     N_R   0.888930 0.421840 0.705470 -0.039058
N40   N     N_R   0.580500 0.077840 0.556650 -0.040694
Ni1   Ni    Ni4+2 0.382710 0.000000 0.629850 0.215468
Ni2   Ni    Ni4+2 0.617290 0.000000 0.370150 0.208831
Ni3   Ni    Ni4+2 0.882710 0.500000 0.629850 0.213082
Ni4   Ni    Ni4+2 0.117290 0.500000 0.370150 0.207998
Ni5   Ni    Ni4+2 0.513020 0.000000 0.629850 0.211132
Ni6   Ni    Ni4+2 0.486980 0.000000 0.370150 0.211437
Ni7   Ni    Ni4+2 0.013020 0.500000 0.629850 0.208070
Ni8   Ni    Ni4+2 0.986980 0.500000 0.370150 0.209725

loop_
_geom_bond_atom_site_label_1
_geom_bond_atom_site_label_2
_ccdc_geom_bond_type
N5    N14   A    
N8    Ni7   S    
C40   H22   S    
C65   C79   A    
C32   H15   S    
C16   H52   S    
C93   N31   S    
C47   C89   S    
C64   C77   A    
C79   H43   S    
H71   N31   S    
C96   H85   S    
C36   H18   S    
C58   C87   S    
C66   C85   A    
C79   C87   A    
C63   H28   S    
C65   C82   A    
C4    C46   S    
C76   H41   S    
C3    N30   S    
C38   C44   A    
C20   H3    S    
N37   Ni4   S    
C93   H73   S    
C2    N27   S    
C4    C13   D    
C22   H5    S    
C36   N18   A    
C31   C58   A    
N5    Ni7   S    
C26   C61   A    
N22   N38   A    
N9    Ni2   S    
C32   N15   A    
C19   N2    A    
C23   H23   S    
C56   N37   A    
N39   Ni3   S    
C75   C84   A    
C63   C76   A    
C27   H9    S    
C30   C57   A    
C1    H1    S    
N12   N21   A    
C66   H31   S    
C36   C47   A    
N25   Ni7   S    
N20   Ni5   S    
C43   N26   A    
C62   H27   S    
H58   N28   S    
C8    N33   S    
C95   H82   S    
C18   C53   A    
C94   H76   S    
C6    C15   D    
N3    Ni6   S    
C92   H69   S    
C95   H81   S    
N9    N40   A    
C6    N31   S    
C93   H72   S    
C28   H10   S    
N7    Ni8   S    
C88   N27   S    
C70   C74   A    
C28   N10   A    
N8    N17   A    
C69   C73   A    
C27   N9    A    
C25   C60   A    
C18   H88   S    
C55   C81   S    
C18   N40   A    
C11   H48   S    
C74   C83   A    
N34   Ni1   S    
C91   H63   S    
C72   C81   A    
C69   C87   A    
C96   N35   S    
C94   H79   S    
N18   Ni6   S    
N3    N11   A    
N13   Ni2   S    
C92   H68   S    
C42   C49   A    
C71   H36   S    
C12   H12   S    
N26   N37   A    
C38   N20   A    
C45   H45   S    
C12   N12   A    
C57   C80   S    
N21   Ni6   S    
C10   H44   S    
C20   C55   A    
C52   C78   A    
C71   C80   A    
C19   H2    S    
N14   Ni4   S    
N6    N15   A    
C89   N28   S    
N12   Ni2   S    
C63   C80   A    
C3    C44   S    
C40   N22   A    
C93   H74   S    
C23   C47   A    
N11   Ni1   S    
C30   H13   S    
N22   Ni8   S    
C68   C84   A    
N7    N16   A    
C7    C49   S    
N6    Ni8   S    
C12   C46   A    
C25   N7    A    
C9    C89   D    
C15   H49   S    
C21   H4    S    
C28   C54   A    
C75   H40   S    
C35   N17   A    
C29   C55   A    
C33   N16   A    
C2    C48   S    
C76   C85   A    
C29   N11   A    
C5    N32   S    
C50   C56   A    
N36   Ni3   S    
C37   C48   A    
N16   Ni3   S    
C67   N38   A    
C64   C83   A    
C21   C57   A    
C92   H70   S    
C38   H20   S    
N24   Ni7   S    
C25   H7    S    
C1    C44   A    
C66   C71   A    
N38   Ni4   S    
C68   C72   A    
N1    Ni1   S    
C74   H39   S    
C34   N34   A    
C45   C49   A    
C37   N19   A    
C35   C61   A    
C33   H16   S    
C51   C67   A    
C77   H42   S    
C22   N5    A    
C92   N30   S    
C43   H26   S    
C5    C14   D    
C42   N25   A    
C39   C46   A    
N2    Ni6   S    
H75   N32   S    
C19   C54   A    
C95   H83   S    
C7    C16   D    
C62   C81   A    
C77   C86   A    
C33   C60   A    
N18   N23   A    
C10   C14   S    
C88   H55   S    
C62   C75   A    
C56   H56   S    
C23   N23   A    
C96   H87   S    
C90   H60   S    
N4    Ni5   S    
C70   C86   A    
C8    C50   S    
C73   C82   A    
C54   C82   S    
N1    N20   A    
C21   N4    A    
N19   Ni5   S    
H66   N30   S    
N10   Ni1   S    
C68   H32   S    
C11   C17   S    
C26   N8    A    
C4    N29   S    
C41   C52   A    
N19   N34   A    
C17   H51   S    
N25   N36   A    
C88   H54   S    
N2    N10   A    
C91   H65   S    
H53   N27   S    
C96   H86   S    
C61   C84   S    
C22   C58   A    
C9    H46   S    
C27   C53   A    
C43   C50   A    
C37   H19   S    
C78   N39   A    
C1    N1    A    
C40   C51   A    
C14   H50   S    
C94   N32   S    
C8    C17   D    
C53   C83   S    
H80   N33   S    
C88   H57   S    
C90   H61   S    
C9    C15   S    
C59   C86   S    
C7    N35   S    
C91   N29   S    
C39   H21   S    
N40   Ni5   S    
C65   H30   S    
C20   N3    A    
C90   N28   S    
C91   H64   S    
C72   H37   S    
C42   H25   S    
N17   Ni4   S    
H62   N29   S    
N4    N13   A    
C41   N24   A    
C24   C59   A    
C39   N21   A    
C70   H35   S    
C95   N33   S    
C31   H14   S    
C35   H17   S    
C24   H6    S    
C13   H47   S    
C41   H24   S    
C26   H8    S    
C3    C11   D    
C94   H77   S    
C60   C85   S    
C67   H67   S    
C30   N13   A    
C34   C48   A    
C73   H38   S    
C34   H34   S    
C69   H33   S    
C64   H29   S    
C13   C16   S    
C78   H78   S    
C45   N36   A    
N26   Ni8   S    
C29   H11   S    
H84   N35   S    
C24   N6    A    
C32   C59   A    
C6    C52   S    
C90   H59   S    
N15   Ni3   S    
N24   N39   A    
C31   N14   A    
N23   Ni2   S    
C5    C51   S    
C2    C10   D    
