data_mof_unit_35936.cif
_audit_creation_date              2012-10-26T21:05:39-0400
_audit_creation_method            fapswitch 2.2
_symmetry_space_group_name_H-M    P1
_symmetry_Int_Tables_number       1
_space_group_crystal_system       triclinic
_cell_length_a                    12.996086
_cell_length_b                    9.120537
_cell_length_c                    7.793553
_cell_angle_alpha                 89.800206
_cell_angle_beta                  96.679652
_cell_angle_gamma                 89.081598
_cell_volume                      917.378053409

loop_
_atom_site_label
_atom_site_type_symbol
_atom_type_description
_atom_site_fract_x
_atom_site_fract_y
_atom_site_fract_z
_atom_type_partial_charge
C1    C     C_R   0.500060 0.220014 0.500194 0.550123
C2    C     C_R   0.869907 0.446732 0.708025 -0.126991
C3    C     C_R   0.136369 0.475218 0.591096 -0.137117
C4    C     C_R   0.863631 0.524779 0.408903 -0.137106
C5    C     C_R   0.028821 0.479318 0.579095 0.000690
C6    C     C_R   0.971179 0.520678 0.420904 0.000695
C7    C     C_1   0.500019 0.065323 0.500253 -0.058179
C8    C     C_1   0.499981 0.934677 0.499747 -0.058179
C9    C     C_3   0.963259 0.742055 0.088835 0.006601
C10   C     C_3   0.871083 0.779740 0.954719 -0.243280
C11   C     C_3   0.863724 0.943278 0.914188 -0.492931
C12   C     C_R   0.499940 0.779986 0.499806 0.550123
C13   C     C_3   0.036748 0.257938 0.911152 0.006605
C14   C     C_3   0.128891 0.220267 0.045341 -0.243267
C15   C     C_3   0.136267 0.056723 0.085837 -0.492929
C16   C     C_R   0.299940 0.503439 0.467415 0.540416
C17   C     C_R   0.700060 0.496561 0.532585 0.540413
C18   C     C_R   0.812864 0.489539 0.551564 -0.072934
C19   C     C_R   0.187136 0.510460 0.448435 -0.072932
C20   C     C_R   0.021835 0.559228 0.277739 0.266195
C21   C     C_R   0.978165 0.440768 0.722260 0.266199
C22   C     C_R   0.130093 0.553267 0.291975 -0.126996
Cu1   Cu    Cu3+1 0.500010 0.500000 0.669080 1.007135
Cu2   Cu    Cu3+1 0.499990 0.500000 0.330920 1.007133
H1    H     H_    0.818874 0.557984 0.288614 0.178922
H2    H     H_    0.793671 0.966811 0.821836 0.156964
H3    H     H_    0.932859 0.977098 0.853746 0.135024
H4    H     H_    0.045467 0.193399 0.791934 0.112763
H5    H     H_    0.963863 0.227468 0.963113 0.146166
H6    H     H_    0.201729 0.255273 0.996426 0.174544
H7    H     H_    0.120481 0.279691 0.166817 0.185054
H8    H     H_    0.067117 0.022867 0.146213 0.135017
H9    H     H_    0.206303 0.033202 0.178236 0.156957
H10   H     H_    0.141989 0.992713 0.966228 0.146981
H11   H     H_    0.181126 0.442013 0.711385 0.178923
H12   H     H_    0.830967 0.420258 0.819483 0.154986
H13   H     H_    0.169033 0.579741 0.180517 0.154985
H14   H     H_    0.036126 0.772502 0.036803 0.146192
H15   H     H_    0.954585 0.806609 0.208058 0.112754
H16   H     H_    0.879436 0.720289 0.833243 0.185065
H17   H     H_    0.798261 0.744776 0.003717 0.174526
H18   H     H_    0.858048 0.007311 0.033793 0.146975
N1    N     N_1   0.499980 0.500000 0.076820 -0.086627
N2    N     N_1   0.500020 0.500000 0.923180 -0.086626
O1    O     O_R   0.500000 0.288400 0.642760 -0.496828
O2    O     O_3   0.035300 0.410324 0.879636 -0.539453
O3    O     O_R   0.500000 0.711600 0.357240 -0.496828
O4    O     O_R   0.500000 0.288400 0.357240 -0.494899
O5    O     O_R   0.500000 0.711600 0.642760 -0.494900
O6    O     O_R   0.349000 0.500000 0.619590 -0.505858
O7    O     O_R   0.651000 0.500000 0.380410 -0.505859
O8    O     O_R   0.348990 0.500000 0.334020 -0.507477
O9    O     O_R   0.651010 0.500000 0.665980 -0.507476
O10   O     O_3   0.964698 0.589672 0.120364 -0.539452

loop_
_geom_bond_atom_site_label_1
_geom_bond_atom_site_label_2
_ccdc_geom_bond_type
Cu2   O8    S    
N1    N2    T    
C13   H4    S    
C3    C19   A    
Cu1   O1    S    
C11   H3    S    
C2    C18   A    
C6    C20   A    
C9    C10   S    
C15   H10   S    
C3    H11   S    
C14   H7    S    
C8    C12   S    
C4    C18   A    
C17   O7    A    
C2    C21   A    
C17   C18   S    
C15   H8    S    
C1    O4    A    
C21   O2    S    
C13   C14   S    
C10   H17   S    
C22   H13   S    
C1    O1    A    
C5    C6    A    
C14   H6    S    
C16   C19   S    
Cu1   O9    S    
C10   H16   S    
C9    H14   S    
C16   O6    A    
C4    H1    S    
C12   O3    A    
C13   O2    S    
Cu1   O5    S    
C12   O5    A    
C10   C11   S    
C13   H5    S    
Cu1   Cu2   S    
Cu2   O4    S    
C17   O9    A    
C7    C8    T    
C19   C22   A    
C5    C21   A    
C11   H18   S    
C20   O10   S    
C4    C6    A    
C2    H12   S    
Cu2   N1    S    
C14   C15   S    
Cu2   O7    S    
Cu1   O6    S    
C9    O10   S    
C11   H2    S    
C1    C7    S    
Cu2   O3    S    
C15   H9    S    
C9    H15   S    
Cu1   N2    S    
C16   O8    A    
C20   C22   A    
C3    C5    A    
