data_mof_unit_47007.cif
_audit_creation_date              2012-12-10T18:09:28-0500
_audit_creation_method            fapswitch 2.2
_symmetry_space_group_name_H-M    P1
_symmetry_Int_Tables_number       1
_space_group_crystal_system       triclinic
_cell_length_a                    15.197307
_cell_length_b                    15.35473
_cell_length_c                    9.578734
_cell_angle_alpha                 90.782275
_cell_angle_beta                  89.618786
_cell_angle_gamma                 89.763489
_cell_volume                      2234.92511267

loop_
_atom_site_label
_atom_site_type_symbol
_atom_type_description
_atom_site_fract_x
_atom_site_fract_y
_atom_site_fract_z
_atom_type_partial_charge
C1    C     C_R   0.118953 0.379603 0.498958 0.850487
C2    C     C_R   0.121610 0.618213 0.500468 0.901845
C3    C     C_R   0.616389 0.877218 0.499312 0.862813
C4    C     C_R   0.619089 0.120875 0.500321 0.884734
C5    C     C_3   0.069218 0.560497 0.084277 0.660130
C6    C     C_3   0.067088 0.562424 0.915806 0.651093
C7    C     C_3   0.594052 0.002186 0.076278 0.662910
C8    C     C_3   0.588420 0.028364 0.916954 0.669185
C9    C     C_R   0.879408 0.381028 0.499284 0.894045
C10   C     C_R   0.879393 0.619453 0.501304 0.907492
C11   C     C_R   0.384426 0.876158 0.499526 0.870356
C12   C     C_R   0.379320 0.119376 0.500968 0.884587
C13   C     C_3   0.853635 0.218288 0.491189 0.613915
C14   C     C_3   0.743483 0.324028 0.370790 0.619561
C15   C     C_3   0.752573 0.687991 0.645775 0.603397
C16   C     C_3   0.849130 0.781431 0.479322 0.614857
C17   C     C_3   0.301273 0.768949 0.652763 0.616489
C18   C     C_3   0.343082 0.724727 0.397106 0.612061
C19   C     C_3   0.235021 0.171273 0.616609 0.624008
C20   C     C_3   0.351519 0.281971 0.526451 0.621128
C21   C     C_3   0.238545 0.690842 0.645281 -0.324362
C22   C     C_3   0.266082 0.658511 0.394624 -0.334325
C23   C     C_3   0.158938 0.237392 0.598697 -0.356612
C24   C     C_3   0.276025 0.349609 0.545655 -0.361492
C25   C     C_3   0.779872 0.149596 0.470083 -0.356721
C26   C     C_3   0.666441 0.259000 0.386857 -0.340309
C27   C     C_3   0.672644 0.749805 0.630742 -0.354455
C28   C     C_3   0.776051 0.850869 0.502026 -0.372527
C29   C     C_3   0.753325 0.318626 0.633192 -0.434870
C30   C     C_3   0.741783 0.669428 0.384276 -0.420843
C31   C     C_3   0.229626 0.841365 0.445225 -0.429032
C32   C     C_3   0.261862 0.190129 0.357712 -0.435057
C33   C     C_3   0.810131 0.312049 0.496553 -0.157948
C34   C     C_3   0.808735 0.688124 0.504622 -0.170496
C35   C     C_3   0.318124 0.803798 0.499245 -0.165966
C36   C     C_3   0.309500 0.188877 0.502927 -0.150947
C37   C     C_3   0.193625 0.684366 0.501192 -0.185945
C38   C     C_3   0.186944 0.310278 0.497859 -0.117170
C39   C     C_3   0.687772 0.190631 0.499684 -0.156117
C40   C     C_3   0.684178 0.807563 0.499905 -0.124018
C41   C     C_3   0.155488 0.774633 0.463807 -0.295888
C42   C     C_3   0.198478 0.268292 0.350512 -0.341465
C43   C     C_3   0.691558 0.239890 0.641813 -0.291689
C44   C     C_3   0.677785 0.746705 0.369949 -0.326859
C45   C     C_3   0.914616 0.526434 0.084411 -0.265071
C46   C     C_3   0.913483 0.521892 0.919064 -0.236808
C47   C     C_3   0.018491 0.411636 0.080824 -0.250830
C48   C     C_3   0.021784 0.412293 0.915024 -0.273038
C49   C     C_3   0.446837 0.071826 0.084194 -0.297694
C50   C     C_3   0.434231 0.060941 0.919695 -0.212090
C51   C     C_3   0.461104 0.919736 0.081753 -0.215224
C52   C     C_3   0.476674 0.913932 0.916770 -0.262735
Cu1   Cu    Cu3+1 0.000100 0.500000 0.642410 1.044571
Cu2   Cu    Cu3+1 0.000100 0.500000 0.357590 1.046779
Cu3   Cu    Cu3+1 0.500100 0.000000 0.642410 1.057270
Cu4   Cu    Cu3+1 0.500100 0.000000 0.357590 1.018190
H1    H     H_    0.274991 0.629054 0.663199 0.244748
H2    H     H_    0.289783 0.591077 0.414197 0.212932
H3    H     H_    0.138146 0.265135 0.701676 0.221071
H4    H     H_    0.270072 0.370031 0.657314 0.240015
H5    H     H_    0.782165 0.123737 0.361638 0.263149
H6    H     H_    0.651343 0.227675 0.284955 0.266033
H7    H     H_    0.664018 0.790003 0.727347 0.249852
H8    H     H_    0.784570 0.885086 0.604132 0.249676
H9    H     H_    0.189459 0.697708 0.729670 0.286524
H10   H     H_    0.235551 0.657949 0.290225 0.285714
H11   H     H_    0.099541 0.204775 0.555727 0.255472
H12   H     H_    0.290500 0.409776 0.486259 0.209630
H13   H     H_    0.790582 0.092737 0.538907 0.218178
H14   H     H_    0.605119 0.293820 0.418747 0.249221
H15   H     H_    0.610512 0.712197 0.620038 0.251251
H16   H     H_    0.780294 0.901969 0.420888 0.223998
H17   H     H_    0.794228 0.320942 0.728993 0.255395
H18   H     H_    0.713885 0.379707 0.635826 0.269864
H19   H     H_    0.703312 0.610060 0.406327 0.280973
H20   H     H_    0.774887 0.657224 0.282027 0.250126
H21   H     H_    0.211600 0.902069 0.501642 0.273807
H22   H     H_    0.234783 0.859483 0.333555 0.247411
H23   H     H_    0.224694 0.128737 0.340352 0.233746
H24   H     H_    0.308927 0.194150 0.268770 0.245271
H25   H     H_    0.112262 0.797389 0.550515 0.281509
H26   H     H_    0.115383 0.771477 0.367580 0.271109
H27   H     H_    0.134038 0.245923 0.309043 0.234052
H28   H     H_    0.225105 0.317186 0.276706 0.250085
H29   H     H_    0.718631 0.195194 0.720858 0.293130
H30   H     H_    0.624907 0.262324 0.675159 0.269262
H31   H     H_    0.609670 0.722584 0.355390 0.253918
H32   H     H_    0.696439 0.782650 0.275303 0.286796
H33   H     H_    0.896528 0.593440 0.118865 0.237244
H34   H     H_    0.889504 0.584240 0.879875 0.271489
H35   H     H_    0.080695 0.383512 0.120292 0.213491
H36   H     H_    0.087364 0.388684 0.879568 0.223356
H37   H     H_    0.476861 0.135779 0.110506 0.240857
H38   H     H_    0.436453 0.125608 0.870285 0.279682
H39   H     H_    0.487745 0.860874 0.132059 0.262643
H40   H     H_    0.527371 0.864136 0.889377 0.234533
H41   H     H_    0.861774 0.484176 0.126446 0.236585
H42   H     H_    0.863769 0.473305 0.884268 0.209331
H43   H     H_    0.966726 0.365619 0.115244 0.245312
H44   H     H_    0.974619 0.363308 0.873406 0.218955
H45   H     H_    0.380320 0.072389 0.132859 0.200909
H46   H     H_    0.366668 0.036451 0.898321 0.236629
H47   H     H_    0.389034 0.918975 0.103693 0.225315
H48   H     H_    0.414666 0.891211 0.870375 0.269612
N1    N     N_3   0.001260 0.500000 0.143650 -0.228084
N2    N     N_3   0.001260 0.500000 0.856350 -0.231539
N3    N     N_3   0.501260 0.000000 0.143650 -0.242571
N4    N     N_3   0.501260 0.000000 0.856350 -0.253313
O1    O     O_R   0.091250 0.408820 0.620260 -0.578404
O2    O     O_R   0.091250 0.408820 0.379740 -0.570242
O3    O     O_R   0.091250 0.591180 0.620260 -0.521797
O4    O     O_R   0.091250 0.591180 0.379740 -0.521294
O5    O     O_R   0.591250 0.908820 0.620260 -0.558697
O6    O     O_R   0.591250 0.908820 0.379740 -0.541424
O7    O     O_R   0.591250 0.091180 0.620260 -0.521870
O8    O     O_R   0.591250 0.091180 0.379740 -0.541792
O9    O     O_R   0.908940 0.408800 0.620260 -0.588344
O10   O     O_R   0.908940 0.408800 0.379740 -0.542049
O11   O     O_R   0.908940 0.591200 0.620260 -0.525752
O12   O     O_R   0.908940 0.591200 0.379740 -0.566312
O13   O     O_R   0.408940 0.908800 0.620260 -0.545953
O14   O     O_R   0.408940 0.908800 0.379740 -0.576428
O15   O     O_R   0.408940 0.091200 0.620260 -0.531333
O16   O     O_R   0.408940 0.091200 0.379740 -0.601786
Cl1   Cl    Cl    0.911551 0.195539 0.650207 -0.535156
Cl2   Cl    Cl    0.699131 0.432480 0.367908 -0.542472
Cl3   Cl    Cl    0.713190 0.580772 0.686087 -0.541370
Cl4   Cl    Cl    0.892655 0.791391 0.305255 -0.441827
Cl5   Cl    Cl    0.251159 0.851246 0.764853 -0.471638
Cl6   Cl    Cl    0.360600 0.756028 0.219619 -0.530683
Cl7   Cl    Cl    0.191426 0.063539 0.600295 -0.521106
Cl8   Cl    Cl    0.418873 0.312491 0.379768 -0.540871
Cl9   Cl    Cl    0.936187 0.204964 0.357263 -0.521633
Cl10  Cl    Cl    0.791717 0.307467 0.200447 -0.490207
Cl11  Cl    Cl    0.811742 0.724285 0.797388 -0.426321
Cl12  Cl    Cl    0.939990 0.806821 0.590183 -0.448008
Cl13  Cl    Cl    0.399231 0.734543 0.741682 -0.497047
Cl14  Cl    Cl    0.442931 0.670482 0.443792 -0.517591
Cl15  Cl    Cl    0.271087 0.180141 0.794054 -0.549526
Cl16  Cl    Cl    0.424990 0.288812 0.672400 -0.487076
Cl17  Cl    Cl    0.052343 0.670671 0.150962 -0.441345
Cl18  Cl    Cl    0.039401 0.671019 0.854151 -0.399738
Cl19  Cl    Cl    0.176170 0.526087 0.147504 -0.521728
Cl20  Cl    Cl    0.175345 0.534944 0.846491 -0.530848
Cl21  Cl    Cl    0.676698 0.069894 0.151832 -0.453020
Cl22  Cl    Cl    0.601540 0.145992 0.901633 -0.538852
Cl23  Cl    Cl    0.650265 0.898317 0.092989 -0.518519
Cl24  Cl    Cl    0.683298 0.987307 0.823688 -0.447595

loop_
_geom_bond_atom_site_label_1
_geom_bond_atom_site_label_2
_ccdc_geom_bond_type
C16   C28   S    
C9    C33   S    
Cu3   Cu4   S    
Cu3   O13   S    
Cu2   O12   S    
C9    O9    A    
C4    O7    A    
C30   C44   S    
C14   C33   S    
C7    C8    S    
C49   N3    S    
C5    N1    S    
C45   C46   S    
C23   H3    S    
C2    O4    A    
C32   C36   S    
C38   C42   S    
C19   C36   S    
C49   H45   S    
C5    C6    S    
Cu1   O9    S    
C26   C39   S    
C5    Cl19  S    
C29   H17   S    
C28   C40   S    
C51   H47   S    
C29   C33   S    
C47   H43   S    
Cu2   O2    S    
C23   H11   S    
C18   Cl14  S    
C22   H10   S    
C10   O11   A    
C16   C34   S    
C15   C27   S    
Cu1   N2    S    
C48   N2    S    
C20   C24   S    
C47   N1    S    
C24   C38   S    
C12   C36   S    
C44   H31   S    
C45   H33   S    
C18   C35   S    
C15   C34   S    
C13   Cl1   S    
Cu1   O3    S    
C46   H42   S    
C15   Cl3   S    
C29   C43   S    
C50   N4    S    
C9    O10   A    
C13   C25   S    
C11   O13   A    
C47   H35   S    
C20   Cl8   S    
C8    N4    S    
C45   N1    S    
C31   H21   S    
C7    Cl23  S    
C19   Cl7   S    
C48   H44   S    
Cu3   O15   S    
C2    O3    A    
C30   C34   S    
C17   Cl5   S    
C51   C52   S    
C43   H29   S    
C42   H28   S    
C3    O5    A    
C50   H38   S    
C1    O1    A    
C29   H18   S    
Cu3   O5    S    
Cu1   Cu2   S    
C22   C37   S    
C17   C21   S    
Cu4   O14   S    
C19   C23   S    
Cu4   N3    S    
C21   H1    S    
C1    O2    A    
C32   H24   S    
C30   H20   S    
C5    Cl17  S    
C47   C48   S    
C12   O16   A    
C4    C39   S    
C27   C40   S    
C24   H4    S    
C41   H25   S    
Cu4   O8    S    
C21   C37   S    
C10   C34   S    
C25   H5    S    
C14   C26   S    
C6    N2    S    
C27   H7    S    
C1    C38   S    
C28   H8    S    
C51   N3    S    
C3    C40   S    
C50   H46   S    
Cu2   O10   S    
C26   H14   S    
C49   C50   S    
C7    N3    S    
C18   Cl6   S    
C11   O14   A    
C6    Cl18  S    
C6    Cl20  S    
C16   Cl12  S    
Cu4   O16   S    
C27   H15   S    
C31   H22   S    
C25   H13   S    
Cu1   O1    S    
C52   H48   S    
Cu4   O6    S    
C31   C41   S    
Cu2   N1    S    
C21   H9    S    
C18   C22   S    
C43   H30   S    
C13   Cl9   S    
C4    O8    A    
C8    Cl22  S    
C42   H27   S    
C3    O6    A    
C22   H2    S    
C39   C43   S    
Cu1   O11   S    
C46   H34   S    
C23   C38   S    
C14   Cl10  S    
C14   Cl2   S    
Cu3   N4    S    
C20   Cl16  S    
C11   C35   S    
C26   H6    S    
C45   H41   S    
C28   H16   S    
C32   H23   S    
C30   H19   S    
C2    C37   S    
C12   O15   A    
Cu3   O7    S    
C41   H26   S    
C46   N2    S    
C8    Cl24  S    
C52   H40   S    
C31   C35   S    
C16   Cl4   S    
C37   C41   S    
C10   O12   A    
C24   H12   S    
C20   C36   S    
C40   C44   S    
C15   Cl11  S    
C52   N4    S    
C19   Cl15  S    
C13   C33   S    
C48   H36   S    
C32   C42   S    
Cu2   O4    S    
C17   Cl13  S    
C17   C35   S    
C49   H37   S    
C44   H32   S    
C25   C39   S    
C51   H39   S    
C7    Cl21  S    
