data_mof_unit_47451.cif
_audit_creation_date              2012-12-10T17:48:43-0500
_audit_creation_method            fapswitch 2.2
_symmetry_space_group_name_H-M    P1
_symmetry_Int_Tables_number       1
_space_group_crystal_system       triclinic
_cell_length_a                    15.737033
_cell_length_b                    10.729818
_cell_length_c                    9.891245
_cell_angle_alpha                 89.236318
_cell_angle_beta                  90.041265
_cell_angle_gamma                 91.682023
_cell_volume                      1669.32308184

loop_
_atom_site_label
_atom_site_type_symbol
_atom_type_description
_atom_site_fract_x
_atom_site_fract_y
_atom_site_fract_z
_atom_type_partial_charge
C1    C     C_R   0.504976 0.259805 0.502005 0.862762
C2    C     C_3   0.947706 0.398215 0.607483 -0.394079
C3    C     C_3   0.917353 0.496009 0.502991 0.330417
C4    C     C_3   0.953672 0.626198 0.542327 -0.402534
C5    C     C_3   0.051664 0.626897 0.539565 -0.388894
C6    C     C_1   0.825915 0.497303 0.501438 -0.115976
C7    C     C_1   0.174162 0.496471 0.502012 -0.115224
C8    C     C_1   0.249480 0.497911 0.500406 -0.191347
C9    C     C_R   0.513401 0.107022 0.761990 -0.169323
C10   C     C_R   0.484834 0.043686 0.878140 -0.147562
C11   C     C_R   0.440332 0.930662 0.866727 -0.158777
C12   C     C_R   0.338353 0.499473 0.500053 0.888452
C13   C     C_R   0.432209 0.875332 0.740621 -0.157622
C14   C     C_R   0.468470 0.933662 0.623899 0.097952
C15   C     C_R   0.497132 0.057824 0.631510 0.095868
C16   C     C_R   0.507934 0.125764 0.507704 -0.121900
C17   C     C_R   0.508068 0.064346 0.383931 -0.226122
C18   C     C_R   0.497498 0.937465 0.380930 -0.222597
C19   C     C_R   0.480344 0.871274 0.500560 -0.129264
C20   C     C_R   0.387821 0.337128 0.142187 -0.160895
C21   C     C_R   0.332370 0.257499 0.072741 -0.213544
C22   C     C_R   0.332243 0.257915 0.932858 -0.186972
C23   C     C_R   0.491360 0.738870 0.499664 0.879468
C24   C     C_R   0.387835 0.337572 0.861646 -0.154426
C25   C     C_R   0.444777 0.419775 0.928619 0.149518
C26   C     C_R   0.444791 0.419709 0.073347 0.166538
C27   C     C_R   0.552499 0.577235 0.070499 -0.126870
C28   C     C_R   0.552475 0.577201 0.927247 -0.118279
C29   C     C_R   0.661684 0.500143 0.500017 0.916983
C30   C     C_3   0.046388 0.395950 0.608629 0.050632
C31   C     C_3   0.048630 0.461493 0.362384 -0.463596
C32   C     C_3   0.950618 0.462578 0.361217 -0.408082
C33   C     C_1   0.750601 0.498703 0.500424 -0.193538
C34   C     C_3   0.082620 0.495273 0.504853 0.356123
H1    H     H_    0.921515 0.304062 0.581281 0.142298
H2    H     H_    0.922220 0.420278 0.709181 0.180929
H3    H     H_    0.930470 0.698671 0.470831 0.167580
H4    H     H_    0.517627 0.113998 0.288751 0.171830
H5    H     H_    0.550672 0.191586 0.777604 0.171026
H6    H     H_    0.495819 0.083678 0.976790 0.143732
H7    H     H_    0.414693 0.883799 0.955992 0.138644
H8    H     H_    0.397311 0.787140 0.735415 0.159761
H9    H     H_    0.504413 0.891280 0.284943 0.169513
H10   H     H_    0.595323 0.640332 0.123563 0.145237
H11   H     H_    0.065505 0.302183 0.574706 0.141434
H12   H     H_    0.383867 0.331105 0.249384 0.206823
H13   H     H_    0.289309 0.194956 0.128000 0.147303
H14   H     H_    0.289313 0.195414 0.878989 0.150948
H15   H     H_    0.384850 0.330935 0.754557 0.208166
H16   H     H_    0.595256 0.640319 0.872399 0.152851
H17   H     H_    0.074179 0.529356 0.285387 0.184671
H18   H     H_    0.070040 0.367534 0.333397 0.165516
H19   H     H_    0.924728 0.369332 0.331100 0.169791
H20   H     H_    0.929028 0.531776 0.284650 0.176728
H21   H     H_    0.077493 0.658160 0.638490 0.171489
H22   H     H_    0.075261 0.695932 0.462280 0.163332
H23   H     H_    0.931644 0.650486 0.645359 0.167737
N1    N     N_R   0.499210 0.498800 0.142780 -0.120612
N2    N     N_R   0.499180 0.498720 0.857170 -0.125807
O1    O     O_R   0.500000 0.316780 0.614690 -0.654130
O2    O     O_R   0.499990 0.316750 0.385360 -0.639846
O3    O     O_R   0.377150 0.500020 0.614720 -0.639082
O4    O     O_R   0.377140 0.499990 0.385380 -0.630845
O5    O     O_R   0.500010 0.683250 0.614640 -0.622995
O6    O     O_R   0.500000 0.683220 0.385310 -0.620155
O7    O     O_R   0.622860 0.500010 0.614620 -0.613303
O8    O     O_R   0.622850 0.499980 0.385280 -0.610426
Zn1   Zn    Zn3+2 0.500010 0.500020 0.653130 0.921857
Zn2   Zn    Zn3+2 0.499990 0.499980 0.346870 0.931394
C35   C     C_3   0.081315 0.411176 0.753383 -0.947825
H24   H     H_    0.062084 0.500479 0.797768 0.251501
H25   H     H_    0.056004 0.333813 0.818882 0.240345
H26   H     H_    0.151716 0.407094 0.754618 0.255305

loop_
_geom_bond_atom_site_label_1
_geom_bond_atom_site_label_2
_ccdc_geom_bond_type
C4    H23   S    
C2    H1    S    
C19   C23   S    
N1    Zn2   S    
C35   H24   S    
C2    H2    S    
N2    Zn1   S    
C12   O3    A    
C9    C10   A    
C5    H22   S    
O7    Zn1   S    
C31   C32   S    
C6    C33   T    
O3    Zn1   S    
C31   H18   S    
C8    C12   S    
C3    C6    S    
C15   C16   A    
C5    C34   S    
C23   O6    A    
C35   H26   S    
C17   C18   A    
C9    C15   A    
C31   C34   S    
C7    C8    T    
C1    C16   S    
C13   C14   A    
C20   C21   A    
C30   H11   S    
C18   H9    S    
C26   N1    A    
C16   C17   A    
C20   C26   A    
O6    Zn2   S    
C4    C5    S    
O5    Zn1   S    
C21   C22   A    
C23   O5    A    
C30   C35   S    
C24   H15   S    
C14   C19   A    
C22   H14   S    
C11   H7    S    
C2    C3    S    
C17   H4    S    
C3    C32   S    
C7    C34   S    
C22   C24   A    
C28   N2    A    
C10   C11   A    
C30   C34   S    
O2    Zn2   S    
C3    C4    S    
C29   C33   S    
C32   H19   S    
C11   C13   A    
C2    C30   S    
C24   C25   A    
O1    Zn1   S    
C29   O7    A    
C10   H6    S    
C18   C19   A    
C1    O1    A    
C32   H20   S    
C27   C28   A    
C12   O4    A    
C14   C15   A    
C13   H8    S    
C35   H25   S    
C25   N2    A    
C21   H13   S    
C25   C26   A    
C29   O8    A    
C28   H16   S    
C27   H10   S    
C5    H21   S    
C9    H5    S    
C20   H12   S    
O4    Zn2   S    
C31   H17   S    
C4    H3    S    
O8    Zn2   S    
C27   N1    A    
C1    O2    A    
