data_mof_unit_35441.cif
_audit_creation_date              2012-12-10T17:50:12-0500
_audit_creation_method            fapswitch 2.2
_symmetry_space_group_name_H-M    P1
_symmetry_Int_Tables_number       1
_space_group_crystal_system       triclinic
_cell_length_a                    10.614514
_cell_length_b                    14.706276
_cell_length_c                    14.72385
_cell_angle_alpha                 65.118721
_cell_angle_beta                  103.159171
_cell_angle_gamma                 102.722454
_cell_volume                      2010.06078156

loop_
_atom_site_label
_atom_site_type_symbol
_atom_type_description
_atom_site_fract_x
_atom_site_fract_y
_atom_site_fract_z
_atom_type_partial_charge
C1    C     C_R   0.476910 0.119704 0.312323 0.795402
C2    C     C_R   0.520743 0.880316 0.687666 0.794009
C3    C     C_R   0.472797 0.291779 0.178865 -0.252680
C4    C     C_R   0.505481 0.708134 0.821020 -0.246923
C5    C     C_R   0.453458 0.360089 0.077435 0.089784
C6    C     C_R   0.490375 0.639124 0.920016 0.090447
C7    C     C_R   0.425235 0.320640 0.001046 0.162952
C8    C     C_R   0.503660 0.678352 0.995267 0.161766
C9    C     C_R   0.465648 0.466437 0.050012 0.066511
C10   C     C_R   0.464291 0.532567 0.946331 0.064894
C11   C     C_R   0.433985 0.489997 0.872339 -0.217452
C12   C     C_R   0.476709 0.508689 0.122484 -0.215843
C13   C     C_R   0.413523 0.386031 0.899502 -0.212642
C14   C     C_R   0.494393 0.612633 0.095173 -0.215453
C15   C     C_R   0.717777 0.282875 0.669952 -0.118980
C16   C     C_R   0.284067 0.717998 0.328706 -0.120298
C17   C     C_R   0.683063 0.202057 0.639000 0.032808
C18   C     C_R   0.317988 0.798440 0.360225 0.032885
C19   C     C_R   0.519683 0.285594 0.509305 -0.001109
C20   C     C_R   0.480098 0.714301 0.490834 -0.002579
C21   C     C_R   0.550041 0.371387 0.535605 -0.034267
C22   C     C_R   0.450573 0.628902 0.463924 -0.033609
C23   C     C_R   0.259565 0.000504 0.500061 0.786477
C24   C     C_R   0.740441 0.999488 0.499953 0.787401
C25   C     C_R   0.650556 0.368159 0.618757 0.104544
C26   C     C_R   0.350882 0.632518 0.380188 0.105541
C27   C     C_R   0.483675 0.459009 0.483223 0.093060
C28   C     C_R   0.517106 0.541358 0.516188 0.089447
C29   C     C_R   0.615819 0.533367 0.600423 -0.242521
C30   C     C_R   0.385475 0.467228 0.398647 -0.245462
C31   C     C_R   0.681202 0.449463 0.649704 -0.184942
C32   C     C_R   0.320672 0.551416 0.348942 -0.194174
C33   C     C_3   0.016654 0.010780 0.408087 -0.167958
C34   C     C_3   0.983374 0.989205 0.591947 -0.168859
C35   C     C_3   0.962124 0.087510 0.429964 -0.163398
C36   C     C_3   0.037907 0.912474 0.570071 -0.163667
C37   C     C_3   0.877127 0.998827 0.499741 0.015923
C38   C     C_3   0.122895 0.001158 0.500291 0.016612
C39   C     C_3   0.929347 0.922045 0.477855 -0.133309
C40   C     C_3   0.070682 0.077938 0.522180 -0.133299
C41   C     C_R   0.458314 0.187365 0.204764 -0.055939
C42   C     C_R   0.522952 0.812654 0.794885 -0.056004
C43   C     C_R   0.409810 0.215847 0.027054 -0.183551
C44   C     C_R   0.525477 0.783305 0.969642 -0.184858
C45   C     C_R   0.425306 0.149485 0.128376 -0.191392
C46   C     C_R   0.533828 0.850158 0.869785 -0.190482
Cu1   Cu    Cu3+1 0.465750 0.918270 0.475680 0.935495
Cu2   Cu    Cu3+1 0.534250 0.081730 0.524320 0.935393
H1    H     H_    0.927815 0.158983 0.372585 0.136946
H2    H     H_    0.072242 0.841010 0.627452 0.137250
H3    H     H_    0.556292 0.719447 0.551316 0.125810
H4    H     H_    0.442659 0.280068 0.449434 0.125740
H5    H     H_    0.268591 0.864761 0.320926 0.131948
H6    H     H_    0.732834 0.135916 0.678019 0.132730
H7    H     H_    0.645610 0.590980 0.630964 0.131496
H8    H     H_    0.356036 0.409743 0.367928 0.128722
H9    H     H_    0.033624 0.019755 0.332907 0.134362
H10   H     H_    0.966426 0.980237 0.667130 0.133714
H11   H     H_    0.868819 0.858180 0.459763 0.143391
H12   H     H_    0.131215 0.141801 0.540272 0.142761
H13   H     H_    0.390317 0.356683 0.840395 0.150451
H14   H     H_    0.501874 0.641734 0.153034 0.152454
H15   H     H_    0.505601 0.682435 0.762593 0.146472
H16   H     H_    0.503131 0.318379 0.239347 0.152015
H17   H     H_    0.547312 0.930856 0.851103 0.156619
H18   H     H_    0.413139 0.068891 0.146799 0.155618
H19   H     H_    0.386672 0.185290 0.968899 0.137423
H20   H     H_    0.534584 0.813648 0.026739 0.137334
H21   H     H_    0.421261 0.534804 0.792092 0.146681
H22   H     H_    0.467921 0.463426 0.200913 0.141543
H23   H     H_    0.756378 0.448764 0.713469 0.159633
H24   H     H_    0.246219 0.552444 0.284683 0.160672
N1    N     N_R   0.585750 0.204560 0.560800 -0.184294
N2    N     N_R   0.414250 0.795440 0.439200 -0.183921
O1    O     O_R   0.454850 0.022100 0.338110 -0.588703
O2    O     O_R   0.545150 0.977900 0.661890 -0.588546
O3    O     O_R   0.512700 0.160150 0.379180 -0.588957
O4    O     O_R   0.487300 0.839850 0.620820 -0.588702
O5    O     O_R   0.287930 0.931000 0.479440 -0.580512
O6    O     O_R   0.712070 0.069000 0.520560 -0.580366
O7    O     O_R   0.345780 0.069050 0.520520 -0.587973
O8    O     O_R   0.654220 0.930950 0.479480 -0.587083
C47   C     C_1   0.821726 0.275555 0.754433 0.195857
N3    N     N_1   0.904950 0.269631 0.822043 -0.281685
C48   C     C_1   0.181604 0.726024 0.243170 0.193567
N4    N     N_1   0.099601 0.732521 0.174689 -0.280165

loop_
_geom_bond_atom_site_label_1
_geom_bond_atom_site_label_2
_ccdc_geom_bond_type
C25   C31   A    
C38   C40   S    
C26   C32   A    
C40   H12   S    
C34   C37   S    
C1    O3    A    
Cu2   O2    S    
Cu1   O5    S    
C36   H2    S    
C32   H24   S    
C48   N4    T    
C4    H15   S    
C33   C39   S    
C34   C40   S    
C28   C29   A    
C19   C21   A    
C20   H3    S    
C15   C25   A    
C14   H14   S    
Cu2   O7    S    
C42   C46   A    
Cu1   O8    S    
C24   O8    A    
C12   H22   S    
C18   H5    S    
C19   H4    S    
C24   O6    A    
C47   N3    T    
C35   H1    S    
C33   H9    S    
C7    C43   A    
C9    C10   A    
C31   H23   S    
C21   C27   A    
C18   N2    A    
C22   C28   A    
C27   C30   A    
C17   N1    A    
C44   C46   A    
C16   C26   A    
C37   C39   S    
C1    O1    A    
C19   N1    A    
C46   H17   S    
C4    C6    A    
C5    C7    A    
C6    C8    A    
C29   H7    S    
C3    H16   S    
C30   H8    S    
Cu2   O3    S    
C43   H19   S    
C5    C9    A    
C2    O4    A    
Cu1   Cu2   S    
C39   H11   S    
C24   C37   S    
C20   N2    A    
C43   C45   A    
C1    C41   S    
C12   C14   A    
C16   C48   S    
C44   H20   S    
C45   H18   S    
C2    O2    A    
C15   C17   A    
C21   C25   A    
C3    C41   A    
C8    C14   A    
C23   O7    A    
C35   C37   S    
Cu2   N1    S    
C36   C39   S    
C8    C44   A    
Cu1   N2    S    
C20   C22   A    
C3    C5    A    
C6    C10   A    
C15   C47   S    
C11   H21   S    
C23   C38   S    
C33   C38   S    
Cu2   O6    S    
C36   C38   S    
C35   C40   S    
Cu1   O1    S    
C29   C31   A    
C30   C32   A    
C11   C13   A    
C4    C42   A    
C2    C42   S    
C33   C35   S    
C34   C36   S    
C9    C12   A    
C10   C11   A    
C7    C13   A    
C13   H13   S    
C16   C18   A    
C22   C26   A    
C27   C28   A    
C34   H10   S    
C41   C45   A    
Cu1   O4    S    
C23   O5    A    
C17   H6    S    
