data_mof_unit_28906.cif
_audit_creation_date              2012-12-10T18:54:23-0500
_audit_creation_method            fapswitch 2.2
_symmetry_space_group_name_H-M    P1
_symmetry_Int_Tables_number       1
_space_group_crystal_system       triclinic
_cell_length_a                    10.928686
_cell_length_b                    9.911973
_cell_length_c                    22.901633
_cell_angle_alpha                 90.289859
_cell_angle_beta                  91.89082
_cell_angle_gamma                 90.267975
_cell_volume                      2479.40412689

loop_
_atom_site_label
_atom_site_type_symbol
_atom_type_description
_atom_site_fract_x
_atom_site_fract_y
_atom_site_fract_z
_atom_type_partial_charge
C1    C     C_R   0.259846 0.499742 0.497151 0.897392
C2    C     C_R   0.739655 0.499949 0.497116 0.875770
C3    C     C_R   0.539312 0.451045 0.226818 -0.060495
C4    C     C_R   0.477727 0.445054 0.774612 -0.059256
C5    C     C_R   0.556918 0.434979 0.287877 -0.225789
C6    C     C_R   0.460732 0.423311 0.713657 -0.235412
C7    C     C_R   0.476573 0.500489 0.325605 -0.257870
C8    C     C_R   0.523909 0.507446 0.674803 -0.268677
C9    C     C_R   0.375065 0.571304 0.302606 0.419871
C10   C     C_R   0.607798 0.605540 0.696890 0.504196
C11   C     C_R   0.368741 0.602343 0.243624 -0.210970
C12   C     C_R   0.614079 0.634177 0.756131 -0.178723
C13   C     C_R   0.452336 0.546808 0.205674 0.158445
C14   C     C_R   0.547180 0.558178 0.794897 0.147127
C15   C     C_R   0.062045 0.374691 0.489145 -0.092442
C16   C     C_R   0.935358 0.622428 0.483174 -0.119371
C17   C     C_R   0.935099 0.374521 0.489620 -0.089417
C18   C     C_R   0.062647 0.623345 0.484125 -0.108053
C19   C     C_R   0.871600 0.499038 0.490034 -0.196933
C20   C     C_R   0.126768 0.499296 0.490330 -0.210447
C21   C     C_R   0.494462 0.071452 0.550937 0.381781
C22   C     C_R   0.521597 0.926492 0.449751 0.329880
C23   C     C_R   0.507763 0.070116 0.448818 0.350561
C24   C     C_R   0.482410 0.928966 0.550233 0.362318
C25   C     C_R   0.496371 0.499604 0.388951 0.961985
C26   C     C_R   0.503510 0.500825 0.611220 0.947431
C27   C     C_R   0.636434 0.622456 0.889730 0.598082
C28   C     C_R   0.358560 0.604130 0.110827 0.591638
C29   C     C_R   0.420915 0.639372 0.871685 0.567518
C30   C     C_R   0.570404 0.648053 0.130052 0.554705
C31   C     C_R   0.400633 0.660045 0.931468 -0.123414
C32   C     C_R   0.590761 0.667273 0.070207 -0.116160
C33   C     C_R   0.503907 0.661433 0.970379 -0.068666
C34   C     C_R   0.488259 0.659892 0.031079 -0.066935
C35   C     C_R   0.623033 0.657161 0.948723 -0.125700
C36   C     C_R   0.369928 0.644314 0.052584 -0.132458
C37   C     C_R   0.281722 0.671637 0.954242 -0.151437
C38   C     C_R   0.709173 0.685843 0.047759 -0.143910
C39   C     C_R   0.267134 0.664094 0.014843 0.498474
C40   C     C_R   0.724750 0.681214 0.987104 0.490845
H1    H     H_    0.300288 0.673169 0.227870 0.194121
H2    H     H_    0.668113 0.719685 0.771771 0.185422
N1    N     N_R   0.535352 0.608010 0.853499 -0.336907
N2    N     N_R   0.459685 0.600755 0.147570 -0.335342
N3    N     N_R   0.500000 0.857200 0.500000 -0.198072
N4    N     N_R   0.500000 0.142800 0.500000 -0.199855
O1    O     O_R   0.316770 0.614620 0.500000 -0.614202
O2    O     O_R   0.683230 0.385380 0.500000 -0.616271
O3    O     O_R   0.683230 0.614620 0.500000 -0.578182
O4    O     O_R   0.316770 0.385380 0.500000 -0.608746
O5    O     O_R   0.499970 0.614690 0.416160 -0.543642
O6    O     O_R   0.500030 0.385310 0.583840 -0.572474
O7    O     O_R   0.500030 0.614690 0.583840 -0.526189
O8    O     O_R   0.499970 0.385310 0.416160 -0.586231
O9    O     O_2   0.748412 0.597239 0.869268 -0.510559
O10   O     O_2   0.249011 0.562822 0.129714 -0.505519
O11   O     O_2   0.327414 0.644034 0.831829 -0.517052
O12   O     O_2   0.660370 0.671011 0.170650 -0.514065
Zn1   Zn    Zn3+2 0.500000 0.653120 0.500000 1.078689
Zn2   Zn    Zn3+2 0.500000 0.346880 0.500000 1.037678
C41   C     C_2   0.170168 0.688165 0.916659 1.053236
O13   O     O_2   0.158148 0.788445 0.886149 -0.602083
O14   O     O_R   0.078347 0.589652 0.916899 -0.691524
H3    H     H_    0.008326 0.610096 0.888238 0.390336
C42   C     C_2   0.819987 0.701046 0.085979 1.051243
O15   O     O_2   0.836226 0.804485 0.114574 -0.597660
O16   O     O_R   0.905616 0.596888 0.089019 -0.697631
H4    H     H_    0.975525 0.616853 0.118011 0.384057
O17   O     O_3   0.152054 0.681779 0.037018 -0.532787
C43   C     C_3   0.140420 0.819294 0.052202 -0.223531
H5    H     H_    0.155678 0.886564 0.014283 0.142545
H6    H     H_    0.203883 0.847018 0.089375 0.163289
H7    H     H_    0.046107 0.837575 0.066215 0.219564
O18   O     O_3   0.840664 0.699327 0.965823 -0.540517
C44   C     C_3   0.855101 0.837233 0.952492 -0.221681
H8    H     H_    0.843960 0.902366 0.991694 0.148578
H9    H     H_    0.790203 0.868533 0.916665 0.169863
H10   H     H_    0.949071 0.853941 0.937305 0.217764
C45   C     C_2   0.614983 0.376060 0.184698 0.975795
O19   O     O_2   0.566820 0.329704 0.139945 -0.606963
O20   O     O_R   0.741121 0.362132 0.194985 -0.742525
H11   H     H_    0.781946 0.310934 0.162571 0.371917
C46   C     C_2   0.416951 0.357853 0.817829 0.986735
O21   O     O_2   0.474874 0.319174 0.861131 -0.608149
O22   O     O_R   0.292984 0.324289 0.810299 -0.741334
H12   H     H_    0.262336 0.266325 0.843159 0.366467
C47   C     C_2   0.663095 0.359460 0.312374 1.091726
O23   O     O_2   0.675117 0.239693 0.301002 -0.549690
O24   O     O_R   0.750689 0.427256 0.347516 -0.779718
H13   H     H_    0.824082 0.369089 0.357896 0.374782
C48   C     C_2   0.372960 0.319243 0.690906 1.079617
O25   O     O_2   0.377708 0.204046 0.709718 -0.579879
O26   O     O_R   0.283985 0.353540 0.648354 -0.778655
H14   H     H_    0.228973 0.274530 0.636874 0.377570
O27   O     O_3   0.286123 0.619542 0.338541 -0.588841
C49   C     C_3   0.188437 0.525833 0.337118 -0.167782
H15   H     H_    0.112683 0.567052 0.362662 0.219150
H16   H     H_    0.217049 0.428714 0.357454 0.125792
H17   H     H_    0.151193 0.508249 0.291839 0.179144
O28   O     O_3   0.676652 0.683096 0.660037 -0.562035
C50   C     C_3   0.787888 0.615724 0.651150 -0.215919
H18   H     H_    0.843171 0.676623 0.621151 0.231502
H19   H     H_    0.772195 0.515106 0.630305 0.115505
H20   H     H_    0.842081 0.605019 0.692878 0.172920
C51   C     C_2   0.122089 0.240797 0.483954 0.959940
O29   O     O_2   0.169206 0.186967 0.527006 -0.579326
O30   O     O_R   0.112685 0.171754 0.430690 -0.815898
H21   H     H_    0.148561 0.078013 0.433214 0.341797
C52   C     C_2   0.871115 0.752371 0.472558 1.024942
O31   O     O_2   0.846811 0.788141 0.422528 -0.550538
O32   O     O_R   0.839341 0.832695 0.520008 -0.747793
H22   H     H_    0.791129 0.915298 0.507646 0.344421
C53   C     C_2   0.872139 0.240512 0.489383 0.971113
O33   O     O_2   0.879150 0.169246 0.532769 -0.633853
O34   O     O_R   0.808957 0.195327 0.438912 -0.732132
H23   H     H_    0.772297 0.102151 0.443508 0.358080
C54   C     C_2   0.125277 0.756179 0.476652 0.937106
O35   O     O_2   0.112846 0.846157 0.512675 -0.616936
O36   O     O_R   0.196194 0.778259 0.427956 -0.740262
H24   H     H_    0.239948 0.868493 0.429494 0.307836
O37   O     O_3   0.499057 0.137048 0.603980 -0.555459
C55   C     C_3   0.621509 0.136494 0.625612 -0.132227
H25   H     H_    0.656051 0.032115 0.632500 0.200936
H26   H     H_    0.682163 0.192862 0.596159 0.170403
H27   H     H_    0.625907 0.188584 0.668609 0.171108
O38   O     O_3   0.583259 0.860238 0.406062 -0.534254
C56   C     C_3   0.519222 0.864182 0.351657 -0.049363
H28   H     H_    0.419233 0.847582 0.355714 0.148525
H29   H     H_    0.539889 0.957853 0.327660 0.208558
H30   H     H_    0.553598 0.781142 0.324171 0.184769
O39   O     O_3   0.509305 0.136208 0.396250 -0.540851
C57   C     C_3   0.386759 0.151142 0.375487 -0.251828
H31   H     H_    0.337717 0.053270 0.370700 0.115884
H32   H     H_    0.387088 0.198663 0.331742 0.190132
H33   H     H_    0.334822 0.217994 0.404621 0.199267
O40   O     O_3   0.471274 0.862814 0.602557 -0.546498
C58   C     C_3   0.347208 0.862903 0.617392 -0.068334
H34   H     H_    0.339891 0.817454 0.661316 0.186035
H35   H     H_    0.291836 0.799554 0.586291 0.170347
H36   H     H_    0.309162 0.966762 0.619616 0.196074

loop_
_geom_bond_atom_site_label_1
_geom_bond_atom_site_label_2
_ccdc_geom_bond_type
C38   C40   A    
C47   O23   D    
O38   C56   S    
C8    C26   S    
O27   C49   S    
C3    C45   S    
C25   O5    A    
O20   H11   S    
O7    Zn1   S    
C17   C53   S    
O8    Zn2   S    
O22   H12   S    
C51   O30   S    
O26   H14   S    
C24   N3    A    
C21   N4    A    
C54   O36   S    
C27   O9    S    
C22   O38   S    
O34   H23   S    
C49   H17   S    
C44   H9    S    
C15   C17   A    
C41   O14   S    
C12   H2    S    
O6    Zn2   S    
C17   C19   A    
O32   H22   S    
C57   H31   S    
C42   O16   S    
C49   H16   S    
O30   H21   S    
C31   C33   A    
C43   H5    S    
C32   C38   A    
C1    O4    A    
C9    O27   S    
C18   C20   A    
C3    C13   A    
C24   O40   S    
C50   H19   S    
C23   N4    A    
C29   N1    A    
C4    C14   A    
C30   N2    A    
C41   O13   D    
C16   C52   S    
O2    Zn2   S    
C36   C39   A    
C28   O10   S    
C15   C20   A    
C37   C39   A    
C58   H36   S    
O18   C44   S    
O16   H4    S    
C50   H18   S    
C25   O8    A    
C4    C6    A    
C48   O25   D    
C5    C7    A    
C1    O1    A    
C6    C8    A    
C27   C35   A    
C28   N2    A    
C31   C37   A    
C32   C34   A    
C44   H8    S    
C56   H29   S    
C2    O3    A    
C26   O6    A    
C48   O26   S    
C58   H35   S    
C46   O21   D    
C38   C42   S    
C49   H15   S    
C43   H7    S    
C33   C34   A    
C39   O17   S    
C23   O39   S    
C10   O28   S    
C9    C11   A    
C18   C54   S    
O37   C55   S    
C10   C12   A    
C57   H32   S    
C46   O22   S    
C12   C14   A    
C50   H20   S    
C47   O24   S    
C45   O19   D    
O5    Zn1   S    
C55   H26   S    
O39   C57   S    
C26   O7    A    
C45   O20   S    
C53   O33   D    
C51   O29   D    
C7    C9    A    
N3    Zn1   S    
C1    C20   S    
N4    Zn2   S    
C2    C19   S    
C8    C10   A    
C29   O11   S    
O40   C58   S    
C3    C5    A    
O3    Zn1   S    
C37   C41   S    
O36   H24   S    
C56   H28   S    
C58   H34   S    
C7    C25   S    
C2    O2    A    
C15   C51   S    
C55   H27   S    
C52   O32   S    
C35   C40   A    
O24   H13   S    
C56   H30   S    
O4    Zn2   S    
C29   C31   A    
C52   O31   D    
C30   C32   A    
C11   C13   A    
C4    C46   S    
C57   H33   S    
C30   O12   S    
O28   C50   S    
C33   C35   A    
C40   O18   S    
C11   H1    S    
C34   C36   A    
C21   O37   S    
O17   C43   S    
C44   H10   S    
O1    Zn1   S    
O14   H3    S    
C5    C47   S    
C27   N1    A    
C22   N3    A    
C28   C36   A    
C16   C18   A    
C42   O15   D    
C21   C24   A    
C22   C23   A    
C43   H6    S    
C55   H25   S    
C54   O35   D    
C13   N2    S    
C6    C48   S    
C14   N1    S    
C53   O34   S    
C16   C19   A    
