data_mof_unit_19986.cif
_audit_creation_date              2012-10-26T18:54:54-0400
_audit_creation_method            fapswitch 2.2
_symmetry_space_group_name_H-M    P1
_symmetry_Int_Tables_number       1
_space_group_crystal_system       triclinic
_cell_length_a                    10.835142
_cell_length_b                    9.598027
_cell_length_c                    10.85261
_cell_angle_alpha                 89.703738
_cell_angle_beta                  91.218279
_cell_angle_gamma                 90.346338
_cell_volume                      1128.33778173

loop_
_atom_site_label
_atom_site_type_symbol
_atom_type_description
_atom_site_fract_x
_atom_site_fract_y
_atom_site_fract_z
_atom_type_partial_charge
C1    C     C_R   0.262267 0.500002 0.500741 0.530048
C2    C     C_R   0.545959 0.610882 0.940636 -0.010619
C3    C     C_R   0.494341 0.496090 0.129061 -0.024204
C4    C     C_R   0.518522 0.493603 0.870640 -0.034354
C5    C     C_R   0.491020 0.368383 0.064739 -0.166565
C6    C     C_R   0.497463 0.367803 0.935588 -0.173420
C7    C     C_3   0.549106 0.766518 0.929318 0.184064
C8    C     C_3   0.487561 0.769267 0.056155 0.183742
C9    C     C_R   0.062635 0.375666 0.505005 -0.153017
C10   C     C_R   0.935537 0.375589 0.497236 -0.147749
C11   C     C_R   0.871505 0.501636 0.495219 0.016397
C12   C     C_R   0.737625 0.500465 0.497930 0.535544
C13   C     C_R   0.128203 0.501212 0.500452 0.014801
C14   C     C_R   0.936572 0.628283 0.493046 -0.150030
C15   C     C_R   0.064523 0.628019 0.493953 -0.147372
C16   C     C_3   0.753406 0.762086 0.856229 0.000895
C17   C     C_3   0.840302 0.659661 0.922981 -0.265803
C18   C     C_3   0.918625 0.581347 0.831063 -0.485638
C19   C     C_3   0.277280 0.736092 0.111358 0.000902
C20   C     C_3   0.210825 0.618965 0.040390 -0.264425
C21   C     C_3   0.129259 0.533354 0.125786 -0.483144
C22   C     C_3   0.262368 0.158723 0.329450 0.027810
C23   C     C_R   0.445433 0.073108 0.405087 0.342787
C24   C     C_3   0.183672 0.060173 0.250766 -0.298996
C25   C     C_3   0.047829 0.101671 0.249335 -0.485284
C26   C     C_3   0.727508 0.132278 0.708351 0.012762
C27   C     C_3   0.771402 0.187900 0.833586 -0.251282
C28   C     C_3   0.911738 0.182383 0.847802 -0.489309
C29   C     C_R   0.554713 0.073519 0.595061 0.336643
C30   C     C_R   0.447212 0.925269 0.405114 0.006203
C31   C     C_R   0.552942 0.925221 0.594567 -0.003875
C32   C     C_R   0.494640 0.499685 0.262522 0.534273
C33   C     C_R   0.506671 0.499073 0.737354 0.538986
C34   C     C_R   0.511866 0.615574 0.059323 -0.003415
Cu1   Cu    Cu3+1 0.500000 0.640660 0.500000 0.905661
Cu2   Cu    Cu3+1 0.500000 0.359340 0.500000 1.010468
H1    H     H_    0.478477 0.270323 0.112504 0.194624
H2    H     H_    0.593186 0.869338 0.671133 0.118932
H3    H     H_    0.811583 0.846026 0.817667 0.135379
H4    H     H_    0.706327 0.709973 0.776816 0.139966
H5    H     H_    0.901841 0.717779 0.988155 0.163741
H6    H     H_    0.787004 0.582472 0.977010 0.174554
H7    H     H_    0.976447 0.655466 0.778179 0.154935
H8    H     H_    0.858428 0.521314 0.766204 0.155178
H9    H     H_    0.979934 0.506924 0.880728 0.146700
H10   H     H_    0.204786 0.810369 0.136056 0.140381
H11   H     H_    0.319011 0.698245 0.199114 0.143175
H12   H     H_    0.482807 0.270357 0.887588 0.190443
H13   H     H_    0.152835 0.665257 0.965309 0.165426
H14   H     H_    0.277621 0.548636 0.997023 0.182573
H15   H     H_    0.055954 0.599708 0.164300 0.151217
H16   H     H_    0.185598 0.488516 0.202715 0.145969
H17   H     H_    0.085118 0.446418 0.073834 0.140286
H18   H     H_    0.238542 0.267396 0.303471 0.168251
H19   H     H_    0.237953 0.141976 0.427661 0.120826
H20   H     H_    0.217416 0.060478 0.154741 0.200162
H21   H     H_    0.191624 0.954201 0.291258 0.129674
H22   H     H_    0.011557 0.099322 0.344290 0.142467
H23   H     H_    0.492611 0.811222 0.852340 0.162843
H24   H     H_    0.993475 0.027103 0.191769 0.155641
H25   H     H_    0.036198 0.207911 0.209807 0.151331
H26   H     H_    0.769060 0.196622 0.635780 0.152310
H27   H     H_    0.760541 0.023995 0.697692 0.086341
H28   H     H_    0.741306 0.297702 0.843163 0.169653
H29   H     H_    0.729205 0.124965 0.908118 0.203331
H30   H     H_    0.944241 0.073177 0.841539 0.149770
H31   H     H_    0.940383 0.224589 0.939179 0.146952
H32   H     H_    0.955695 0.246154 0.774931 0.149840
H33   H     H_    0.536881 0.831291 0.128312 0.153281
H34   H     H_    0.108618 0.277201 0.515195 0.109638
H35   H     H_    0.888274 0.276448 0.493226 0.109115
H36   H     H_    0.889013 0.727230 0.490521 0.125332
H37   H     H_    0.113154 0.726856 0.490522 0.126463
H38   H     H_    0.404796 0.869766 0.329033 0.124437
N1    N     N_R   0.500000 0.852070 0.500000 -0.289003
N2    N     N_R   0.500000 0.147940 0.500000 -0.215245
O1    O     O_R   0.319640 0.618740 0.499990 -0.508239
O2    O     O_3   0.361710 0.807650 0.035569 -0.598230
O3    O     O_3   0.389288 0.140446 0.306548 -0.567925
O4    O     O_3   0.597785 0.141655 0.699295 -0.551294
O5    O     O_R   0.680360 0.618740 0.500010 -0.512239
O6    O     O_R   0.319620 0.381170 0.499990 -0.517818
O7    O     O_R   0.680380 0.381170 0.500010 -0.508103
O8    O     O_R   0.499990 0.618810 0.319660 -0.528048
O9    O     O_R   0.500010 0.618810 0.680340 -0.528668
O10   O     O_R   0.499960 0.381240 0.319650 -0.454784
O11   O     O_R   0.500040 0.381240 0.680350 -0.444927
O12   O     O_3   0.670768 0.822975 0.940076 -0.600097

loop_
_geom_bond_atom_site_label_1
_geom_bond_atom_site_label_2
_ccdc_geom_bond_type
C5    H1    S    
C1    O1    A    
C28   H30   S    
C19   C20   S    
C23   N2    A    
Cu1   O5    S    
C19   H10   S    
C7    C8    S    
C22   H18   S    
C29   N2    A    
Cu1   N1    S    
C8    H33   S    
C6    H12   S    
C28   H32   S    
C22   O3    S    
C5    C6    A    
C30   H38   S    
C11   C14   A    
C19   H11   S    
Cu2   O7    S    
C33   O9    A    
C17   H6    S    
C9    C13   A    
Cu2   N2    S    
C2    C7    S    
Cu2   O6    S    
C24   H21   S    
C20   H14   S    
C25   H24   S    
C9    C10   A    
C10   H35   S    
C2    C34   A    
C8    O2    S    
C7    H23   S    
Cu2   O11   S    
C32   O8    A    
C23   C30   A    
C28   H31   S    
C9    H34   S    
C4    C6    A    
C10   C11   A    
C16   C17   S    
C8    C34   S    
C3    C34   A    
Cu2   O10   S    
C1    O6    A    
Cu1   O1    S    
C26   O4    S    
C12   O7    A    
Cu1   Cu2   S    
C19   O2    S    
C2    C4    A    
C26   H27   S    
C20   H13   S    
C27   H29   S    
C18   H8    S    
C31   N1    A    
C7    O12   S    
C11   C12   S    
C32   O10   A    
C17   C18   S    
C26   C27   S    
C25   H25   S    
C24   C25   S    
C16   H4    S    
C15   H37   S    
C13   C15   A    
C22   C24   S    
C1    C13   S    
C25   H22   S    
C18   H9    S    
C21   H15   S    
C4    C33   S    
C14   H36   S    
C3    C5    A    
Cu1   O8    S    
C22   H19   S    
C24   H20   S    
C31   H2    S    
C26   H26   S    
C29   C31   A    
C18   H7    S    
C21   H17   S    
C30   N1    A    
Cu1   O9    S    
C29   O4    S    
C12   O5    A    
C33   O11   A    
C3    C32   S    
C17   H5    S    
C27   H28   S    
C16   H3    S    
C20   C21   S    
C27   C28   S    
C16   O12   S    
C14   C15   A    
C23   O3    S    
C21   H16   S    
