data_mof_unit_33940.cif
_audit_creation_date              2012-12-11T14:52:37-0500
_audit_creation_method            fapswitch 2.2
_symmetry_space_group_name_H-M    P1
_symmetry_Int_Tables_number       1
_space_group_crystal_system       triclinic
_cell_length_a                    18.883778
_cell_length_b                    10.888968
_cell_length_c                    18.774249
_cell_angle_alpha                 89.662603
_cell_angle_beta                  90.970766
_cell_angle_gamma                 89.645463
_cell_volume                      3859.75487909

loop_
_atom_site_label
_atom_site_type_symbol
_atom_type_description
_atom_site_fract_x
_atom_site_fract_y
_atom_site_fract_z
_atom_type_partial_charge
C1    C     C_R   0.272056 0.042177 0.853549 0.543430
C2    C     C_R   0.700412 0.526691 0.037826 -0.145653
C3    C     C_3   0.997248 0.330057 0.073090 0.050908
C4    C     C_3   0.394002 0.352422 0.471621 -0.301176
C5    C     C_3   0.569577 0.472361 0.547963 -0.311451
C6    C     C_3   0.907882 0.876946 0.470857 -0.317670
C7    C     C_3   0.085750 0.005234 0.589886 -0.291793
C8    C     C_R   0.807667 0.041361 0.963534 -0.151800
C9    C     C_R   0.200402 0.026710 0.037822 -0.145892
C10   C     C_R   0.301066 0.528584 0.036963 -0.152846
C11   C     C_R   0.704599 0.510235 0.964479 -0.145342
C12   C     C_R   0.801066 0.028585 0.036963 -0.152745
C13   C     C_R   0.204589 0.010255 0.964474 -0.145086
C14   C     C_R   0.237320 0.561278 0.069102 0.032034
C15   C     C_R   0.752594 0.580091 0.924720 0.027345
C16   C     C_R   0.737319 0.061276 0.069102 0.032059
C17   C     C_R   0.725568 0.037712 0.144223 0.543220
C18   C     C_R   0.252590 0.080100 0.924717 0.028631
C19   C     C_R   0.178875 0.597797 0.026741 -0.145506
C20   C     C_R   0.793376 0.670146 0.958130 -0.136534
C21   C     C_R   0.678873 0.097788 0.026739 -0.145253
C22   C     C_R   0.293378 0.170146 0.958129 -0.136038
C23   C     C_R   0.184664 0.606517 0.953997 -0.142816
C24   C     C_R   0.790588 0.684103 0.030780 -0.137648
C25   C     C_R   0.684663 0.106508 0.953995 -0.143563
C26   C     C_R   0.290590 0.184101 0.030780 -0.137889
C27   C     C_R   0.249887 0.584477 0.922160 0.029708
C28   C     C_R   0.772058 0.542173 0.853550 0.539088
C29   C     C_R   0.745056 0.611344 0.071523 0.027081
C30   C     C_R   0.749887 0.084474 0.922158 0.028718
C31   C     C_R   0.245053 0.111350 0.071520 0.026700
C32   C     C_R   0.456362 0.734971 0.526135 -0.131084
C33   C     C_R   0.465671 0.738946 0.453530 -0.145978
C34   C     C_R   0.946598 0.225126 0.521782 -0.139742
C35   C     C_R   0.964437 0.227341 0.450717 -0.138339
C36   C     C_R   0.501093 0.837635 0.423480 0.027374
C37   C     C_R   0.481983 0.829860 0.569719 0.027725
C38   C     C_R   0.993693 0.333283 0.420861 0.022979
C39   C     C_R   0.225568 0.537712 0.144223 0.543056
C40   C     C_R   0.956724 0.328734 0.564061 0.023966
C41   C     C_R   0.522132 0.937642 0.466064 -0.138681
C42   C     C_R   0.512476 0.933713 0.539290 -0.157030
C43   C     C_R   0.000734 0.439745 0.462098 -0.145623
C44   C     C_R   0.982635 0.437277 0.533657 -0.144580
C45   C     C_R   0.438483 0.817111 0.862501 0.564601
C46   C     C_R   0.527214 0.822338 0.145693 0.543046
C47   C     C_R   0.938481 0.317110 0.862501 0.567972
C48   C     C_R   0.027213 0.322338 0.145693 0.543443
C49   C     C_R   0.212539 0.692630 0.524789 -0.138801
C50   C     C_3   0.510475 0.732137 0.974390 -0.104158
C51   C     C_R   0.816379 0.587900 0.456307 -0.138324
C52   C     C_R   0.710184 0.187414 0.525752 -0.145191
C53   C     C_R   0.311813 0.059157 0.454513 -0.160211
C54   C     C_R   0.213158 0.682649 0.452345 -0.167943
C55   C     C_R   0.820944 0.586225 0.528901 -0.161875
C56   C     C_R   0.711183 0.179289 0.453326 -0.171932
C57   C     C_R   0.319432 0.046403 0.526923 -0.170926
C58   C     C_R   0.254414 0.591720 0.421406 0.029224
C59   C     C_R   0.760403 0.566915 0.569808 0.041489
C60   C     C_R   0.754000 0.091301 0.421744 0.029854
C61   C     C_3   0.458999 0.722547 0.036997 -0.118444
C62   C     C_R   0.261041 0.065091 0.571116 0.064185
C63   C     C_R   0.304304 0.522037 0.462887 0.131881
C64   C     C_R   0.694230 0.543841 0.537115 0.126765
C65   C     C_R   0.804992 0.023127 0.462807 0.141375
C66   C     C_R   0.193333 0.087947 0.542961 0.102421
C67   C     C_R   0.302256 0.532657 0.536734 -0.120502
C68   C     C_R   0.690220 0.547443 0.462998 -0.107419
C69   C     C_R   0.801714 0.030569 0.536900 -0.116139
C70   C     C_R   0.186022 0.100957 0.469999 -0.120820
C71   C     C_R   0.255240 0.614889 0.567308 0.006743
C72   C     C_3   0.010474 0.232141 0.974390 -0.103511
C73   C     C_R   0.750402 0.577439 0.423615 0.002092
C74   C     C_R   0.754016 0.111232 0.567931 0.000357
C75   C     C_R   0.245644 0.089771 0.426548 0.014771
C76   C     C_R   0.260553 0.634385 0.851226 0.542647
C77   C     C_R   0.738110 0.641380 0.146471 0.542510
C78   C     C_R   0.760553 0.134384 0.851225 0.540961
C79   C     C_R   0.238109 0.141384 0.146470 0.543149
C80   C     C_R   0.272513 0.043545 0.645070 0.581916
C81   C     C_R   0.730212 0.047873 0.352920 0.551054
C82   C     C_R   0.772676 0.543039 0.644347 0.541685
C83   C     C_3   0.958999 0.222543 0.036998 -0.118893
C84   C     C_R   0.230226 0.547862 0.352868 0.553572
C85   C     C_R   0.466783 0.823196 0.644996 0.550755
C86   C     C_R   0.529575 0.824560 0.352736 0.546273
C87   C     C_R   0.939168 0.320243 0.639237 0.566461
C88   C     C_R   0.028826 0.323862 0.352522 0.541589
C89   C     C_R   0.260993 0.641365 0.641817 0.553190
C90   C     C_R   0.740610 0.632781 0.354757 0.553294
C91   C     C_R   0.760615 0.139944 0.642228 0.543029
C92   C     C_R   0.239766 0.135378 0.355683 0.552380
C93   C     C_3   0.446739 0.923611 0.037531 -0.128290
C94   C     C_R   0.307667 0.541361 0.963534 -0.151731
C95   C     C_3   0.498036 0.933092 0.974125 -0.108915
C96   C     C_3   0.946731 0.423605 0.037534 -0.128436
C97   C     C_3   0.998028 0.433095 0.974127 -0.108390
C98   C     C_3   0.407965 0.815762 0.000129 -0.141069
C99   C     C_3   0.548842 0.839842 0.010907 -0.109891
C100  C     C_3   0.907962 0.315753 0.000131 -0.141595
C101  C     C_3   0.048838 0.339849 0.010908 -0.109131
C102  C     C_3   0.459891 0.824960 0.938222 0.050995
C103  C     C_3   0.497251 0.830058 0.073089 0.051321
C104  C     C_3   0.959886 0.324959 0.938223 0.049964
Cr1   Cr    Cr6+3 0.229630 0.835900 0.747350 1.011459
Cr2   Cr    Cr6+3 0.614200 0.677120 0.250660 1.009403
Cr3   Cr    Cr6+3 0.885800 0.177120 0.749340 0.998887
Cr4   Cr    Cr6+3 0.114200 0.177120 0.250660 1.009074
Cr5   Cr    Cr6+3 0.770370 0.835900 0.252650 1.018007
Cr6   Cr    Cr6+3 0.729630 0.335900 0.747350 1.016976
Cr7   Cr    Cr6+3 0.270370 0.335900 0.252650 1.017403
Cr8   Cr    Cr6+3 0.387410 0.989850 0.750850 1.011768
Cr9   Cr    Cr6+3 0.612590 0.989850 0.249150 1.010071
Cr10  Cr    Cr6+3 0.887410 0.489850 0.750850 1.008911
Cr11  Cr    Cr6+3 0.112590 0.489850 0.249150 1.011286
Cr12  Cr    Cr6+3 0.385800 0.677120 0.749340 1.004720
H1    H     H_    0.349660 0.806059 0.994226 0.120607
H2    H     H_    0.872681 0.599927 0.552919 0.132995
H3    H     H_    0.674207 0.235461 0.422380 0.130928
H4    H     H_    0.371303 0.023318 0.548627 0.148857
H5    H     H_    0.338097 0.480307 0.570873 0.121406
H6    H     H_    0.639365 0.538638 0.436272 0.140084
H7    H     H_    0.837824 0.978724 0.570975 0.118977
H8    H     H_    0.134658 0.127452 0.448019 0.145931
H9    H     H_    0.420772 0.001681 0.064724 0.120657
H10   H     H_    0.514256 0.019304 0.947286 0.117689
H11   H     H_    0.920762 0.501671 0.064727 0.120813
H12   H     H_    0.607195 0.849570 0.016423 0.125361
H13   H     H_    0.014245 0.519310 0.947290 0.118147
H14   H     H_    0.537055 0.653547 0.948254 0.131509
H15   H     H_    0.443584 0.636402 0.064238 0.116216
H16   H     H_    0.037057 0.153554 0.948253 0.132584
H17   H     H_    0.943588 0.136395 0.064237 0.116352
H18   H     H_    0.358652 0.523846 0.939916 0.128752
H19   H     H_    0.663424 0.472581 0.068124 0.126164
H20   H     H_    0.858653 0.023851 0.939916 0.128609
H21   H     H_    0.163409 0.972608 0.068117 0.126299
H22   H     H_    0.345600 0.494760 0.068574 0.112046
H23   H     H_    0.849657 0.306044 0.994228 0.121024
H24   H     H_    0.672914 0.439257 0.939646 0.135146
H25   H     H_    0.845601 0.994766 0.068574 0.112016
H26   H     H_    0.172899 0.939286 0.939639 0.135182
H27   H     H_    0.127744 0.617831 0.049444 0.137287
H28   H     H_    0.830330 0.725825 0.928679 0.133530
H29   H     H_    0.627742 0.117818 0.049442 0.137316
H30   H     H_    0.330337 0.225818 0.928679 0.133910
H31   H     H_    0.138927 0.637997 0.923222 0.129673
H32   H     H_    0.823831 0.753799 0.054740 0.137889
H33   H     H_    0.638926 0.137984 0.923219 0.129118
H34   H     H_    0.107190 0.349584 0.016423 0.125753
H35   H     H_    0.323838 0.253788 0.054741 0.137906
H36   H     H_    0.429868 0.656107 0.548327 0.139624
H37   H     H_    0.448874 0.661786 0.421483 0.119966
H38   H     H_    0.927299 0.140946 0.544707 0.128562
H39   H     H_    0.959284 0.143836 0.420237 0.131017
H40   H     H_    0.549934 0.015117 0.443622 0.140553
H41   H     H_    0.529983 0.009648 0.572043 0.122299
H42   H     H_    0.024077 0.522228 0.440412 0.130877
H43   H     H_    0.991232 0.518600 0.565479 0.125890
H44   H     H_    0.381601 0.480481 0.388331 0.246296
H45   H     H_    0.178771 0.762615 0.547211 0.140166
H46   H     H_    0.422354 0.289077 0.435608 0.144863
H47   H     H_    0.357841 0.297277 0.504833 0.172010
H48   H     H_    0.433481 0.399499 0.505936 0.108713
H49   H     H_    0.624816 0.588058 0.618741 0.259710
H50   H     H_    0.531736 0.449693 0.590631 0.145233
H51   H     H_    0.582034 0.386993 0.518635 0.130674
H52   H     H_    0.544238 0.539490 0.511016 0.145570
H53   H     H_    0.878617 0.986980 0.383944 0.250106
H54   H     H_    0.939857 0.818623 0.435085 0.136113
H55   H     H_    0.880211 0.815710 0.508392 0.157480
H56   H     H_    0.863375 0.608387 0.426170 0.137674
H57   H     H_    0.944086 0.938614 0.500561 0.111524
H58   H     H_    0.108206 0.188909 0.576599 0.264143
H59   H     H_    0.042132 0.026386 0.626829 0.165273
H60   H     H_    0.113275 0.920977 0.609447 0.171773
H61   H     H_    0.062759 0.988290 0.536023 0.112518
H62   H     H_    0.675547 0.255472 0.548586 0.165389
H63   H     H_    0.357703 0.051068 0.420895 0.129387
H64   H     H_    0.176960 0.739591 0.420955 0.134564
N1    N     N_2   0.354114 0.441633 0.429678 -0.478971
N2    N     N_2   0.633073 0.523746 0.579569 -0.494872
N3    N     N_2   0.857204 0.948096 0.428864 -0.476340
N4    N     N_2   0.134309 0.107320 0.587724 -0.502227
O1    O     O_R   0.214270 0.709000 0.827470 -0.523423
O2    O     O_R   0.543270 0.717630 0.330160 -0.526831
O3    O     O_R   0.956730 0.217630 0.669840 -0.519626
O4    O     O_R   0.043270 0.217630 0.330160 -0.533416
O5    O     O_R   0.320620 0.625640 0.672920 -0.511907
O6    O     O_R   0.679380 0.625640 0.327080 -0.513579
O7    O     O_R   0.820620 0.125640 0.672920 -0.526968
O8    O     O_R   0.179380 0.125640 0.327080 -0.514240
O9    O     O_3   0.334280 0.834290 0.749180 -0.271763
O10   O     O_3   0.665720 0.834290 0.250820 -0.244233
O11   O     O_3   0.834280 0.334290 0.749180 -0.286273
O12   O     O_R   0.785730 0.709000 0.172530 -0.533270
O13   O     O_3   0.165720 0.334290 0.250820 -0.246065
O14   O     O_R   0.236160 0.958490 0.823130 -0.506085
O15   O     O_R   0.763840 0.958490 0.176870 -0.512325
O16   O     O_R   0.736160 0.458490 0.823130 -0.507280
O17   O     O_R   0.263840 0.458490 0.176870 -0.512345
O18   O     O_R   0.332080 0.075470 0.831280 -0.528956
O19   O     O_R   0.667920 0.075470 0.168720 -0.528226
O20   O     O_R   0.832080 0.575470 0.831280 -0.529105
O21   O     O_R   0.167920 0.575470 0.168720 -0.528350
O22   O     O_R   0.446300 0.918110 0.826620 -0.498564
O23   O     O_R   0.714270 0.209000 0.827470 -0.522662
O24   O     O_R   0.553700 0.918110 0.173380 -0.506991
O25   O     O_R   0.946300 0.418110 0.826620 -0.492300
O26   O     O_R   0.053700 0.418110 0.173380 -0.506883
O27   O     O_R   0.457110 0.716200 0.831760 -0.520748
O28   O     O_R   0.542890 0.716200 0.168240 -0.521511
O29   O     O_R   0.957110 0.216200 0.831760 -0.514572
O30   O     O_R   0.042890 0.216200 0.168240 -0.520830
O31   O     O_R   0.320980 0.624310 0.823030 -0.520345
O32   O     O_R   0.679020 0.624310 0.176970 -0.503362
O33   O     O_R   0.820980 0.124310 0.823030 -0.521344
O34   O     O_R   0.285730 0.209000 0.172530 -0.532958
O35   O     O_R   0.179020 0.124310 0.176970 -0.502238
O36   O     O_R   0.213890 0.710430 0.665540 -0.529056
O37   O     O_R   0.786110 0.710430 0.334460 -0.499032
O38   O     O_R   0.713890 0.210430 0.665540 -0.513948
O39   O     O_R   0.286110 0.210430 0.334460 -0.497511
O40   O     O_R   0.235810 0.959820 0.673020 -0.487492
O41   O     O_R   0.764190 0.959820 0.326980 -0.482381
O42   O     O_R   0.735810 0.459820 0.673020 -0.477059
O43   O     O_R   0.264190 0.459820 0.326980 -0.479397
O44   O     O_R   0.331700 0.076900 0.669350 -0.536535
O45   O     O_R   0.445950 0.919440 0.676520 -0.503388
O46   O     O_R   0.668300 0.076900 0.330650 -0.530959
O47   O     O_R   0.831700 0.576900 0.669350 -0.542639
O48   O     O_R   0.168300 0.576900 0.330650 -0.528693
O49   O     O_R   0.554050 0.919440 0.323480 -0.507758
O50   O     O_R   0.945950 0.419440 0.676520 -0.498093
O51   O     O_R   0.054050 0.419440 0.323480 -0.503077
O52   O     O_R   0.456730 0.717630 0.669840 -0.524355

loop_
_geom_bond_atom_site_label_1
_geom_bond_atom_site_label_2
_ccdc_geom_bond_type
C99   C103  S    
C82   O47   A    
C16   C21   A    
Cr8   O44   S    
C55   C59   A    
C8    H20   S    
C85   O52   A    
C41   C42   A    
C20   H28   S    
C19   C23   A    
C61   C98   S    
C76   O31   A    
C59   C82   S    
Cr8   O18   S    
Cr12  O5    S    
C43   H42   S    
C7    H59   S    
Cr7   O17   S    
Cr11  O51   S    
C57   C62   A    
Cr2   O10   S    
Cr1   O9    S    
C82   O42   A    
C1    C18   S    
C45   O27   A    
C87   O50   A    
C81   O41   A    
C13   C18   A    
C2    C29   A    
C63   N1    S    
H49   N2    S    
C64   C68   A    
C40   C87   S    
C37   C85   S    
C51   H56   S    
C61   C103  S    
C77   O12   A    
C35   H39   S    
C73   C90   S    
Cr12  O27   S    
C52   C74   A    
C78   O33   A    
C54   C58   A    
C95   C99   S    
C5    H50   S    
C72   C101  S    
C10   C94   A    
C49   C54   A    
Cr3   O3    S    
C3    C48   S    
Cr4   O13   S    
C33   C36   A    
C12   H25   S    
C7    H61   S    
Cr5   O12   S    
C25   H33   S    
C34   C35   A    
Cr9   O10   S    
C5    H52   S    
Cr1   O1    S    
C37   C42   A    
C17   O19   A    
C9    C13   A    
C78   O23   A    
H53   N3    S    
C21   C25   A    
C50   H14   S    
C51   C73   A    
C14   C39   S    
Cr3   O33   S    
Cr4   O35   S    
C9    H21   S    
C6    H54   S    
C100  C104  S    
C22   H30   S    
C16   C17   S    
Cr3   O29   S    
C4    H48   S    
C11   H24   S    
C3    C96   S    
C50   C99   S    
Cr7   O34   S    
C23   C27   A    
C4    N1    S    
C49   H45   S    
C32   H36   S    
C95   C102  S    
C41   H40   S    
C64   N2    S    
C3    C101  S    
C1    O14   A    
Cr9   O19   S    
C26   C31   A    
C93   C95   S    
C7    H60   S    
C93   C103  S    
C36   C41   A    
C53   C75   A    
C11   C15   A    
Cr12  O31   S    
C1    O18   A    
C67   H5    S    
Cr3   O11   S    
C72   H16   S    
C9    C31   A    
C48   O30   A    
C6    H55   S    
C34   H38   S    
C15   C20   A    
C53   H63   S    
C63   C67   A    
Cr8   O22   S    
C86   O49   A    
Cr10  O11   S    
C62   C66   A    
Cr6   O16   S    
C28   O20   A    
Cr9   O24   S    
C12   C16   A    
Cr9   O46   S    
C35   C38   A    
C85   O45   A    
Cr2   O2    S    
C90   O37   A    
Cr10  O50   S    
C24   H32   S    
C68   H6    S    
Cr10  O47   S    
Cr5   O41   S    
C79   O34   A    
C87   O3    A    
C72   C104  S    
C51   C55   A    
C36   C86   S    
C68   C73   A    
C98   C102  S    
C91   O7    A    
C101  H34   S    
C56   C60   A    
C96   H11   S    
C38   C88   S    
C21   H29   S    
C74   C91   S    
Cr9   O49   S    
C43   C44   A    
C45   O22   A    
C46   O24   A    
C100  H23   S    
C58   C84   S    
C80   O40   A    
C50   C102  S    
Cr11  O13   S    
C60   C81   S    
C97   C101  S    
C79   O35   A    
C71   C89   S    
C88   O4    A    
C8    C12   A    
Cr1   O36   S    
Cr2   O28   S    
C96   C97   S    
Cr12  O52   S    
C59   C64   A    
C4    H47   S    
C69   C74   A    
C28   O16   A    
C32   C37   A    
C80   O44   A    
C91   O38   A    
C24   C29   A    
Cr11  O48   S    
C90   O6    A    
C22   C26   A    
C75   C92   S    
C46   O28   A    
C57   H4    S    
Cr5   O10   S    
Cr12  O9    S    
C7    N4    S    
C4    H46   S    
Cr1   O14   S    
C93   H9    S    
C48   O26   A    
C60   C65   A    
C86   O2    A    
C81   O46   A    
C47   O25   A    
C10   C14   A    
C56   H3    S    
C34   C40   A    
Cr5   O15   S    
C42   H41   S    
Cr2   O6    S    
H58   N4    S    
C27   C76   S    
Cr6   O38   S    
Cr7   O39   S    
H44   N1    S    
Cr6   O11   S    
Cr5   O37   S    
Cr10  O25   S    
C98   H1    S    
C65   N3    S    
C62   C80   S    
C25   C30   A    
C50   C61   S    
C88   O51   A    
C66   N4    S    
C26   H35   S    
Cr10  O20   S    
C19   H27   S    
C47   C104  S    
Cr11  O26   S    
C18   C22   A    
C14   C19   A    
Cr4   O4    S    
C92   O39   A    
C58   C63   A    
Cr6   O42   S    
C53   C57   A    
C31   C79   S    
C99   H12   S    
C6    H57   S    
Cr1   O40   S    
Cr2   O32   S    
C46   C103  S    
C96   C100  S    
C2    H19   S    
C6    N3    S    
C83   C100  S    
C8    C30   A    
C32   C33   A    
Cr11  O21   S    
C5    N2    S    
C33   H37   S    
Cr7   O43   S    
C38   C43   A    
Cr7   O13   S    
C89   O36   A    
C3    C83   S    
Cr8   O45   S    
C95   H10   S    
C15   C28   S    
C66   C70   A    
C23   H31   S    
C65   C69   A    
C52   C56   A    
C47   O29   A    
C94   H18   S    
C54   H64   S    
C17   O15   A    
C67   C71   A    
C5    H51   S    
C39   O17   A    
C89   O5    A    
C84   O48   A    
Cr6   O23   S    
C52   H62   S    
Cr8   O9    S    
C83   H17   S    
C97   C104  S    
C45   C102  S    
C61   H15   S    
C72   C83   S    
C97   H13   S    
C30   C78   S    
C70   H8    S    
C40   C44   A    
C29   C77   S    
C49   C71   A    
Cr3   O7    S    
C70   C75   A    
C44   H43   S    
C69   H7    S    
Cr4   O8    S    
C27   C94   A    
C2    C11   A    
C10   H22   S    
C39   O21   A    
C84   O43   A    
C93   C98   S    
C20   C24   A    
Cr4   O30   S    
C76   O1    A    
C92   O8    A    
C77   O32   A    
C55   H2    S    
C13   H26   S    
