data_mof_unit_10424.cif
_audit_creation_date              2012-12-10T18:50:50-0500
_audit_creation_method            fapswitch 2.2
_symmetry_space_group_name_H-M    P1
_symmetry_Int_Tables_number       1
_space_group_crystal_system       triclinic
_cell_length_a                    10.679118
_cell_length_b                    9.847086
_cell_length_c                    15.755472
_cell_angle_alpha                 90.029784
_cell_angle_beta                  90.158683
_cell_angle_gamma                 89.965367
_cell_volume                      1656.81009162

loop_
_atom_site_label
_atom_site_type_symbol
_atom_type_description
_atom_site_fract_x
_atom_site_fract_y
_atom_site_fract_z
_atom_type_partial_charge
C1    C     C_R   0.260375 0.500035 0.500038 0.873815
C2    C     C_3   0.586096 0.388867 0.947690 -0.447482
C3    C     C_3   0.596121 0.388095 0.047225 -0.023183
C4    C     C_1   0.495572 0.500568 0.825456 -0.029109
C5    C     C_1   0.500973 0.499239 0.174389 -0.097048
C6    C     C_1   0.500131 0.499892 0.249577 -0.127832
C7    C     C_R   0.066277 0.411220 0.446390 -0.215678
C8    C     C_R   0.066540 0.588348 0.554125 -0.199614
C9    C     C_R   0.937325 0.412569 0.443601 -0.042464
C10   C     C_R   0.937595 0.586389 0.557147 -0.034458
C11   C     C_R   0.873011 0.499660 0.500251 -0.180048
C12   C     C_R   0.128703 0.500036 0.500106 -0.043640
C13   C     C_R   0.579531 0.071909 0.551624 -0.039937
C14   C     C_R   0.579488 0.928059 0.551657 -0.035680
C15   C     C_R   0.499348 0.500000 0.338305 0.948159
C16   C     C_R   0.420454 0.928092 0.448311 -0.043591
C17   C     C_R   0.420447 0.071946 0.448313 -0.036984
C18   C     C_R   0.739974 0.499925 0.500084 0.979032
C19   C     C_R   0.499241 0.500012 0.661669 0.955873
C20   C     C_3   0.537916 0.641124 0.050063 -0.428964
C21   C     C_3   0.365828 0.469590 0.051330 -0.441089
C22   C     C_3   0.361469 0.464172 0.952747 -0.188460
C23   C     C_3   0.544549 0.639995 0.951898 -0.177143
C24   C     C_1   0.497514 0.500128 0.750306 -0.072242
C25   C     C_3   0.501478 0.497677 0.082700 0.143503
C26   C     C_3   0.494140 0.501337 0.917052 0.100293
H1    H     H_    0.356857 0.873635 0.406994 0.141756
H2    H     H_    0.356835 0.126435 0.407007 0.137604
H3    H     H_    0.468559 0.716968 0.073238 0.218690
H4    H     H_    0.303357 0.549716 0.077334 0.237292
H5    H     H_    0.329816 0.372518 0.077745 0.165307
H6    H     H_    0.629976 0.673207 0.076586 0.188152
H7    H     H_    0.342298 0.356504 0.935271 0.130381
H8    H     H_    0.645640 0.645572 0.934724 0.182369
H9    H     H_    0.678381 0.403202 0.916526 0.237603
H10   H     H_    0.553352 0.288646 0.923270 0.164822
H11   H     H_    0.118685 0.345686 0.403916 0.167104
H12   H     H_    0.119172 0.653655 0.596759 0.179090
H13   H     H_    0.643151 0.126362 0.592929 0.147449
H14   H     H_    0.643004 0.873602 0.593024 0.160452
N1    N     N_R   0.499970 0.857200 0.499980 -0.095031
N2    N     N_R   0.499970 0.142800 0.499980 -0.092160
O1    O     O_R   0.316750 0.614620 0.499990 -0.626523
O2    O     O_R   0.316750 0.385380 0.499990 -0.622905
O3    O     O_R   0.499990 0.614720 0.377140 -0.616898
O4    O     O_R   0.499990 0.385280 0.377140 -0.602989
O5    O     O_R   0.683220 0.614710 0.500000 -0.607562
O6    O     O_R   0.683220 0.385290 0.500000 -0.608026
O7    O     O_R   0.499980 0.614620 0.622860 -0.602052
O8    O     O_R   0.499980 0.385380 0.622860 -0.622372
Zn1   Zn    Zn3+2 0.499980 0.653120 0.500000 0.993371
Zn2   Zn    Zn3+2 0.499980 0.346880 0.500000 0.992658
C27   C     C_2   0.485146 0.765033 0.912597 0.924601
O9    O     O_2   0.380501 0.802213 0.933545 -0.585395
O10   O     O_R   0.552527 0.839535 0.852592 -0.802468
H15   H     H_    0.504222 0.920993 0.830633 0.348606
C28   C     C_2   0.252853 0.543173 0.913722 1.011882
O11   O     O_2   0.185123 0.615053 0.957281 -0.554928
O12   O     O_R   0.226800 0.528426 0.827175 -0.814124
H16   H     H_    0.152149 0.584456 0.808149 0.358856
C29   C     C_2   0.729012 0.421741 0.078004 0.505254
H17   H     H_    0.748489 0.422997 0.145639 0.099910
O13   O     O_2   0.814406 0.448325 0.029367 -0.555413
C30   C     C_2   0.561310 0.246544 0.079050 0.363576
H18   H     H_    0.474512 0.199841 0.058187 0.092150
O14   O     O_2   0.629175 0.182614 0.127216 -0.558732
C31   C     C_2   0.874379 0.326950 0.378461 0.938708
O15   O     O_2   0.915517 0.213969 0.362125 -0.600623
O16   O     O_R   0.771370 0.377049 0.333469 -0.818937
H19   H     H_    0.737279 0.309037 0.290968 0.361417
C32   C     C_2   0.874949 0.670076 0.623192 0.915533
O17   O     O_2   0.915505 0.782948 0.640466 -0.610354
O18   O     O_R   0.773108 0.617977 0.668118 -0.820340
H20   H     H_    0.739988 0.683970 0.712106 0.357208

loop_
_geom_bond_atom_site_label_1
_geom_bond_atom_site_label_2
_ccdc_geom_bond_type
C2    H9    S    
C4    C26   S    
O10   H15   S    
C9    C31   S    
C11   C18   S    
C20   C25   S    
C13   C14   A    
C18   O6    A    
C9    C11   A    
O18   H20   S    
C19   O7    A    
C1    O2    A    
O8    Zn2   S    
C20   C23   S    
C3    C25   S    
C8    C12   A    
C23   H8    S    
C18   O5    A    
O2    Zn2   S    
C22   C28   S    
C3    C29   S    
C2    C3    S    
C7    H11   S    
O12   H16   S    
C2    C26   S    
C27   O9    D    
C30   H18   S    
C21   H5    S    
C19   O8    A    
O1    Zn1   S    
C28   O11   D    
C5    C6    T    
C1    C12   S    
C8    H12   S    
C16   H1    S    
C14   N1    A    
C5    C25   S    
C21   C22   S    
C13   N2    A    
N1    Zn1   S    
C23   C27   S    
C7    C9    A    
C20   H3    S    
C27   O10   S    
C22   C26   S    
C29   H17   S    
C4    C24   T    
O16   H19   S    
C7    C12   A    
C28   O12   S    
C13   H13   S    
C10   C11   A    
O3    Zn1   S    
C10   C32   S    
C14   H14   S    
C31   O15   D    
O4    Zn2   S    
C21   H4    S    
O6    Zn2   S    
C32   O17   D    
C32   O18   S    
C20   H6    S    
C23   C26   S    
C2    H10   S    
C29   O13   D    
C22   H7    S    
C21   C25   S    
C17   N2    A    
O5    Zn1   S    
C15   O4    A    
O7    Zn1   S    
C6    C15   S    
C3    C30   S    
C17   H2    S    
C19   C24   S    
C16   N1    A    
C1    O1    A    
C8    C10   A    
N2    Zn2   S    
C16   C17   A    
C31   O16   S    
C15   O3    A    
C30   O14   D    
