data_mof_unit_35004.cif
_audit_creation_date              2012-12-11T15:24:39-0500
_audit_creation_method            fapswitch 2.2
_symmetry_space_group_name_H-M    P1
_symmetry_Int_Tables_number       1
_space_group_crystal_system       triclinic
_cell_length_a                    23.025724
_cell_length_b                    6.972326
_cell_length_c                    20.69879
_cell_angle_alpha                 89.691138
_cell_angle_beta                  93.099973
_cell_angle_gamma                 90.431116
_cell_volume                      3318.04493934

loop_
_atom_site_label
_atom_site_type_symbol
_atom_type_description
_atom_site_fract_x
_atom_site_fract_y
_atom_site_fract_z
_atom_type_partial_charge
O1    O     O_R   0.188030 0.379840 0.189340 -0.528709
O2    O     O_R   0.811970 0.620160 0.810660 -0.528709
O3    O     O_R   0.311970 0.879840 0.310660 -0.528412
O4    O     O_R   0.688030 0.120160 0.689340 -0.528412
O5    O     O_R   0.307090 0.708420 0.185790 -0.537215
O6    O     O_R   0.692910 0.291580 0.814210 -0.537215
O7    O     O_R   0.192910 0.208420 0.314210 -0.536822
O8    O     O_R   0.807090 0.791580 0.685790 -0.536822
C1    C     C_R   0.326797 0.542840 0.170761 0.733279
C2    C     C_R   0.673203 0.457160 0.829239 0.733279
C3    C     C_R   0.173314 0.041006 0.329170 0.734613
C4    C     C_R   0.826686 0.958994 0.670830 0.734613
O9    O     O_R   0.188180 0.709480 0.181650 -0.537298
O10   O     O_R   0.811820 0.290520 0.818350 -0.537298
O11   O     O_R   0.311820 0.209480 0.318350 -0.537560
O12   O     O_R   0.688180 0.790520 0.681650 -0.537560
O13   O     O_R   0.192210 0.880960 0.306500 -0.533380
O14   O     O_R   0.807790 0.119040 0.693500 -0.533380
O15   O     O_R   0.307790 0.380960 0.193500 -0.532685
O16   O     O_R   0.692210 0.619040 0.806500 -0.532685
C5    C     C_R   0.169431 0.539627 0.163447 0.740440
C6    C     C_R   0.830569 0.460373 0.836552 0.740441
C7    C     C_R   0.330548 0.039796 0.336577 0.739914
C8    C     C_R   0.669452 0.960204 0.663423 0.739914
O17   O     O_3   0.251460 0.546730 0.290970 -0.354967
O18   O     O_3   0.748540 0.453270 0.709030 -0.354967
O19   O     O_3   0.248540 0.046730 0.209030 -0.355170
O20   O     O_3   0.751460 0.953270 0.790970 -0.355170
V1    V     V_3+5 0.249730 0.821120 0.242400 1.496140
V2    V     V_3+5 0.750270 0.178880 0.757600 1.496140
V3    V     V_3+5 0.250270 0.321120 0.257600 1.495309
V4    V     V_3+5 0.749730 0.678880 0.742400 1.495309
C9    C     C_R   0.579355 0.826257 0.608578 -0.231136
C10   C     C_R   0.420645 0.173742 0.391422 -0.231136
C11   C     C_R   0.920500 0.327962 0.891209 -0.230344
C12   C     C_R   0.079500 0.672038 0.108790 -0.230344
C13   C     C_R   0.621729 0.972262 0.611945 -0.111925
C14   C     C_R   0.378271 0.027738 0.388055 -0.111926
C15   C     C_R   0.878364 0.472721 0.887914 -0.112064
C16   C     C_R   0.121636 0.527279 0.112086 -0.112064
C17   C     C_R   0.616926 0.128531 0.567460 0.088223
C18   C     C_R   0.383074 0.871469 0.432540 0.088223
C19   C     C_R   0.883399 0.627609 0.932446 0.087914
C20   C     C_R   0.116600 0.372391 0.067554 0.087914
C21   C     C_R   0.567336 0.142541 0.523757 0.054692
C22   C     C_R   0.432664 0.857459 0.476243 0.054692
C23   C     C_R   0.932953 0.641447 0.976239 0.055080
C24   C     C_R   0.067047 0.358553 0.023761 0.055080
C25   C     C_R   0.524696 0.994803 0.522058 0.035797
C26   C     C_R   0.475304 0.005197 0.477942 0.035798
C27   C     C_R   0.975330 0.494913 0.977899 0.035828
C28   C     C_R   0.024670 0.505086 0.022100 0.035828
C29   C     C_R   0.531424 0.835867 0.564067 0.095288
C30   C     C_R   0.468576 0.164133 0.435933 0.095288
C31   C     C_R   0.968392 0.337387 0.935762 0.095309
C32   C     C_R   0.031607 0.662613 0.064238 0.095309
C33   C     C_R   0.558970 0.300608 0.481553 -0.153675
C34   C     C_R   0.441030 0.699392 0.518447 -0.153675
C35   C     C_R   0.941528 0.798123 0.018591 -0.153666
C36   C     C_R   0.058472 0.201877 0.981409 -0.153666
C37   C     C_R   0.510384 0.310931 0.438396 -0.180250
C38   C     C_R   0.489616 0.689069 0.561604 -0.180251
C39   C     C_R   0.990066 0.808238 0.061839 -0.180277
C40   C     C_R   0.009934 0.191762 0.938161 -0.180277
H1    H     H_    0.583139 0.705546 0.641782 0.138332
H2    H     H_    0.416861 0.294454 0.358218 0.138332
H3    H     H_    0.916539 0.208305 0.857943 0.138737
H4    H     H_    0.083461 0.791695 0.142057 0.138737
H5    H     H_    0.589200 0.419659 0.481584 0.169291
H6    H     H_    0.410800 0.580341 0.518416 0.169291
H7    H     H_    0.911505 0.916241 0.018617 0.169445
H8    H     H_    0.088495 0.083759 0.981383 0.169445
H9    H     H_    0.505508 0.434901 0.406789 0.133676
H10   H     H_    0.494491 0.565099 0.593211 0.133676
H11   H     H_    0.995120 0.931133 0.093559 0.133881
H12   H     H_    0.004880 0.068867 0.906441 0.133881
C41   C     C_3   0.045667 0.088108 0.529920 0.124925
C42   C     C_3   0.954333 0.911892 0.470079 0.124925
C43   C     C_3   0.457147 0.600105 0.969196 0.117045
C44   C     C_3   0.542852 0.399895 0.030804 0.117045
C45   C     C_3   0.020178 0.893140 0.550559 0.123668
C46   C     C_3   0.979822 0.106860 0.449441 0.123668
C47   C     C_3   0.477666 0.399630 0.949192 0.121334
C48   C     C_3   0.522334 0.600370 0.050808 0.121334
C49   C     C_1   0.872254 0.964104 0.625290 -0.173749
C50   C     C_1   0.127746 0.035896 0.374709 -0.173749
C51   C     C_1   0.627553 0.456841 0.874982 -0.173942
C52   C     C_1   0.372447 0.543159 0.125018 -0.173942
C53   C     C_3   0.983472 0.170692 0.521359 0.123121
C54   C     C_3   0.016528 0.829308 0.478640 0.123122
C55   C     C_3   0.521444 0.666513 0.979097 0.127881
C56   C     C_3   0.478556 0.333487 0.020903 0.127880
C57   C     C_3   0.958021 0.975713 0.541681 0.047700
C58   C     C_3   0.041979 0.024287 0.458319 0.047700
C59   C     C_3   0.541932 0.465749 0.959126 0.039972
C60   C     C_3   0.458068 0.534251 0.040874 0.039972
C61   C     C_1   0.910742 0.964843 0.587507 0.002842
C62   C     C_1   0.089258 0.035157 0.412492 0.002842
C63   C     C_1   0.589093 0.453462 0.912977 0.003700
C64   C     C_1   0.410907 0.546538 0.087023 0.003700
I1    I     I_    0.687487 0.329911 0.560329 -0.412124
I2    I     I_    0.312513 0.670089 0.439671 -0.412124
I3    I     I_    0.813251 0.826920 0.939467 -0.415256
I4    I     I_    0.186749 0.173079 0.060533 -0.415256
C65   C     C_3   0.043591 0.782609 0.609986 -0.780559
H13   H     H_    0.082587 0.700131 0.598058 0.220148
H14   H     H_    0.055657 0.884475 0.649545 0.218425
H15   H     H_    0.009730 0.684667 0.627570 0.209203
C66   C     C_3   0.956409 0.217391 0.390014 -0.780559
H16   H     H_    0.917413 0.299868 0.401942 0.220148
H17   H     H_    0.990270 0.315334 0.372430 0.209204
H18   H     H_    0.944343 0.115525 0.350455 0.218425
C67   C     C_3   0.452095 0.286125 0.891762 -0.764405
H19   H     H_    0.405540 0.254327 0.898659 0.222494
H20   H     H_    0.455922 0.371403 0.846758 0.211912
H21   H     H_    0.475813 0.149614 0.887309 0.212178
C68   C     C_3   0.547905 0.713875 0.108238 -0.764406
H22   H     H_    0.594460 0.745673 0.101341 0.222494
H23   H     H_    0.524186 0.850387 0.112690 0.212178
H24   H     H_    0.544077 0.628598 0.153242 0.211912
C69   C     C_3   0.097771 0.189241 0.563275 -0.748710
H25   H     H_    0.087697 0.227090 0.613433 0.212632
H26   H     H_    0.135990 0.093027 0.564575 0.224310
H27   H     H_    0.108108 0.321848 0.536355 0.209500
C70   C     C_3   0.902228 0.810759 0.436724 -0.748710
H28   H     H_    0.912303 0.772910 0.386567 0.212632
H29   H     H_    0.891891 0.678152 0.463645 0.209499
H30   H     H_    0.864010 0.906974 0.435425 0.224310
C71   C     C_3   0.408744 0.713200 0.934017 -0.747323
H31   H     H_    0.420735 0.744895 0.883843 0.213365
H32   H     H_    0.367867 0.627666 0.932597 0.221184
H33   H     H_    0.401760 0.849750 0.959475 0.215627
C72   C     C_3   0.591256 0.286801 0.065983 -0.747324
H34   H     H_    0.579265 0.255104 0.116157 0.213365
H35   H     H_    0.598240 0.150251 0.040525 0.215627
H36   H     H_    0.632133 0.372336 0.067403 0.221184
C73   C     C_3   0.036585 0.645277 0.447989 -0.785471
H37   H     H_    0.001793 0.537313 0.449368 0.235404
H38   H     H_    0.044688 0.670229 0.396252 0.211444
H39   H     H_    0.077062 0.593849 0.473576 0.219637
C74   C     C_3   0.963415 0.354723 0.552011 -0.785470
H40   H     H_    0.998207 0.462686 0.550632 0.235404
H41   H     H_    0.922938 0.406152 0.526424 0.219637
H42   H     H_    0.955311 0.329771 0.603748 0.211444
C75   C     C_3   0.449487 0.156094 0.049206 -0.771381
H43   H     H_    0.467162 0.021473 0.031892 0.218009
H44   H     H_    0.455756 0.158010 0.102741 0.208037
H45   H     H_    0.402179 0.157985 0.035736 0.221592
C76   C     C_3   0.550513 0.843907 0.950794 -0.771386
H46   H     H_    0.532839 0.978527 0.968109 0.218010
H47   H     H_    0.597820 0.842014 0.964263 0.221593
H48   H     H_    0.544243 0.841992 0.897259 0.208038

loop_
_geom_bond_atom_site_label_1
_geom_bond_atom_site_label_2
_ccdc_geom_bond_type
C34   C38   A    
O1    C5    A    
C46   C58   S    
O19   V1    S    
C68   H22   S    
O13   V1    S    
C47   C67   S    
O3    C7    A    
C56   C60   S    
C44   C48   S    
O15   V3    S    
C10   H2    S    
C75   H43   S    
C20   I4    S    
C9    H1    S    
C58   C62   S    
C42   C54   S    
O7    C3    A    
C47   C56   S    
C65   H14   S    
C21   C33   A    
C26   C30   A    
C46   C53   S    
C4    C49   S    
O9    V1    S    
C14   C18   A    
C68   H23   S    
C1    C52   S    
C18   C22   A    
O4    C8    A    
C59   C63   S    
C36   H8    S    
C42   C57   S    
C43   C71   S    
C41   C58   S    
O1    V3    S    
O2    V4    S    
C48   C60   S    
O3    V1    S    
C12   C16   A    
C1    O15   A    
C2    O16   A    
C48   C68   S    
C69   H27   S    
O2    C6    A    
C70   H30   S    
C54   C58   S    
O14   V2    S    
C48   C55   S    
C21   C25   A    
C16   C20   A    
O5    V1    S    
C67   H21   S    
O11   C7    A    
C73   H37   S    
O12   C8    A    
C22   C34   A    
O17   V1    S    
C76   H47   S    
O10   V2    S    
C18   I2    S    
C75   H44   S    
C24   C36   A    
C51   C63   T    
C9    C29   A    
C73   H39   S    
C45   C65   S    
C2    C51   S    
C23   C35   A    
O7    V3    S    
C11   C31   A    
C27   C28   A    
O8    V4    S    
C46   C66   S    
O20   V4    S    
C49   C61   T    
C66   H16   S    
C74   H42   S    
C55   C76   S    
O18   V4    S    
C34   H6    S    
C23   C27   A    
C37   H9    S    
O19   V3    S    
C53   C57   S    
C9    C13   A    
C44   C72   S    
C66   H18   S    
C67   H20   S    
C74   H41   S    
C44   C56   S    
C11   C15   A    
O5    C1    A    
C12   C32   A    
C72   H36   S    
C45   C57   S    
C29   C38   A    
C42   C46   S    
C41   C45   S    
O8    C4    A    
C47   C59   S    
C31   C40   A    
C8    C13   S    
C40   H12   S    
C32   C39   A    
O9    C5    A    
C65   H15   S    
C44   C59   S    
C33   C37   A    
C73   H38   S    
C69   H25   S    
C52   C64   T    
C45   C54   S    
C76   H48   S    
O6    V2    S    
C10   C30   A    
C72   H34   S    
C68   H24   S    
C57   C61   S    
C75   H45   S    
C70   H29   S    
C67   H19   S    
O16   V4    S    
C3    O13   A    
C56   C75   S    
C10   C14   A    
C43   C55   S    
O17   V3    S    
O6    C2    A    
C15   C19   A    
C12   H4    S    
O11   V3    S    
C41   C53   S    
C30   C37   A    
C54   C73   S    
O12   V4    S    
C7    C14   S    
C65   H13   S    
C22   C26   A    
C35   C39   A    
C36   C40   A    
C53   C74   S    
C71   H33   S    
C66   H17   S    
C71   H31   S    
C43   C60   S    
C76   H46   S    
C43   C47   S    
O10   C6    A    
C70   H28   S    
C5    C16   S    
C39   H11   S    
C25   C29   A    
C6    C15   S    
C60   C64   S    
O20   V2    S    
C17   I1    S    
C27   C31   A    
C13   C17   A    
C50   C62   T    
C19   I3    S    
C69   H26   S    
C41   C69   S    
C11   H3    S    
C55   C59   S    
C28   C32   A    
C24   C28   A    
C25   C26   A    
C4    O14   A    
C72   H35   S    
C17   C21   A    
C38   H10   S    
C3    C50   S    
C33   H5    S    
C74   H40   S    
C42   C70   S    
C19   C23   A    
O4    V2    S    
C20   C24   A    
C35   H7    S    
C71   H32   S    
O18   V2    S    
