data_mof_unit_54188.cif
_audit_creation_date              2012-12-11T15:54:53-0500
_audit_creation_method            fapswitch 2.2
_symmetry_space_group_name_H-M    P1
_symmetry_Int_Tables_number       1
_space_group_crystal_system       triclinic
_cell_length_a                    17.56405
_cell_length_b                    24.286936
_cell_length_c                    15.034847
_cell_angle_alpha                 90.026125
_cell_angle_beta                  125.677819
_cell_angle_gamma                 89.953685
_cell_volume                      5209.76014041

loop_
_atom_site_label
_atom_site_type_symbol
_atom_type_description
_atom_site_fract_x
_atom_site_fract_y
_atom_site_fract_z
_atom_type_partial_charge
C1    C     C_R   0.901825 0.876473 0.091918 -0.136121
C2    C     C_R   0.147353 0.847295 0.090815 -0.152500
C3    C     C_R   0.315474 0.641047 0.998652 -0.011281
C4    C     C_R   0.700745 0.999574 0.632228 0.048200
C5    C     C_R   0.200727 0.499571 0.632262 0.048786
C6    C     C_R   0.063717 0.999733 0.366413 -0.022272
C7    C     C_R   0.487402 0.500006 0.311879 0.001486
C8    C     C_R   0.268209 0.953269 0.256664 -0.137844
C9    C     C_R   0.269028 0.046161 0.258256 -0.087514
C10   C     C_R   0.768223 0.453280 0.256491 -0.140757
C11   C     C_R   0.769073 0.546139 0.258437 -0.087673
C12   C     C_R   0.018672 0.045989 0.750371 -0.140089
C13   C     C_R   0.650802 0.651675 0.091100 -0.158189
C14   C     C_R   0.018376 0.953554 0.750565 -0.139427
C15   C     C_R   0.449625 0.545937 0.696084 -0.144296
C16   C     C_R   0.449658 0.454056 0.696079 -0.145023
C17   C     C_3   0.313832 0.963577 0.491253 -0.248577
C18   C     C_3   0.407596 0.072519 0.590595 -0.361093
C19   C     C_3   0.813589 0.461703 0.489688 -0.250639
C20   C     C_3   0.906753 0.570549 0.591557 -0.357987
C21   C     C_R   0.649971 0.348010 0.090877 -0.151589
C22   C     C_R   0.325064 0.999491 0.291735 0.016889
C23   C     C_R   0.825095 0.499473 0.291679 0.018888
C24   C     C_R   0.047394 0.999571 0.722957 -0.011146
C25   C     C_R   0.432398 0.499995 0.633242 -0.006936
C26   C     C_R   0.115535 0.815607 0.999256 -0.007009
C27   C     C_R   0.116597 0.184016 0.999351 -0.004053
C28   C     C_R   0.620963 0.317114 0.999129 -0.008275
C29   C     C_R   0.901621 0.123385 0.091841 -0.137321
C30   C     C_R   0.622050 0.682493 0.999357 -0.005158
C31   C     C_3   0.125839 0.048093 0.544076 -0.406765
C32   C     C_3   0.964491 0.005013 0.427977 -0.393241
C33   C     C_3   0.409315 0.551733 0.379585 -0.402216
C34   C     C_3   0.409496 0.448241 0.379644 -0.400052
C35   C     C_3   0.119842 0.048671 0.642367 -0.402500
C36   C     C_3   0.959859 0.003593 0.525883 -0.398207
C37   C     C_3   0.392776 0.551699 0.468812 -0.418117
C38   C     C_3   0.392909 0.448284 0.468831 -0.419519
C39   C     C_3   0.109190 0.945039 0.532056 -0.411903
C40   C     C_R   0.404714 0.371018 0.090781 -0.128834
C41   C     C_3   0.562451 0.500018 0.505408 -0.430437
C42   C     C_3   0.067190 0.999481 0.466429 0.413825
C43   C     C_3   0.467277 0.500001 0.392221 0.418735
C44   C     C_3   0.059743 0.999335 0.634133 0.404159
C45   C     C_3   0.439505 0.499992 0.542112 0.415478
C46   C     C_R   0.809714 0.123167 0.907991 -0.138641
C47   C     C_R   0.809877 0.876651 0.908024 -0.138577
C48   C     C_R   0.311170 0.625679 0.907087 -0.142734
C49   C     C_R   0.311351 0.374149 0.907089 -0.142829
C50   C     C_3   0.107355 0.945617 0.632920 -0.401135
C51   C     C_R   0.404491 0.628831 0.090737 -0.130335
C52   C     C_3   0.546217 0.499993 0.594035 -0.382014
C53   C     C_3   0.652757 0.179919 0.896404 -0.407916
C54   C     C_3   0.653348 0.819742 0.896780 -0.395714
C55   C     C_3   0.154813 0.682907 0.892189 -0.408874
C56   C     C_3   0.155491 0.316645 0.892231 -0.397305
C57   C     C_3   0.098783 0.731197 0.893208 -0.409786
C58   C     C_3   0.099700 0.268286 0.893186 -0.408557
C59   C     C_3   0.599535 0.230240 0.896547 -0.406502
C60   C     C_3   0.600392 0.769337 0.896844 -0.405604
C61   C     C_3   0.303595 0.739495 0.003257 -0.403274
C62   C     C_R   0.055710 0.847431 0.908422 -0.151366
C63   C     C_3   0.304540 0.260198 0.003584 -0.402659
C64   C     C_3   0.803292 0.235381 0.000069 -0.393496
C65   C     C_3   0.804043 0.764312 0.000089 -0.392995
C66   C     C_3   0.754566 0.179653 0.101761 -0.404624
C67   C     C_3   0.755384 0.819903 0.102120 -0.404683
C68   C     C_3   0.251944 0.679455 0.097414 -0.400804
C69   C     C_3   0.252425 0.320217 0.097428 -0.400819
C70   C     C_3   0.756128 0.181214 0.999520 0.407236
C71   C     C_3   0.756755 0.818437 0.999741 0.398865
C72   C     C_3   0.256915 0.684272 0.997734 0.409236
C73   C     C_R   0.056277 0.152365 0.908398 -0.150716
C74   C     C_3   0.257532 0.315381 0.997846 0.401064
C75   C     C_3   0.162959 0.766320 0.998391 0.411094
C76   C     C_3   0.163924 0.233275 0.998523 0.407296
C77   C     C_3   0.666426 0.266397 0.999170 0.408937
C78   C     C_3   0.667428 0.733188 0.999441 0.405298
C79   C     C_3   0.247852 0.787569 0.002242 -0.393917
C80   C     C_3   0.249037 0.212071 0.002713 -0.394279
C81   C     C_3   0.750193 0.285157 0.998773 -0.400288
C82   C     C_3   0.751225 0.714479 0.998994 -0.400796
C83   C     C_3   0.197812 0.728769 0.098951 -0.410293
C84   C     C_R   0.559838 0.348691 0.907890 -0.145987
C85   C     C_3   0.198394 0.270898 0.098908 -0.409337
C86   C     C_3   0.702728 0.230549 0.102400 -0.406402
C87   C     C_3   0.703635 0.769011 0.102695 -0.405371
C88   C     C_3   0.470619 0.943713 0.383531 -0.444205
C89   C     C_3   0.475755 0.045966 0.363428 -0.475693
C90   C     C_3   0.970878 0.443875 0.382771 -0.443418
C91   C     C_3   0.975642 0.546274 0.364104 -0.475067
C92   C     C_R   0.747187 0.953990 0.695349 -0.154064
C93   C     C_R   0.746444 0.045558 0.694725 -0.155034
C94   C     C_R   0.247104 0.453985 0.695407 -0.146288
C95   C     C_R   0.560348 0.651137 0.907969 -0.145988
C96   C     C_R   0.246352 0.545562 0.694805 -0.147126
C97   C     C_3   0.573473 0.942458 0.480620 -0.420750
C98   C     C_3   0.581981 0.043572 0.452296 -0.413734
C99   C     C_3   0.073754 0.442594 0.479947 -0.420207
C100  C     C_3   0.081879 0.543870 0.452795 -0.413070
C101  C     C_3   0.438479 0.008029 0.494387 1.124633
C102  C     C_3   0.938414 0.507273 0.494496 1.125445
C103  C     C_3   0.425184 0.999293 0.381678 0.188578
C104  C     C_3   0.925198 0.499200 0.381676 0.187321
C105  C     C_3   0.602704 0.999359 0.537831 0.314486
C106  C     C_R   0.148114 0.152440 0.090961 -0.158968
C107  C     C_3   0.102724 0.499329 0.537831 0.312692
C108  C     C_3   0.545287 0.012471 0.583527 -0.569039
C109  C     C_3   0.045203 0.511893 0.583634 -0.570478
C110  C     C_R   0.048124 0.045689 0.304009 -0.142785
C111  C     C_R   0.048623 0.954029 0.303828 -0.164739
C112  C     C_R   0.508019 0.546131 0.276659 -0.146197
C113  C     C_R   0.508032 0.453871 0.276619 -0.157708
C114  C     C_R   0.812846 0.863435 0.999945 -0.010457
C115  C     C_R   0.812527 0.136296 0.999842 -0.012269
C116  C     C_R   0.315813 0.358682 0.998695 -0.009194
H1    H     H_    0.930944 0.868545 0.176636 0.088548
H2    H     H_    0.923836 0.041505 0.525281 0.151916
H3    H     H_    0.063652 0.554154 0.618809 0.157361
H4    H     H_    0.060416 0.088180 0.330014 0.084631
H5    H     H_    0.062493 0.911513 0.329642 0.085311
H6    H     H_    0.517567 0.587705 0.306281 0.082360
H7    H     H_    0.517609 0.412288 0.306175 0.082025
H8    H     H_    0.287342 0.910394 0.272410 0.101471
H9    H     H_    0.290365 0.088732 0.276742 0.116496
H10   H     H_    0.787467 0.410436 0.272447 0.102483
H11   H     H_    0.790484 0.588676 0.277304 0.116101
H12   H     H_    0.023735 0.088541 0.733885 0.087726
H13   H     H_    0.316267 0.551988 0.431182 0.151342
H14   H     H_    0.023546 0.910805 0.735585 0.088171
H15   H     H_    0.439414 0.588753 0.672413 0.084022
H16   H     H_    0.439460 0.411243 0.672382 0.083853
H17   H     H_    0.012612 0.834677 0.823767 0.083073
H18   H     H_    0.013412 0.165066 0.823704 0.083590
H19   H     H_    0.519463 0.336638 0.822829 0.084464
H20   H     H_    0.520010 0.663245 0.822942 0.084806
H21   H     H_    0.191356 0.165261 0.175602 0.089574
H22   H     H_    0.190093 0.834314 0.175364 0.084080
H23   H     H_    0.693242 0.664759 0.175570 0.089752
H24   H     H_    0.316396 0.448001 0.431164 0.151573
H25   H     H_    0.691865 0.334717 0.175214 0.084236
H26   H     H_    0.200197 0.044007 0.573443 0.145172
H27   H     H_    0.921053 0.970907 0.370865 0.153951
H28   H     H_    0.446667 0.590391 0.387795 0.143533
H29   H     H_    0.447011 0.409600 0.387960 0.143496
H30   H     H_    0.279448 0.922948 0.459581 0.148796
H31   H     H_    0.268183 0.994668 0.428004 0.185838
H32   H     H_    0.317393 0.972197 0.566011 0.143484
H33   H     H_    0.440322 0.039572 0.653897 0.160166
H34   H     H_    0.339107 0.083186 0.574331 0.171116
H35   H     H_    0.191461 0.046377 0.720227 0.150881
H36   H     H_    0.452660 0.109704 0.624392 0.164595
H37   H     H_    0.779395 0.421277 0.455300 0.148407
H38   H     H_    0.768270 0.493523 0.428095 0.181743
H39   H     H_    0.816007 0.468629 0.564232 0.147309
H40   H     H_    0.939667 0.537292 0.654200 0.160661
H41   H     H_    0.837999 0.580586 0.575164 0.172285
H42   H     H_    0.951399 0.607862 0.626300 0.163780
H43   H     H_    0.916569 0.967784 0.517655 0.154042
H44   H     H_    0.423095 0.590288 0.516640 0.146806
H45   H     H_    0.423299 0.409697 0.516679 0.146857
H46   H     H_    0.182294 0.939449 0.558007 0.143815
H47   H     H_    0.067620 0.909006 0.480907 0.147427
H48   H     H_    0.604031 0.537042 0.514905 0.152757
H49   H     H_    0.930639 0.131322 0.176525 0.087671
H50   H     H_    0.604189 0.463030 0.514912 0.151132
H51   H     H_    0.179947 0.942625 0.709024 0.153112
H52   H     H_    0.068685 0.908413 0.628538 0.142832
H53   H     H_    0.580526 0.536944 0.646877 0.154277
H54   H     H_    0.580595 0.463025 0.646825 0.154773
H55   H     H_    0.648647 0.181240 0.819912 0.144328
H56   H     H_    0.649111 0.818559 0.820202 0.147430
H57   H     H_    0.153361 0.686929 0.817641 0.145350
H58   H     H_    0.154151 0.312644 0.817751 0.147325
H59   H     H_    0.618011 0.141300 0.894977 0.150857
H60   H     H_    0.436133 0.356903 0.172977 0.080261
H61   H     H_    0.618517 0.858298 0.895634 0.156301
H62   H     H_    0.120656 0.643181 0.886426 0.150876
H63   H     H_    0.121104 0.356320 0.886408 0.157225
H64   H     H_    0.538808 0.216508 0.895944 0.150971
H65   H     H_    0.539553 0.782955 0.896179 0.153007
H66   H     H_    0.037590 0.715439 0.889662 0.151247
H67   H     H_    0.038271 0.283944 0.889322 0.153646
H68   H     H_    0.071504 0.755965 0.818192 0.145095
H69   H     H_    0.072805 0.243468 0.818307 0.145792
H70   H     H_    0.571585 0.253732 0.819936 0.144493
H71   H     H_    0.435800 0.642941 0.172912 0.080728
H72   H     H_    0.572643 0.745878 0.820234 0.145514
H73   H     H_    0.307825 0.743289 0.932397 0.154009
H74   H     H_    0.308809 0.256383 0.932751 0.153276
H75   H     H_    0.805211 0.237219 0.927367 0.153110
H76   H     H_    0.805742 0.762521 0.927228 0.152415
H77   H     H_    0.753962 0.130672 0.823176 0.089233
H78   H     H_    0.754188 0.869079 0.823209 0.091137
H79   H     H_    0.255613 0.632721 0.822016 0.089883
H80   H     H_    0.255864 0.367066 0.822007 0.091720
H81   H     H_    0.223757 0.814063 0.929803 0.154526
H82   H     H_    0.099504 0.088239 0.501091 0.144552
H83   H     H_    0.225209 0.185476 0.930463 0.153963
H84   H     H_    0.725288 0.310395 0.924610 0.154337
H85   H     H_    0.726393 0.689198 0.924889 0.153734
H86   H     H_    0.826472 0.179881 0.178890 0.143317
H87   H     H_    0.827350 0.819583 0.179154 0.144076
H88   H     H_    0.322747 0.679039 0.176210 0.143264
H89   H     H_    0.323200 0.320650 0.176267 0.143917
H90   H     H_    0.719410 0.141430 0.101225 0.152998
H91   H     H_    0.720272 0.858127 0.101838 0.153066
H92   H     H_    0.216713 0.640341 0.092521 0.152364
H93   H     H_    0.933717 0.044419 0.382755 0.151857
H94   H     H_    0.217058 0.359325 0.092455 0.152650
H95   H     H_    0.643177 0.217521 0.104712 0.150942
H96   H     H_    0.644041 0.782040 0.104981 0.151300
H97   H     H_    0.137357 0.714010 0.097958 0.151211
H98   H     H_    0.137758 0.285647 0.097623 0.151579
H99   H     H_    0.245649 0.751552 0.176755 0.146425
H100  H     H_    0.246190 0.248182 0.176825 0.147795
H101  H     H_    0.752611 0.254095 0.178487 0.145751
H102  H     H_    0.753544 0.745453 0.178775 0.147080
H103  H     H_    0.376531 0.741596 0.079164 0.152369
H104  H     H_    0.340931 0.552098 0.297328 0.153948
H105  H     H_    0.377478 0.258191 0.079511 0.152552
H106  H     H_    0.877135 0.237396 0.074227 0.153194
H107  H     H_    0.877965 0.762330 0.074093 0.153395
H108  H     H_    0.294476 0.813162 0.076745 0.153275
H109  H     H_    0.295727 0.186596 0.077397 0.153538
H110  H     H_    0.798699 0.311348 0.071622 0.153495
H111  H     H_    0.799882 0.688349 0.071908 0.153735
H112  H     H_    0.436507 0.907768 0.392258 0.182439
H113  H     H_    0.449740 0.087111 0.366696 0.181261
H114  H     H_    0.936862 0.407669 0.390869 0.181980
H115  H     H_    0.341131 0.447828 0.297370 0.153944
H116  H     H_    0.949603 0.587256 0.368134 0.181085
H117  H     H_    0.464269 0.938356 0.305897 0.172394
H118  H     H_    0.461633 0.041806 0.281292 0.175971
H119  H     H_    0.964631 0.439009 0.305111 0.172313
H120  H     H_    0.961448 0.542609 0.281862 0.175639
H121  H     H_    0.617711 0.931156 0.452553 0.157753
H122  H     H_    0.619312 0.033243 0.414899 0.167268
H123  H     H_    0.118115 0.431681 0.451846 0.156614
H124  H     H_    0.119188 0.533868 0.415221 0.165134
H125  H     H_    0.735963 0.911385 0.670012 0.084664
H126  H     H_    0.088512 0.088486 0.642009 0.144349
H127  H     H_    0.732001 0.088109 0.669015 0.083541
H128  H     H_    0.235962 0.411403 0.669967 0.082811
H129  H     H_    0.232032 0.588100 0.669044 0.081561
H130  H     H_    0.582078 0.910009 0.538089 0.168542
H131  H     H_    0.606187 0.084980 0.490172 0.153657
H132  H     H_    0.082428 0.409868 0.536985 0.168426
H133  H     H_    0.105997 0.585200 0.491067 0.153329
H134  H     H_    0.566051 0.984342 0.652885 0.173236
H135  H     H_    0.564056 0.054789 0.618367 0.156967
H136  H     H_    0.066168 0.483549 0.652773 0.172766
N1    N     N_R   0.950530 0.896220 0.057200 -0.035250
N2    N     N_R   0.818150 0.028600 0.792440 -0.033425
N3    N     N_R   0.318150 0.471400 0.792440 -0.032756
N4    N     N_R   0.318150 0.528600 0.792440 -0.032462
N5    N     N_R   0.025710 0.028600 0.207560 -0.030784
N6    N     N_R   0.025710 0.971400 0.207560 -0.029742
N7    N     N_R   0.525710 0.528600 0.207560 -0.032237
N8    N     N_R   0.525710 0.471400 0.207560 -0.033554
N9    N     N_R   0.181850 0.971400 0.207560 -0.046912
N10   N     N_R   0.181850 0.028600 0.207560 -0.047390
N11   N     N_R   0.681850 0.471400 0.207560 -0.049845
N12   N     N_R   0.950530 0.103780 0.057200 -0.035347
N13   N     N_R   0.681850 0.528600 0.207560 -0.049734
N14   N     N_R   0.974290 0.028600 0.792440 -0.035225
N15   N     N_R   0.974290 0.971400 0.792440 -0.035526
N16   N     N_R   0.474290 0.528600 0.792440 -0.033852
N17   N     N_R   0.474290 0.471400 0.792440 -0.033771
N18   N     N_R   0.049470 0.896220 0.942800 -0.031731
N19   N     N_R   0.049470 0.103780 0.942800 -0.032027
N20   N     N_R   0.549470 0.396220 0.942800 -0.034125
N21   N     N_R   0.549470 0.603780 0.942800 -0.034606
N22   N     N_R   0.106670 0.103780 0.057200 -0.034357
N23   N     N_R   0.450530 0.396220 0.057200 -0.033599
N24   N     N_R   0.106670 0.896220 0.057200 -0.032086
N25   N     N_R   0.606670 0.603780 0.057200 -0.035240
N26   N     N_R   0.606670 0.396220 0.057200 -0.033042
N27   N     N_R   0.450530 0.603780 0.057200 -0.033563
N28   N     N_R   0.893330 0.103780 0.942800 -0.035667
N29   N     N_R   0.893330 0.896220 0.942800 -0.035760
N30   N     N_R   0.393330 0.603780 0.942800 -0.035210
N31   N     N_R   0.393330 0.396220 0.942800 -0.035245
N32   N     N_R   0.818150 0.971400 0.792440 -0.033747
Ni1   Ni    Ni4+2 0.065600 0.934400 0.131190 0.200192
Ni2   Ni    Ni4+2 0.065600 0.065600 0.131190 0.210022
Ni3   Ni    Ni4+2 0.565600 0.434400 0.131190 0.197625
Ni4   Ni    Ni4+2 0.565600 0.565600 0.131190 0.208862
Ni5   Ni    Ni4+2 0.934400 0.065600 0.868810 0.204785
Ni6   Ni    Ni4+2 0.934400 0.934400 0.868810 0.204275
Ni7   Ni    Ni4+2 0.434400 0.565600 0.868810 0.204618
Ni8   Ni    Ni4+2 0.434400 0.434400 0.868810 0.204297
O1    O     O_3   0.405890 0.960217 0.519022 -0.675206
O2    O     O_3   0.392728 0.058021 0.490073 -0.674184
O3    O     O_3   0.906188 0.459131 0.518779 -0.674689
O4    O     O_3   0.892451 0.556984 0.490958 -0.674493

loop_
_geom_bond_atom_site_label_1
_geom_bond_atom_site_label_2
_ccdc_geom_bond_type
C31   C42   S    
C19   H39   S    
C87   H96   S    
N23   Ni3   S    
C64   H75   S    
C16   N17   A    
C79   H108  S    
C13   H23   S    
C37   H44   S    
C112  N7    A    
C5    C107  S    
C3    C48   A    
C59   H70   S    
C55   H57   S    
C38   C45   S    
N13   Ni4   S    
C91   C100  S    
C88   C97   S    
C97   C105  S    
N32   Ni6   S    
C101  C103  S    
C20   H42   S    
C61   H73   S    
C41   C43   S    
C18   H36   S    
N1    N29   A    
N9    Ni1   S    
N24   Ni1   S    
C33   H28   S    
N25   Ni4   S    
N11   Ni3   S    
N26   Ni3   S    
C2    H22   S    
C13   C30   A    
C86   H95   S    
N17   Ni8   S    
C15   N16   A    
C73   N19   A    
C52   H54   S    
C93   N2    A    
C56   H58   S    
C58   H67   S    
C78   C82   S    
C68   C72   S    
C51   N27   A    
C69   C74   S    
C2    C26   A    
C90   C104  S    
C62   N18   A    
C21   C28   A    
C55   C57   S    
C19   H37   S    
C55   H62   S    
C36   C44   S    
C37   C45   S    
C96   H129  S    
C14   H14   S    
C44   C50   S    
C16   C25   A    
N11   N13   A    
N20   N26   A    
C68   C83   S    
C61   H103  S    
C12   H12   S    
C63   C74   S    
C70   C115  S    
C97   H121  S    
N28   Ni5   S    
C45   C52   S    
N12   Ni2   S    
C3    C72   S    
C101  O1    S    
C32   H93   S    
C65   C82   S    
C66   C70   S    
C11   C23   A    
N5    Ni2   S    
C37   H13   S    
C90   H119  S    
C17   H30   S    
N7    Ni4   S    
C12   N14   A    
C67   H87   S    
C6    C42   S    
C41   H48   S    
C102  C109  S    
N21   Ni7   S    
C27   C73   A    
C75   C79   S    
C76   C85   S    
N19   Ni5   S    
C31   H82   S    
N2    N32   A    
C78   C87   S    
C47   C114  A    
C84   H19   S    
C68   H88   S    
C6    C111  A    
C34   H115  S    
C81   H84   S    
C58   C76   S    
C17   O1    S    
C88   H117  S    
C60   C78   S    
C19   O3    S    
C46   C115  A    
C32   C36   S    
C59   H64   S    
N9    N10   A    
C15   C25   A    
C7    C112  A    
N5    N6    A    
C14   C24   A    
C8    C22   A    
N22   Ni2   S    
C113  N8    A    
C7    C43   S    
N23   N31   A    
C111  N6    A    
C29   C115  A    
C41   H50   S    
C57   H66   S    
C63   C80   S    
C81   H110  S    
C54   H56   S    
C17   H32   S    
C96   N4    A    
C100  H133  S    
C40   H60   S    
C106  H21   S    
C102  O4    S    
C27   C106  A    
C80   H83   S    
C9    H9    S    
C22   C103  S    
C11   H11   S    
C92   H125  S    
C9    N10   A    
C26   C75   S    
C64   H106  S    
C1    H1    S    
C39   H46   S    
C28   C77   S    
N10   Ni2   S    
C48   H79   S    
C50   H52   S    
C80   H109  S    
C25   C45   S    
C90   C99   S    
C69   C85   S    
C14   N15   A    
C53   H59   S    
C60   H65   S    
N15   Ni6   S    
C34   C43   S    
C76   C80   S    
C66   C86   S    
C63   H74   S    
C12   C24   A    
C69   H89   S    
C89   C98   S    
C57   C75   S    
C92   N32   A    
C18   H34   S    
C94   N3    A    
C88   H112  S    
C61   C79   S    
C95   H20   S    
C56   C58   S    
C100  H124  S    
C64   C81   S    
C4    C93   A    
C66   H86   S    
C15   H15   S    
C73   H18   S    
C60   H72   S    
C90   H114  S    
C69   H94   S    
C8    N9    A    
C10   H10   S    
N4    Ni7   S    
N7    N8    A    
N19   N22   A    
C28   C84   A    
C63   H105  S    
C5    C94   A    
N6    Ni1   S    
C62   H17   S    
C29   N12   A    
C10   N11   A    
C87   H102  S    
C29   H49   S    
C47   N29   A    
C36   H43   S    
C38   H45   S    
C54   C71   S    
C68   H92   S    
C46   N28   A    
C36   H2    S    
N29   Ni6   S    
C99   H123  S    
C101  C108  S    
C18   O2    S    
C58   H69   S    
C107  C109  S    
C35   H35   S    
C53   C70   S    
C1    N1    A    
C39   C42   S    
C56   C74   S    
C93   H127  S    
C85   H100  S    
C97   H130  S    
C3    C51   A    
C8    H8    S    
C40   N23   A    
C49   N31   A    
C33   C37   S    
C71   C114  S    
C30   C95   A    
C23   C104  S    
C113  H7    S    
C77   C81   S    
N16   Ni7   S    
C61   C72   S    
C20   H41   S    
C24   C44   S    
C31   C35   S    
C1    C114  A    
C39   H47   S    
C27   C76   S    
C65   H107  S    
C5    C96   A    
C109  H3    S    
C52   H53   S    
N18   Ni6   S    
C82   H85   S    
C83   H99   S    
C98   H122  S    
C49   H80   S    
C99   C107  S    
C82   H111  S    
C95   N21   A    
C54   H61   S    
C21   H25   S    
C21   N26   A    
C75   C83   S    
C67   C71   S    
C16   H16   S    
N21   N25   A    
C51   H71   S    
C53   H55   S    
N30   Ni7   S    
C49   C116  A    
N16   N17   A    
C108  H134  S    
C19   H38   S    
C32   C42   S    
C85   H98   S    
C4    C92   A    
C109  H136  S    
C79   H81   S    
C111  H5    S    
C47   H78   S    
C106  N22   A    
C91   C104  S    
N31   Ni8   S    
C59   C77   S    
C53   C59   S    
C13   N25   A    
C54   C60   S    
C98   C105  S    
C17   H31   S    
C101  O2    S    
C66   H90   S    
C34   H29   S    
N1    Ni1   S    
C9    C22   A    
N27   N30   A    
C94   H128  S    
C32   H27   S    
C64   C70   S    
C18   H33   S    
C41   C52   S    
C55   C72   S    
C6    C110  A    
C83   H97   S    
C105  C108  S    
C84   N20   A    
C108  H135  S    
C33   C43   S    
N18   N24   A    
C110  N5    A    
C110  H4    S    
C48   N30   A    
C65   C71   S    
C91   H120  S    
C86   H101  S    
C89   H118  S    
C112  H6    S    
N3    Ni8   S    
C65   H76   S    
C74   C116  S    
C11   N13   A    
C102  C104  S    
C35   C44   S    
C77   C86   S    
N3    N4    A    
N2    Ni5   S    
C88   C103  S    
C67   H91   S    
C46   H77   S    
C33   H104  S    
C100  C107  S    
C20   H40   S    
C34   C38   S    
C102  O3    S    
C10   C23   A    
C4    C105  S    
C67   C87   S    
C91   H116  S    
N27   Ni4   S    
C7    C113  A    
C31   H26   S    
C26   C62   A    
C98   H131  S    
N20   Ni8   S    
C40   C116  A    
C20   O4    S    
N12   N28   A    
N14   Ni5   S    
C57   H68   S    
N8    Ni3   S    
N14   N15   A    
C2    N24   A    
C30   C78   S    
C39   C50   S    
C35   H126  S    
C50   H51   S    
C38   H24   S    
C89   H113  S    
C99   H132  S    
C89   C103  S    
C56   H63   S    
