data_mof_unit_63043.cif
_audit_creation_date              2013-03-05T16:37:06-0500
_audit_creation_method            fapswitch 2.2
_symmetry_space_group_name_H-M    P1
_symmetry_Int_Tables_number       1
_space_group_crystal_system       triclinic
_cell_length_a                    36.281361
_cell_length_b                    25.699598
_cell_length_c                    25.683316
_cell_angle_alpha                 90.000034
_cell_angle_beta                  89.999889
_cell_angle_gamma                 90.000073
_cell_volume                      23947.5448545

loop_
_atom_site_label
_atom_site_type_symbol
_atom_site_description
_atom_site_fract_x
_atom_site_fract_y
_atom_site_fract_z
_atom_type_partial_charge
Zn1   Zn    Zn3+2 0.719300 0.249980 0.438970 0.988526
Zn2   Zn    Zn3+2 0.280700 0.249980 0.438970 0.988362
Zn3   Zn    Zn3+2 0.280700 0.249980 0.561030 0.988340
Zn4   Zn    Zn3+2 0.719300 0.249980 0.561030 0.988188
Zn5   Zn    Zn3+2 0.219300 0.749980 0.938970 0.988378
Zn6   Zn    Zn3+2 0.780700 0.749980 0.938970 0.988521
Zn7   Zn    Zn3+2 0.780700 0.749980 0.061030 0.988130
Zn8   Zn    Zn3+2 0.219300 0.749980 0.061030 0.988268
Zn9   Zn    Zn3+2 0.780720 0.311020 0.500000 0.987912
Zn10  Zn    Zn3+2 0.219280 0.311020 0.500000 0.987910
Zn11  Zn    Zn3+2 0.280720 0.811020 0.000000 0.987882
Zn12  Zn    Zn3+2 0.719280 0.811020 0.000000 0.987883
Zn13  Zn    Zn3+2 0.780730 0.188950 0.500000 0.981680
Zn14  Zn    Zn3+2 0.219270 0.188950 0.500000 0.981686
Zn15  Zn    Zn3+2 0.280730 0.688950 0.000000 0.981721
Zn16  Zn    Zn3+2 0.719270 0.688950 0.000000 0.981720
O1    O     O_3   0.750020 0.249980 0.500000 -0.486013
O2    O     O_3   0.249980 0.249980 0.500000 -0.486011
O3    O     O_3   0.250020 0.749980 0.000000 -0.486000
O4    O     O_3   0.749980 0.749980 0.000000 -0.486001
O5    O     O_R   0.728520 0.310110 0.602800 -0.636299
O6    O     O_R   0.271480 0.310110 0.602800 -0.636133
O7    O     O_R   0.271480 0.310110 0.397200 -0.636305
O8    O     O_R   0.728520 0.310110 0.397200 -0.636127
O9    O     O_R   0.228520 0.810110 0.102800 -0.636234
O10   O     O_R   0.771480 0.810110 0.102800 -0.636356
O11   O     O_R   0.771480 0.810110 0.897200 -0.636234
O12   O     O_R   0.228520 0.810110 0.897200 -0.636356
O13   O     O_R   0.728520 0.189860 0.397190 -0.629215
O14   O     O_R   0.271480 0.189860 0.397190 -0.629330
O15   O     O_R   0.271480 0.189860 0.602810 -0.629300
O16   O     O_R   0.728520 0.189860 0.602810 -0.629402
O17   O     O_R   0.228520 0.689860 0.897190 -0.629383
O18   O     O_R   0.771480 0.689860 0.897190 -0.629276
O19   O     O_R   0.771480 0.689860 0.102810 -0.629485
O20   O     O_R   0.228520 0.689860 0.102810 -0.629380
O21   O     O_R   0.771490 0.352810 0.439870 -0.633506
O22   O     O_R   0.228510 0.352810 0.439870 -0.633469
O23   O     O_R   0.228510 0.352810 0.560130 -0.633477
O24   O     O_R   0.771490 0.352810 0.560130 -0.633446
O25   O     O_R   0.271490 0.852810 0.939870 -0.633448
O26   O     O_R   0.728510 0.852810 0.939870 -0.633487
O27   O     O_R   0.728510 0.852810 0.060130 -0.633446
O28   O     O_R   0.271490 0.852810 0.060130 -0.633481
O29   O     O_R   0.771530 0.147160 0.560090 -0.637352
O30   O     O_R   0.228470 0.147160 0.560090 -0.637349
O31   O     O_R   0.228470 0.147160 0.439910 -0.637384
O32   O     O_R   0.771530 0.147160 0.439910 -0.637394
O33   O     O_R   0.271530 0.647160 0.060090 -0.637297
O34   O     O_R   0.728470 0.647160 0.060090 -0.637279
O35   O     O_R   0.728470 0.647160 0.939910 -0.637334
O36   O     O_R   0.271530 0.647160 0.939910 -0.637313
O37   O     O_R   0.832000 0.292700 0.500000 -0.630626
O38   O     O_R   0.168000 0.292700 0.500000 -0.630625
O39   O     O_R   0.332000 0.792700 0.000000 -0.630611
O40   O     O_R   0.668000 0.792700 0.000000 -0.630609
O41   O     O_R   0.668030 0.249990 0.542720 -0.634557
O42   O     O_R   0.331970 0.249990 0.542720 -0.634689
O43   O     O_R   0.331970 0.249990 0.457280 -0.634309
O44   O     O_R   0.668030 0.249990 0.457280 -0.634442
O45   O     O_R   0.168030 0.749990 0.042720 -0.634645
O46   O     O_R   0.831970 0.749990 0.042720 -0.634586
O47   O     O_R   0.831970 0.749990 0.957280 -0.634327
O48   O     O_R   0.168030 0.749990 0.957280 -0.634272
O49   O     O_R   0.832010 0.207260 0.500000 -0.639425
O50   O     O_R   0.167990 0.207260 0.500000 -0.639428
O51   O     O_R   0.332010 0.707260 0.000000 -0.639472
O52   O     O_R   0.667990 0.707260 0.000000 -0.639472
C1    C     C_R   0.749996 0.349049 0.599064 0.824432
C2    C     C_R   0.250004 0.349049 0.599064 0.824457
C3    C     C_R   0.250004 0.349049 0.400936 0.824388
C4    C     C_R   0.749996 0.349049 0.400936 0.824420
C5    C     C_R   0.249996 0.849049 0.099064 0.824426
C6    C     C_R   0.750004 0.849048 0.099064 0.824446
C7    C     C_R   0.750004 0.849049 0.900936 0.824393
C8    C     C_R   0.249996 0.849048 0.900936 0.824410
C9    C     C_R   0.750017 0.150931 0.400961 0.827799
C10   C     C_R   0.249982 0.150932 0.400960 0.827769
C11   C     C_R   0.249983 0.150931 0.599039 0.827800
C12   C     C_R   0.750018 0.150932 0.599040 0.827764
C13   C     C_R   0.250018 0.650932 0.900960 0.827796
C14   C     C_R   0.749982 0.650931 0.900960 0.827823
C15   C     C_R   0.749982 0.650932 0.099040 0.827776
C16   C     C_R   0.250018 0.650931 0.099040 0.827805
C17   C     C_R   0.849513 0.249996 0.500000 0.829052
C18   C     C_R   0.150487 0.249996 0.500000 0.829047
C19   C     C_R   0.349513 0.749996 0.000000 0.828995
C20   C     C_R   0.650487 0.749996 0.000000 0.828997
C21   C     C_R   0.650354 0.250045 0.500000 0.830228
C22   C     C_R   0.349646 0.250045 0.499999 0.830234
C23   C     C_R   0.150354 0.750044 1.000000 0.830336
C24   C     C_R   0.849646 0.750044 0.999999 0.830336
C25   C     C_3   0.521699 0.216845 0.549491 -0.192313
C26   C     C_3   0.478292 0.216755 0.549432 -0.192380
C27   C     C_3   0.478301 0.219484 0.448893 -0.192478
C28   C     C_3   0.521707 0.219391 0.448947 -0.192526
C29   C     C_3   0.021700 0.716437 0.049226 -0.192332
C30   C     C_3   0.978294 0.716380 0.049188 -0.192450
C31   C     C_3   0.978300 0.719866 0.948672 -0.192534
C32   C     C_3   0.021706 0.719807 0.948706 -0.192656
H1    H     H_    0.530823 0.243877 0.415562 0.128849
H2    H     H_    0.469284 0.244126 0.415569 0.128966
H3    H     H_    0.469177 0.239457 0.584057 0.129019
H4    H     H_    0.530717 0.239704 0.584063 0.129140
H5    H     H_    0.030803 0.744584 0.915527 0.128927
H6    H     H_    0.969264 0.744740 0.915532 0.128951
H7    H     H_    0.969196 0.738838 0.083981 0.129154
H8    H     H_    0.030736 0.738995 0.083986 0.129175
C33   C     C_1   0.389223 0.249098 0.499993 -0.126871
C34   C     C_1   0.610777 0.249098 0.499994 -0.126872
C35   C     C_1   0.889223 0.749096 0.999991 -0.126785
C36   C     C_1   0.110777 0.749096 0.999992 -0.126788
C37   C     C_3   0.536694 0.245433 0.499914 0.217775
C38   C     C_3   0.463306 0.245434 0.499903 0.217778
C39   C     C_3   0.036694 0.745431 0.999884 0.217717
C40   C     C_3   0.963306 0.745431 0.999877 0.217712
C41   C     C_3   0.478623 0.301876 0.501433 -0.449429
C42   C     C_3   0.521377 0.301878 0.501349 -0.449428
C43   C     C_3   0.978623 0.801860 0.001835 -0.449356
C44   C     C_3   0.021377 0.801862 0.001781 -0.449364
C45   C     C_1   0.422470 0.247780 0.499965 -0.089925
C46   C     C_1   0.577530 0.247779 0.499970 -0.089922
C47   C     C_1   0.922470 0.747777 0.999956 -0.089883
C48   C     C_1   0.077530 0.747777 0.999960 -0.089886
H9    H     H_    0.531571 0.322458 0.536671 0.184830
H10   H     H_    0.468496 0.322350 0.536855 0.184844
H11   H     H_    0.468429 0.324280 0.467240 0.184655
H12   H     H_    0.531504 0.324181 0.467050 0.184671
H13   H     H_    0.031559 0.822144 0.037283 0.184875
H14   H     H_    0.968484 0.822074 0.037399 0.184920
H15   H     H_    0.968442 0.824514 0.967800 0.184650
H16   H     H_    0.031516 0.824453 0.967679 0.184692
C49   C     C_R   0.221460 0.498780 0.711881 -0.213962
C50   C     C_R   0.777564 0.500193 0.710467 -0.213990
C51   C     C_R   0.778325 0.499105 0.288443 -0.214071
C52   C     C_R   0.222631 0.500457 0.289797 -0.214093
C53   C     C_R   0.723702 0.001826 0.208832 -0.214063
C54   C     C_R   0.278265 0.999197 0.211463 -0.214000
C55   C     C_R   0.276193 0.001952 0.791293 -0.214116
C56   C     C_R   0.721971 0.999538 0.788878 -0.214061
H17   H     H_    0.199917 0.497598 0.682617 0.151392
H18   H     H_    0.798378 0.500066 0.680146 0.151394
H19   H     H_    0.799708 0.498163 0.317949 0.151353
H20   H     H_    0.201961 0.500525 0.320314 0.151354
H21   H     H_    0.703833 0.002919 0.177290 0.151357
H22   H     H_    0.299601 0.998326 0.181887 0.151376
H23   H     H_    0.295986 0.003138 0.822928 0.151344
H24   H     H_    0.700809 0.998921 0.818708 0.151365
C57   C     C_R   0.249580 0.461457 0.711178 0.142954
C58   C     C_R   0.750395 0.461491 0.711145 0.142910
C59   C     C_R   0.750412 0.461466 0.288831 0.142930
C60   C     C_R   0.249612 0.461498 0.288863 0.142893
C61   C     C_R   0.749637 0.961530 0.211106 0.142854
C62   C     C_R   0.250414 0.961468 0.211167 0.142966
C63   C     C_R   0.250359 0.961534 0.788898 0.142833
C64   C     C_R   0.749595 0.961477 0.788841 0.142932
C65   C     C_R   0.277410 0.462880 0.748884 -0.174907
C66   C     C_R   0.723506 0.461550 0.750215 -0.174991
C67   C     C_R   0.722788 0.462578 0.250814 -0.174901
C68   C     C_R   0.276315 0.461305 0.249539 -0.174995
C69   C     C_R   0.775305 0.960013 0.251753 -0.174990
C70   C     C_R   0.222851 0.962490 0.249275 -0.174985
C71   C     C_R   0.224790 0.959897 0.748131 -0.174984
C72   C     C_R   0.776933 0.962170 0.750405 -0.174975
H25   H     H_    0.299276 0.434166 0.748650 0.147522
H26   H     H_    0.702380 0.431764 0.751054 0.147611
H27   H     H_    0.701084 0.433620 0.250804 0.147584
H28   H     H_    0.297295 0.431319 0.248501 0.147655
H29   H     H_    0.795471 0.928987 0.253833 0.147758
H30   H     H_    0.201194 0.933460 0.249358 0.147510
H31   H     H_    0.204703 0.928776 0.745956 0.147795
H32   H     H_    0.798413 0.932882 0.750064 0.147576
C73   C     C_R   0.775097 0.998642 0.290050 -0.191831
C74   C     C_R   0.223075 0.001096 0.287594 -0.191939
C75   C     C_R   0.224997 0.998527 0.709835 -0.191820
C76   C     C_R   0.776711 0.000779 0.712089 -0.191929
C77   C     C_R   0.277183 0.501483 0.787206 -0.191889
C78   C     C_R   0.723724 0.500165 0.788525 -0.191843
C79   C     C_R   0.723013 0.501184 0.212495 -0.191899
C80   C     C_R   0.276099 0.499922 0.211231 -0.191855
H33   H     H_    0.795142 0.996961 0.321282 0.151527
H34   H     H_    0.201550 0.001399 0.316840 0.151320
H35   H     H_    0.205030 0.996752 0.678509 0.151558
H36   H     H_    0.798061 0.000826 0.682586 0.151367
H37   H     H_    0.298917 0.502100 0.816138 0.151325
H38   H     H_    0.702725 0.499716 0.818524 0.151429
H39   H     H_    0.701440 0.501558 0.183320 0.151368
H40   H     H_    0.296952 0.499276 0.181034 0.151464
C81   C     C_R   0.749232 0.039108 0.288042 0.107546
C82   C     C_R   0.250851 0.039004 0.288146 0.107620
C83   C     C_R   0.250762 0.039114 0.711965 0.107526
C84   C     C_R   0.749162 0.039018 0.711868 0.107594
C85   C     C_R   0.249139 0.538986 0.788164 0.107612
C86   C     C_R   0.750820 0.539042 0.788107 0.107581
C87   C     C_R   0.750850 0.539001 0.211851 0.107586
C88   C     C_R   0.249190 0.539054 0.211905 0.107560
C89   C     C_R   0.723330 0.040710 0.247120 0.009476
C90   C     C_R   0.278666 0.038043 0.249789 0.009369
C91   C     C_R   0.276564 0.040838 0.753008 0.009564
C92   C     C_R   0.721574 0.038389 0.750557 0.009476
C93   C     C_R   0.221055 0.537620 0.750213 0.009345
C94   C     C_R   0.777955 0.539053 0.748779 0.009372
C95   C     C_R   0.778726 0.537949 0.250116 0.009501
C96   C     C_R   0.222243 0.539321 0.251490 0.009516
C97   C     C_1   0.249845 0.421715 0.671703 -0.058762
C98   C     C_1   0.750142 0.421731 0.671686 -0.058843
C99   C     C_1   0.750151 0.421719 0.328302 -0.058784
C100  C     C_1   0.249862 0.421735 0.328318 -0.058872
C101  C     C_1   0.749876 0.921751 0.171666 -0.058872
C102  C     C_1   0.250152 0.921720 0.171697 -0.058843
C103  C     C_1   0.250122 0.921753 0.828336 -0.058872
C104  C     C_1   0.749853 0.921724 0.828307 -0.058843
C105  C     C_1   0.749704 0.078469 0.328130 -0.056685
C106  C     C_1   0.250340 0.078419 0.328181 -0.056801
C107  C     C_1   0.250293 0.078472 0.671873 -0.056695
C108  C     C_1   0.749667 0.078425 0.671826 -0.056803
C109  C     C_1   0.249655 0.578410 0.828190 -0.056779
C110  C     C_1   0.750323 0.578437 0.828163 -0.056715
C111  C     C_1   0.750339 0.578417 0.171818 -0.056795
C112  C     C_1   0.249683 0.578443 0.171844 -0.056736
C113  C     C_1   0.749937 0.111483 0.361467 -0.126270
C114  C     C_1   0.250082 0.111463 0.361487 -0.126371
C115  C     C_1   0.250061 0.111484 0.638534 -0.126343
C116  C     C_1   0.749921 0.111466 0.638516 -0.126438
C117  C     C_1   0.249916 0.611460 0.861491 -0.126355
C118  C     C_1   0.750075 0.611470 0.861480 -0.126272
C119  C     C_1   0.750081 0.611463 0.138513 -0.126458
C120  C     C_1   0.249928 0.611473 0.138523 -0.126376
C121  C     C_1   0.249969 0.388496 0.638567 -0.134156
C122  C     C_1   0.750025 0.388503 0.638560 -0.134254
C123  C     C_1   0.750029 0.388498 0.361435 -0.134167
C124  C     C_1   0.249977 0.388504 0.361441 -0.134273
C125  C     C_1   0.749983 0.888511 0.138552 -0.134293
C126  C     C_1   0.250029 0.888498 0.138565 -0.134251
C127  C     C_1   0.250016 0.888512 0.861449 -0.134278
C128  C     C_1   0.749973 0.888500 0.861437 -0.134236
C129  C     C_R   0.019437 0.300322 0.500169 -0.042052
C130  C     C_R   0.980563 0.300322 0.500169 -0.042053
C131  C     C_R   0.519437 0.800321 0.999798 -0.042063
C132  C     C_R   0.480563 0.800322 0.999799 -0.042063
C133  C     C_R   0.038554 0.252545 0.500014 0.097194
C134  C     C_R   0.961446 0.252545 0.500014 0.097194
C135  C     C_R   0.538554 0.752545 0.999983 0.097205
C136  C     C_R   0.461446 0.752545 0.999983 0.097205
C137  C     C_R   0.019174 0.205542 0.499862 -0.192025
C138  C     C_R   0.980825 0.205542 0.499862 -0.192023
C139  C     C_R   0.519174 0.705542 0.000164 -0.192089
C140  C     C_R   0.480825 0.705542 0.000164 -0.192089
H41   H     H_    0.033780 0.168755 0.499743 0.153107
H42   H     H_    0.966219 0.168755 0.499743 0.153108
H43   H     H_    0.533780 0.668755 0.000306 0.153085
H44   H     H_    0.466219 0.668755 0.000306 0.153085
C141  C     C_1   0.078117 0.250952 0.500008 -0.051863
C142  C     C_1   0.921883 0.250953 0.500008 -0.051861
C143  C     C_1   0.578117 0.750952 0.999991 -0.051906
C144  C     C_1   0.421883 0.750952 0.999991 -0.051908
C145  C     C_1   0.888802 0.250182 0.500003 -0.128172
C146  C     C_1   0.111198 0.250182 0.500003 -0.128175
C147  C     C_1   0.388802 0.750182 0.999996 -0.128202
C148  C     C_1   0.611198 0.750181 0.999996 -0.128201
C149  C     C_1   0.461613 0.164573 0.556479 0.207539
N1    N     N_1   0.448549 0.123877 0.562134 -0.171983
C150  C     C_1   0.538480 0.164762 0.556784 0.207538
N2    N     N_1   0.551625 0.124145 0.562631 -0.171627
C151  C     C_1   0.538386 0.167650 0.439170 0.207805
N3    N     N_1   0.551450 0.127307 0.431385 -0.171415
C152  C     C_1   0.461519 0.167856 0.438875 0.207800
N4    N     N_1   0.448373 0.127602 0.430902 -0.170972
C153  C     C_1   0.961596 0.664162 0.055870 0.207732
N5    N     N_1   0.948516 0.623437 0.061240 -0.171544
C154  C     C_1   0.038463 0.664280 0.056062 0.207434
N6    N     N_1   0.051593 0.623604 0.061554 -0.171726
C155  C     C_1   0.038404 0.668167 0.938477 0.208066
N7    N     N_1   0.051484 0.627903 0.930339 -0.170708
C156  C     C_1   0.961537 0.668297 0.938292 0.207774
N8    N     N_1   0.948406 0.628090 0.930037 -0.170927
C157  C     C_1   0.696250 0.081754 0.243715 0.169488
N9    N     N_1   0.674554 0.114652 0.241005 -0.182417
C158  C     C_1   0.307745 0.076407 0.249066 0.169607
N10   N     N_1   0.331043 0.107159 0.248504 -0.181831
C159  C     C_1   0.303539 0.082009 0.756540 0.169274
N11   N     N_1   0.325150 0.115009 0.759352 -0.182869
C160  C     C_1   0.692731 0.077100 0.751628 0.169402
N12   N     N_1   0.669623 0.108130 0.752468 -0.182403
C161  C     C_1   0.191694 0.575561 0.749916 0.169623
N13   N     N_1   0.168171 0.605973 0.749695 -0.181722
C162  C     C_1   0.806324 0.578433 0.747040 0.169634
N14   N     N_1   0.829052 0.609998 0.745665 -0.181946
C163  C     C_1   0.807870 0.576219 0.250743 0.169327
N15   N     N_1   0.831218 0.606895 0.251228 -0.182491
C164  C     C_1   0.194072 0.578968 0.253497 0.169330
N16   N     N_1   0.171501 0.610748 0.255087 -0.182643
C165  C     C_1   0.960365 0.349012 0.500326 0.182068
N17   N     N_1   0.944230 0.387858 0.500452 -0.178223
C166  C     C_1   0.039636 0.349012 0.500326 0.182067
N18   N     N_1   0.055771 0.387858 0.500452 -0.178223
C167  C     C_1   0.460365 0.849012 0.999611 0.182057
N19   N     N_1   0.444230 0.887858 0.999462 -0.178200
C168  C     C_1   0.539636 0.849012 0.999611 0.182059
N20   N     N_1   0.555771 0.887858 0.999461 -0.178198

loop_
_geom_bond_atom_site_label_1
_geom_bond_atom_site_label_2
_geom_bond_distance
_ccdc_geom_bond_type
C4    C123  1.434261 S    
C164  N16   1.157273 T    
C79   C87   1.401717 A    
C66   H26   1.083481 S    
O26   C7    1.271759 A    
C77   C85   1.401719 A    
C133  C137  1.397694 A    
C36   C48   1.206727 T    
O30   C11   1.272514 A    
C87   C95   1.410487 A    
C154  N6    1.157420 T    
C144  C147  1.200376 T    
C132  C136  1.410194 A    
C43   H14   1.113331 S    
C135  C143  1.435994 S    
Zn12  O26   1.910649 S    
C106  C114  1.205409 T    
C141  C146  1.200376 T    
C90   C158  1.444154 S    
C156  N8    1.157419 T    
C88   C96   1.410487 A    
C41   H10   1.113330 S    
C80   C88   1.401721 A    
C27   H2    1.113814 S    
C54   C62   1.400458 A    
C137  C138  1.391354 A    
C32   C39   1.567498 S    
O11   C7    1.271915 A    
C52   C60   1.400457 A    
O34   C15   1.272512 A    
C131  C168  1.450126 S    
C49   C93   1.402057 A    
Zn1   O44   1.918668 S    
C19   C147  1.425474 S    
C31   C40   1.567509 S    
Zn2   O43   1.918669 S    
C51   C95   1.402056 A    
Zn5   O48   1.918668 S    
C61   C69   1.399522 A    
Zn6   O47   1.918669 S    
C108  C116  1.205409 T    
Zn7   O46   1.918668 S    
O16   C12   1.272245 A    
C132  C167  1.450124 S    
Zn16  O4    1.923919 S    
Zn12  O4    1.923918 S    
Zn1   O13   1.910638 S    
C53   C61   1.400456 A    
Zn3   O15   1.910638 S    
C5    C126  1.434262 S    
Zn4   O16   1.910639 S    
C100  C124  1.205441 T    
C53   C89   1.402048 A    
C93   C161  1.444160 S    
C75   H35   1.083604 S    
C81   C89   1.410484 A    
C76   H36   1.083602 S    
C24   C35   1.436089 S    
Zn10  O22   1.910649 S    
C66   C78   1.397510 A    
C62   C102  1.439169 S    
O25   C8    1.271759 A    
Zn13  O29   1.909626 S    
C33   C45   1.206726 T    
Zn10  O2    1.923918 S    
C67   H27   1.083485 S    
O29   C12   1.272514 A    
Zn15  O33   1.909626 S    
C56   C92   1.402054 A    
C78   H38   1.083603 S    
C136  C144  1.435994 S    
C131  C135  1.410192 A    
O48   C23   1.270862 A    
C59   C99   1.439169 S    
C110  C118  1.205408 T    
C140  H44   1.083811 S    
C23   C36   1.436089 S    
C40   C47   1.482824 S    
C97   C121  1.205440 T    
Zn16  O35   1.909628 S    
C71   C75   1.397516 A    
C74   H34   1.083601 S    
C87   C111  1.443493 S    
C29   C30   1.574855 S    
C85   C93   1.410487 A    
C85   C109  1.443490 S    
C14   C118  1.434104 S    
Zn7   O10   1.910701 S    
O33   C16   1.272512 A    
C149  N1    1.157420 T    
O40   C20   1.268141 A    
C68   C80   1.397513 A    
C31   C32   1.574837 S    
C103  C127  1.205439 T    
Zn5   O17   1.910638 S    
C43   H15   1.113331 S    
C129  C166  1.450128 S    
C89   C157  1.444159 S    
C84   C92   1.410488 A    
C129  C130  1.410427 A    
C98   C122  1.205438 T    
C104  C128  1.205439 T    
C30   C153  1.482353 S    
Zn8   O3    1.923318 S    
C37   C46   1.482827 S    
C44   H13   1.113330 S    
C7    C128  1.434259 S    
C58   C98   1.439170 S    
C65   H25   1.083482 S    
O38   C18   1.268141 A    
C142  C145  1.200376 T    
C63   C71   1.399524 A    
C21   C34   1.436092 S    
O5    C1    1.271914 A    
C59   C67   1.399520 A    
O32   C9    1.272514 A    
C165  N17   1.157306 T    
C27   C152  1.482368 S    
C55   C63   1.400454 A    
Zn15  O51   1.919095 S    
C163  N15   1.157270 T    
Zn11  O28   1.910647 S    
C81   C105  1.443492 S    
C10   C114  1.434101 S    
C72   H32   1.083480 S    
C133  C141  1.435994 S    
O8    C4    1.271914 A    
C9    C113  1.434105 S    
C31   H6    1.113813 S    
C137  H41   1.083811 S    
C143  C148  1.200376 T    
C62   C70   1.399522 A    
O50   C18   1.268678 A    
O37   C17   1.268141 A    
C152  N4    1.157420 T    
C11   C115  1.434106 S    
C139  H43   1.083811 S    
C29   C39   1.567503 S    
Zn1   O1    1.923324 S    
C129  C133  1.410192 A    
Zn2   O14   1.910638 S    
C17   C145  1.425474 S    
C160  N12   1.157271 T    
C2    C121  1.434262 S    
C41   C42   1.551182 S    
C54   H22   1.084776 S    
C134  C142  1.435994 S    
O9    C5    1.271914 A    
O39   C19   1.268141 A    
O36   C13   1.272512 A    
C38   C41   1.553850 S    
O13   C9    1.272245 A    
Zn1   O8    1.910701 S    
Zn2   O7    1.910702 S    
Zn3   O6    1.910701 S    
O18   C14   1.272246 A    
C22   C33   1.436092 S    
C28   H1    1.113811 S    
O6    C2    1.271916 A    
C109  C117  1.205408 T    
C131  C132  1.410427 A    
C150  N2    1.157420 T    
Zn14  O30   1.909628 S    
C68   H28   1.083481 S    
Zn15  O3    1.923921 S    
C78   C86   1.401720 A    
Zn11  O3    1.923916 S    
C134  C138  1.397692 A    
O41   C21   1.270880 A    
C53   H21   1.084776 S    
Zn16  O34   1.909628 S    
C79   H39   1.083603 S    
C27   C38   1.567510 S    
C86   C94   1.410486 A    
C77   H37   1.083602 S    
C112  C120  1.205408 T    
Zn8   O20   1.910639 S    
C18   C146  1.425474 S    
C80   H40   1.083601 S    
C83   C107  1.443491 S    
C38   C45   1.482824 S    
C105  C113  1.205407 T    
C158  N10   1.157268 T    
C42   H9    1.113330 S    
C71   H31   1.083483 S    
C73   H33   1.083604 S    
C153  N5    1.157421 T    
Zn8   O9    1.910701 S    
C60   C100  1.439169 S    
C35   C47   1.206730 T    
O7    C3    1.271913 A    
C57   C97   1.439170 S    
C166  N18   1.157306 T    
O19   C15   1.272248 A    
C29   C154  1.482356 S    
Zn13  O49   1.919095 S    
Zn9   O24   1.910647 S    
C30   H7    1.113811 S    
C136  C140  1.397692 A    
Zn10  O23   1.910647 S    
C168  N20   1.157306 T    
C161  N13   1.157272 T    
C12   C116  1.434104 S    
C69   C73   1.397516 A    
C162  N14   1.157271 T    
C70   H30   1.083478 S    
C25   C37   1.567506 S    
Zn15  O36   1.909628 S    
C6    C125  1.434258 S    
O49   C17   1.268676 A    
C41   H11   1.113330 S    
C74   C82   1.401714 A    
Zn4   O1    1.923318 S    
C26   H3    1.113810 S    
C135  C139  1.397696 A    
C28   C37   1.567497 S    
Zn9   O37   1.919159 S    
O12   C8    1.271914 A    
Zn11  O39   1.919159 S    
C82   C90   1.410487 A    
C28   C151  1.482353 S    
C31   C156  1.482363 S    
C39   C48   1.482828 S    
C58   C66   1.399523 A    
C67   C79   1.397511 A    
C43   C44   1.551181 S    
Zn5   O3    1.923324 S    
Zn13  O1    1.923921 S    
Zn6   O4    1.923320 S    
C49   H17   1.084775 S    
C95   C163  1.444160 S    
C52   H20   1.084775 S    
C34   C46   1.206726 T    
C61   C101  1.439168 S    
C51   C59   1.400460 A    
C72   C76   1.397511 A    
C102  C126  1.205439 T    
O28   C5    1.271756 A    
C20   C148  1.425474 S    
Zn3   O42   1.918668 S    
Zn6   O18   1.910638 S    
C26   C149  1.482349 S    
Zn7   O4    1.923322 S    
O21   C4    1.271759 A    
C96   C164  1.444156 S    
C111  C119  1.205408 T    
C57   C65   1.399522 A    
C50   C58   1.400456 A    
C60   C68   1.399526 A    
C25   C26   1.574853 S    
C64   C104  1.439169 S    
C167  N19   1.157305 T    
Zn14  O2    1.923919 S    
C27   C28   1.574838 S    
C56   H24   1.084777 S    
C26   C38   1.567496 S    
C86   C110  1.443489 S    
C15   C119  1.434106 S    
O44   C21   1.270867 A    
C55   H23   1.084774 S    
C32   H5    1.113813 S    
C13   C117  1.434102 S    
C83   C91   1.410484 A    
Zn12  O27   1.910647 S    
C75   C83   1.401720 A    
C130  C165  1.450124 S    
C55   C91   1.402051 A    
C76   C84   1.401718 A    
C50   H18   1.084776 S    
C91   C159  1.444156 S    
Zn3   O2    1.923322 S    
C29   H8    1.113811 S    
O46   C24   1.270887 A    
O47   C24   1.270860 A    
C3    C124  1.434258 S    
Zn16  O52   1.919096 S    
C151  N3    1.157418 T    
Zn8   O45   1.918669 S    
O27   C6    1.271759 A    
C92   C160  1.444154 S    
C42   H12   1.113331 S    
C25   H4    1.113812 S    
C88   C112  1.443490 S    
C50   C94   1.402053 A    
O24   C1    1.271756 A    
C49   C57   1.400462 A    
C159  N11   1.157273 T    
O43   C22   1.270861 A    
Zn4   O41   1.918669 S    
Zn5   O12   1.910701 S    
O42   C22   1.270883 A    
C30   C40   1.567498 S    
Zn6   O11   1.910702 S    
Zn9   O21   1.910651 S    
C155  N7    1.157419 T    
Zn14  O50   1.919096 S    
C65   C77   1.397508 A    
C82   C106  1.443490 S    
O35   C14   1.272512 A    
Zn12  O40   1.919155 S    
C94   C162  1.444160 S    
C54   C90   1.402055 A    
Zn9   O1    1.923916 S    
C56   C64   1.400456 A    
O52   C20   1.268678 A    
C16   C120  1.434107 S    
C52   C96   1.402051 A    
C138  H42   1.083812 S    
O22   C3    1.271761 A    
C44   H16   1.113330 S    
Zn7   O19   1.910638 S    
Zn2   O2    1.923320 S    
C107  C115  1.205409 T    
Zn13  O32   1.909628 S    
C139  C140  1.391354 A    
O15   C11   1.272246 A    
Zn14  O31   1.909628 S    
C70   C74   1.397508 A    
C130  C134  1.410192 A    
O51   C19   1.268676 A    
O31   C10   1.272514 A    
C40   C43   1.553849 S    
C32   C155  1.482358 S    
C63   C103  1.439168 S    
C69   H29   1.083484 S    
C1    C122  1.434262 S    
Zn4   O5    1.910701 S    
C99   C123  1.205441 T    
O20   C16   1.272247 A    
C73   C81   1.401719 A    
C51   H19   1.084772 S    
O10   C6    1.271916 A    
O23   C2    1.271759 A    
Zn11  O25   1.910651 S    
C8    C127  1.434259 S    
Zn10  O38   1.919155 S    
C101  C125  1.205440 T    
C37   C42   1.553851 S    
O14   C10   1.272243 A    
C64   C72   1.399522 A    
C39   C44   1.553850 S    
C157  N9    1.157272 T    
O17   C13   1.272250 A    
C84   C108  1.443492 S    
O45   C23   1.270885 A    
C25   C150  1.482360 S    
