data_mof_unit_60959.cif
_audit_creation_date              2012-12-10T17:47:43-0500
_audit_creation_method            fapswitch 2.2
_symmetry_space_group_name_H-M    P1
_symmetry_Int_Tables_number       1
_space_group_crystal_system       triclinic
_cell_length_a                    37.373931
_cell_length_b                    30.402012
_cell_length_c                    21.70651
_cell_angle_alpha                 89.99988
_cell_angle_beta                  54.324448
_cell_angle_gamma                 90.000123
_cell_volume                      20035.2566379

loop_
_atom_site_label
_atom_site_type_symbol
_atom_type_description
_atom_site_fract_x
_atom_site_fract_y
_atom_site_fract_z
_atom_type_partial_charge
C1    C     C_R   0.085110 0.500000 0.415007 0.799542
C2    C     C_R   0.914889 0.500000 0.584994 0.799568
C3    C     C_R   0.585110 0.000000 0.415007 0.799518
C4    C     C_R   0.414890 0.000000 0.584993 0.799519
C5    C     C_R   0.000039 0.498198 0.813918 -0.088134
C6    C     C_R   0.999959 0.498190 0.186088 -0.088183
C7    C     C_R   0.500041 0.998190 0.813912 -0.088189
C8    C     C_R   0.499959 0.998190 0.186088 -0.088188
C9    C     C_R   0.031009 0.473129 0.749320 0.004778
C10   C     C_R   0.968938 0.473184 0.250743 0.004846
C11   C     C_R   0.531062 0.973185 0.749257 0.004846
C12   C     C_R   0.468939 0.973183 0.250742 0.004845
C13   C     C_R   0.030118 0.474400 0.686101 -0.213664
C14   C     C_R   0.969838 0.474454 0.313953 -0.213745
C15   C     C_R   0.530162 0.974454 0.686046 -0.213748
C16   C     C_R   0.469838 0.974453 0.313953 -0.213745
C17   C     C_R   0.998914 0.499988 0.686635 -0.031886
C18   C     C_R   0.001088 0.499987 0.313368 -0.031778
C19   C     C_R   0.498912 0.999987 0.686632 -0.031779
C20   C     C_R   0.501088 0.999987 0.313368 -0.031781
C21   C     C_R   0.967609 0.524542 0.751307 0.107478
C22   C     C_R   0.032432 0.524487 0.248654 0.107442
C23   C     C_R   0.467567 0.024486 0.751347 0.107445
C24   C     C_R   0.532432 0.024488 0.248654 0.107446
C25   C     C_R   0.108241 0.452049 0.698198 -0.118358
C26   C     C_R   0.891634 0.452254 0.302126 -0.118591
C27   C     C_R   0.608367 0.952259 0.697873 -0.118592
C28   C     C_R   0.391636 0.952250 0.302122 -0.118591
C29   C     C_R   0.138492 0.422889 0.694119 -0.114114
C30   C     C_R   0.861293 0.423180 0.306309 -0.114076
C31   C     C_R   0.638709 0.923186 0.693690 -0.114069
C32   C     C_R   0.361297 0.923175 0.306303 -0.114069
C33   C     C_R   0.123688 0.384625 0.738076 -0.104723
C34   C     C_R   0.875989 0.384940 0.262296 -0.104778
C35   C     C_R   0.624014 0.884946 0.737703 -0.104772
C36   C     C_R   0.375995 0.884936 0.262289 -0.104772
C37   C     C_R   0.078613 0.375560 0.786355 -0.124891
C38   C     C_R   0.921045 0.375811 0.213857 -0.124808
C39   C     C_R   0.578958 0.875815 0.786141 -0.124806
C40   C     C_R   0.421051 0.875808 0.213852 -0.124808
C41   C     C_R   0.048202 0.405001 0.791646 -0.122745
C42   C     C_R   0.951545 0.405166 0.208469 -0.122236
C43   C     C_R   0.548458 0.905167 0.791529 -0.122226
C44   C     C_R   0.451549 0.905164 0.208465 -0.122232
C45   C     C_R   0.999372 0.500014 0.619413 0.807527
C46   C     C_R   0.000632 0.500014 0.380585 0.807493
C47   C     C_R   0.499368 0.000014 0.619415 0.807489
C48   C     C_R   0.500632 0.000014 0.380585 0.807489
C49   C     C_R   0.062902 0.443364 0.747346 0.112348
C50   C     C_R   0.936955 0.443507 0.252820 0.112437
C51   C     C_R   0.563047 0.943509 0.747178 0.112435
C52   C     C_R   0.436957 0.943505 0.252818 0.112434
C53   C     C_R   0.202898 0.462252 0.281716 -0.140100
C54   C     C_R   0.797101 0.462251 0.718278 -0.139990
C55   C     C_R   0.702898 0.962252 0.281715 -0.140104
C56   C     C_R   0.297102 0.962251 0.718284 -0.140101
C57   C     C_R   0.157000 0.461940 0.327749 -0.133045
C58   C     C_R   0.843000 0.461938 0.672243 -0.132949
C59   C     C_R   0.656999 0.961940 0.327748 -0.133045
C60   C     C_R   0.343000 0.961939 0.672250 -0.133047
C61   C     C_R   0.133464 0.500093 0.367095 -0.057834
C62   C     C_R   0.866536 0.500094 0.632909 -0.057803
C63   C     C_R   0.633464 0.000093 0.367096 -0.057835
C64   C     C_R   0.366536 0.000092 0.632904 -0.057835
C65   C     C_R   0.156528 0.538482 0.359910 -0.164619
C66   C     C_R   0.843472 0.538487 0.640111 -0.164729
C67   C     C_R   0.656528 0.038482 0.359912 -0.164656
C68   C     C_R   0.343472 0.038481 0.640089 -0.164653
C69   C     C_R   0.202404 0.538622 0.314409 -0.061879
C70   C     C_R   0.797596 0.538628 0.685616 -0.062058
C71   C     C_R   0.702404 0.038621 0.314411 -0.061889
C72   C     C_R   0.297596 0.038621 0.685590 -0.061889
C73   C     C_R   0.225699 0.500465 0.275486 0.102171
C74   C     C_R   0.774301 0.500468 0.724523 0.102181
C75   C     C_R   0.725699 0.000465 0.275486 0.102179
C76   C     C_R   0.274301 0.000464 0.724513 0.102179
C77   C     C_R   0.297349 0.504982 0.260010 0.283679
C78   C     C_R   0.702653 0.504990 0.739994 0.283704
C79   C     C_R   0.797349 0.004979 0.260011 0.283682
C80   C     C_R   0.202651 0.004977 0.739988 0.283683
C81   C     C_R   0.343292 0.504830 0.213116 -0.185012
C82   C     C_R   0.656709 0.504836 0.786886 -0.185018
C83   C     C_R   0.843292 0.004827 0.213117 -0.185009
C84   C     C_R   0.156708 0.004825 0.786883 -0.185012
C85   C     C_R   0.366363 0.500373 0.134193 -0.082507
C86   C     C_R   0.633637 0.500373 0.865808 -0.082496
C87   C     C_R   0.866363 0.000373 0.134194 -0.082509
C88   C     C_R   0.133637 0.000372 0.865806 -0.082510
C89   C     C_R   0.903082 0.619513 0.748131 -0.167607
C90   C     C_R   0.097069 0.619398 0.251675 -0.167626
C91   C     C_R   0.402928 0.119396 0.748329 -0.167628
C92   C     C_R   0.597068 0.119399 0.251677 -0.167630
C93   C     C_R   0.342742 0.495939 0.102661 -0.139087
C94   C     C_R   0.657256 0.495935 0.897343 -0.139102
C95   C     C_R   0.842742 0.995941 0.102661 -0.139089
C96   C     C_R   0.157258 0.995942 0.897339 -0.139086
C97   C     C_R   0.296857 0.495825 0.149294 -0.182021
C98   C     C_R   0.703142 0.495821 0.850711 -0.182100
C99   C     C_R   0.796857 0.995826 0.149294 -0.182022
C100  C     C_R   0.203143 0.995827 0.850706 -0.182019
C101  C     C_R   0.273943 0.500534 0.227917 0.022956
C102  C     C_R   0.726057 0.500536 0.772089 0.022932
C103  C     C_R   0.773943 0.000533 0.227918 0.022961
C104  C     C_R   0.226057 0.000532 0.772082 0.022961
C105  C     C_R   0.000000 0.414878 0.000000 0.778482
C106  C     C_R   0.500000 0.914878 1.000000 0.778347
C107  C     C_R   0.000057 0.499042 0.880974 0.797511
C108  C     C_R   0.999943 0.499039 0.119028 0.797411
C109  C     C_R   0.500057 0.999039 0.880972 0.797421
C110  C     C_R   0.499943 0.999039 0.119028 0.797420
C111  C     C_R   0.000000 0.585140 1.000000 0.803450
C112  C     C_R   0.500000 0.085140 1.000000 0.803473
C113  C     C_R   0.500000 0.414848 1.000000 0.814144
C114  C     C_R   0.000000 0.914848 1.000000 0.814145
C115  C     C_R   0.414838 0.500132 0.085263 0.814972
C116  C     C_R   0.585162 0.500132 0.914737 0.814967
C117  C     C_R   0.914838 0.000132 0.085263 0.814973
C118  C     C_R   0.085162 0.000132 0.914737 0.814972
C119  C     C_R   0.500000 0.584957 0.000000 0.873587
C120  C     C_R   0.000000 0.084957 1.000000 0.873588
C121  C     C_R   0.039531 0.297597 0.968029 -0.164489
C122  C     C_R   0.960474 0.297596 0.031968 -0.164312
C123  C     C_R   0.539528 0.797597 0.968031 -0.164282
C124  C     C_R   0.460471 0.797596 0.031968 -0.164284
C125  C     C_R   0.936846 0.595673 0.742670 0.234342
C126  C     C_R   0.063271 0.595587 0.257201 0.234332
C127  C     C_R   0.436727 0.095586 0.742802 0.234330
C128  C     C_R   0.563270 0.095588 0.257202 0.234332
C129  C     C_R   0.039447 0.343369 0.968781 -0.201790
C130  C     C_R   0.960556 0.343367 0.031216 -0.202084
C131  C     C_R   0.539445 0.843368 0.968785 -0.201955
C132  C     C_R   0.460555 0.843368 0.031214 -0.201951
C133  C     C_R   0.000001 0.366617 0.000000 -0.039465
C134  C     C_R   0.500000 0.866617 1.000000 -0.039469
C135  C     C_R   0.000003 0.274216 0.999998 0.142528
C136  C     C_R   0.499999 0.774216 1.000000 0.142565
C137  C     C_R   0.471700 0.702309 0.989157 -0.174046
C138  C     C_R   0.528298 0.702309 0.010843 -0.174048
C139  C     C_R   0.971704 0.202309 0.989154 -0.174095
C140  C     C_R   0.028302 0.202309 0.010838 -0.174036
C141  C     C_R   0.471143 0.656495 0.989923 0.230415
C142  C     C_R   0.528856 0.656496 0.010078 0.230417
C143  C     C_R   0.971145 0.156496 0.989921 0.230423
C144  C     C_R   0.028859 0.156495 0.010074 0.230404
C145  C     C_R   0.500000 0.633134 0.000000 -0.162274
C146  C     C_R   0.000001 0.133134 0.999998 -0.162274
C147  C     C_R   0.499999 0.725623 0.000000 -0.011238
C148  C     C_R   0.000003 0.225623 0.999996 -0.011218
C149  C     C_R   0.039861 0.702810 0.963222 -0.073277
C150  C     C_R   0.960140 0.702809 0.036776 -0.073289
C151  C     C_R   0.539861 0.202810 0.963221 -0.073287
C152  C     C_R   0.460140 0.202809 0.036778 -0.073282
C153  C     C_R   0.039904 0.656953 0.963128 -0.154289
C154  C     C_R   0.960097 0.656953 0.036870 -0.154315
C155  C     C_R   0.539904 0.156953 0.963127 -0.154301
C156  C     C_R   0.460097 0.156953 0.036872 -0.154300
C157  C     C_R   0.000000 0.633585 1.000000 -0.041339
C158  C     C_R   0.500000 0.133585 1.000000 -0.041342
C159  C     C_R   0.932400 0.549916 0.755673 -0.049655
C160  C     C_R   0.067669 0.549825 0.244255 -0.049771
C161  C     C_R   0.432330 0.049823 0.755746 -0.049769
C162  C     C_R   0.567668 0.049826 0.244256 -0.049767
C163  C     C_R   0.000000 0.725780 0.999999 0.162872
C164  C     C_R   0.500000 0.225780 1.000000 0.162873
C165  C     C_R   0.502164 0.297146 0.053823 0.253718
C166  C     C_R   0.497837 0.297146 0.946176 0.253718
C167  C     C_R   0.002162 0.797146 0.053824 0.253720
C168  C     C_R   0.997839 0.797146 0.946174 0.253721
C169  C     C_R   0.502102 0.343037 0.053634 -0.195257
C170  C     C_R   0.497899 0.343037 0.946365 -0.195257
C171  C     C_R   0.002100 0.843037 0.053636 -0.195256
C172  C     C_R   0.997900 0.843037 0.946364 -0.195255
C173  C     C_R   0.500000 0.366368 1.000000 -0.138637
C174  C     C_R   0.000000 0.866368 1.000000 -0.138638
C175  C     C_R   0.500000 0.273972 1.000000 -0.070824
C176  C     C_R   0.000000 0.773972 0.999999 -0.070826
C177  C     C_R   0.893680 0.528652 0.774469 0.191902
C178  C     C_R   0.106373 0.528525 0.225459 0.191898
C179  C     C_R   0.393627 0.028522 0.774541 0.191896
C180  C     C_R   0.606372 0.028526 0.225460 0.191897
C181  C     C_R   0.860054 0.553003 0.780370 -0.195946
C182  C     C_R   0.140033 0.552847 0.219492 -0.195962
C183  C     C_R   0.359966 0.052844 0.780508 -0.195957
C184  C     C_R   0.640032 0.052848 0.219495 -0.195956
C185  C     C_R   0.864749 0.598283 0.767067 0.252123
C186  C     C_R   0.135388 0.598134 0.232730 0.252119
C187  C     C_R   0.364610 0.098131 0.767273 0.252121
C188  C     C_R   0.635387 0.098135 0.232733 0.252121
C189  C     C_R   0.968434 0.523370 0.814582 -0.139106
C190  C     C_R   0.031608 0.523308 0.185378 -0.139054
C191  C     C_R   0.468391 0.023307 0.814623 -0.139057
C192  C     C_R   0.531608 0.023309 0.185378 -0.139056
Cu1   Cu    Cu3+1 0.000000 0.544040 0.500000 1.045656
Cu2   Cu    Cu3+1 0.500000 0.044040 0.500000 1.045658
Cu3   Cu    Cu3+1 0.000000 0.455940 0.500000 1.016957
Cu4   Cu    Cu3+1 0.500000 0.955940 0.500000 1.017009
Cu5   Cu    Cu3+1 0.955940 0.499960 0.044050 0.997493
Cu6   Cu    Cu3+1 0.044060 0.499960 0.955950 0.997483
Cu7   Cu    Cu3+1 0.455940 0.999960 0.044050 0.997495
Cu8   Cu    Cu3+1 0.544060 0.999960 0.955950 0.997494
Cu9   Cu    Cu3+1 0.499990 0.500000 0.061810 1.036238
Cu10  Cu    Cu3+1 0.500010 0.500000 0.938190 1.036238
Cu11  Cu    Cu3+1 0.999990 0.000000 0.061810 1.036239
Cu12  Cu    Cu3+1 0.000010 1.000000 0.938190 1.036234
H1    H     H_    0.147145 0.361848 0.734322 0.142961
H2    H     H_    0.852464 0.362229 0.266128 0.143009
H3    H     H_    0.647540 0.862237 0.733871 0.143016
H4    H     H_    0.352471 0.862224 0.266120 0.143013
H5    H     H_    0.067276 0.345496 0.819087 0.149572
H6    H     H_    0.932298 0.345764 0.181082 0.149409
H7    H     H_    0.567707 0.845767 0.818916 0.149399
H8    H     H_    0.432305 0.845761 0.181075 0.149403
H9    H     H_    0.139968 0.432033 0.331932 0.181591
H10   H     H_    0.860031 0.432028 0.668049 0.181519
H11   H     H_    0.639968 0.932033 0.331930 0.181594
H12   H     H_    0.360032 0.932032 0.668068 0.181595
H13   H     H_    0.139149 0.568340 0.389580 0.186632
H14   H     H_    0.860851 0.568347 0.610451 0.186699
H15   H     H_    0.639149 0.068340 0.389583 0.186623
H16   H     H_    0.360851 0.068340 0.610418 0.186622
H17   H     H_    0.219797 0.568448 0.309349 0.183584
H18   H     H_    0.780204 0.568457 0.690688 0.183583
H19   H     H_    0.719797 0.068447 0.309352 0.183580
H20   H     H_    0.280203 0.068447 0.690648 0.183579
H21   H     H_    0.360860 0.508121 0.238650 0.190537
H22   H     H_    0.639142 0.508131 0.761351 0.190533
H23   H     H_    0.860860 0.008117 0.238651 0.190537
H24   H     H_    0.139140 0.008113 0.761348 0.190536
H25   H     H_    0.359665 0.492346 0.042043 0.177553
H26   H     H_    0.640332 0.492337 0.957960 0.177549
H27   H     H_    0.859665 0.992350 0.042042 0.177554
H28   H     H_    0.140335 0.992352 0.957958 0.177555
H29   H     H_    0.279115 0.492337 0.124069 0.166644
H30   H     H_    0.720882 0.492330 0.875937 0.166656
H31   H     H_    0.779115 0.992341 0.124069 0.166644
H32   H     H_    0.220885 0.992343 0.875931 0.166645
H33   H     H_    0.071140 0.639859 0.934333 0.163802
H34   H     H_    0.928861 0.639859 0.065666 0.163799
H35   H     H_    0.571140 0.139859 0.934331 0.163798
H36   H     H_    0.428861 0.139859 0.065668 0.163799
H37   H     H_    0.053698 0.455109 0.636319 0.151604
H38   H     H_    0.946222 0.455211 0.363778 0.151515
H39   H     H_    0.553779 0.955212 0.636221 0.151518
H40   H     H_    0.446223 0.955209 0.363776 0.151520
H41   H     H_    0.120060 0.481336 0.663215 0.148759
H42   H     H_    0.879897 0.481523 0.337153 0.148800
H43   H     H_    0.620102 0.981528 0.662847 0.148797
H44   H     H_    0.379898 0.981519 0.337150 0.148796
O1    O     O_R   0.064270 0.537190 0.435730 -0.581967
O2    O     O_R   0.935730 0.537190 0.564270 -0.581970
O3    O     O_R   0.564270 0.037190 0.435730 -0.581974
O4    O     O_R   0.435730 0.037190 0.564270 -0.581974
O5    O     O_R   0.435720 0.500010 0.116470 -0.589329
O6    O     O_R   0.564280 0.500010 0.883530 -0.589330
O7    O     O_R   0.935720 0.000010 0.116470 -0.589330
O8    O     O_R   0.064280 0.000010 0.883530 -0.589332
O9    O     O_R   0.435720 0.500010 0.012080 -0.571247
O10   O     O_R   0.564280 0.500010 0.987920 -0.571248
O11   O     O_R   0.935720 0.000010 0.012080 -0.571247
O12   O     O_R   0.064280 0.000010 0.987920 -0.571246
O13   O     O_R   0.500000 0.564270 0.052190 -0.548040
O14   O     O_R   0.500000 0.564270 0.947810 -0.548043
O15   O     O_R   1.000000 0.064270 0.052190 -0.548040
O16   O     O_R   0.000000 0.064270 0.947810 -0.548045
O17   O     O_R   0.064260 0.462790 0.435740 -0.580855
O18   O     O_R   0.935740 0.462790 0.564260 -0.580870
O19   O     O_R   0.564260 0.962790 0.435740 -0.580852
O20   O     O_R   0.435740 0.962790 0.564260 -0.580850
O21   O     O_R   1.000000 0.537190 0.590180 -0.565701
O22   O     O_R   0.000000 0.537190 0.409820 -0.565666
O23   O     O_R   0.500000 0.037190 0.590180 -0.565674
O24   O     O_R   0.500000 0.037190 0.409820 -0.565673
O25   O     O_R   0.999990 0.462790 0.590190 -0.571878
O26   O     O_R   0.000010 0.462790 0.409810 -0.571837
O27   O     O_R   0.499990 0.962790 0.590190 -0.571833
O28   O     O_R   0.500010 0.962790 0.409810 -0.571834
O29   O     O_R   0.962800 0.435700 0.037190 -0.584057
O30   O     O_R   0.037200 0.435700 0.962810 -0.583993
O31   O     O_R   0.462800 0.935700 0.037190 -0.584029
O32   O     O_R   0.537200 0.935700 0.962810 -0.584030
O33   O     O_R   0.962790 0.499970 0.947030 -0.581506
O34   O     O_R   0.037210 0.499970 0.052970 -0.581519
O35   O     O_R   0.462790 0.999970 0.947030 -0.581510
O36   O     O_R   0.537210 0.999970 0.052970 -0.581509
O37   O     O_R   0.037190 0.499990 0.872630 -0.570759
O38   O     O_R   0.962810 0.499990 0.127370 -0.570734
O39   O     O_R   0.537190 0.999990 0.872630 -0.570735
O40   O     O_R   0.462810 0.999990 0.127370 -0.570734
O41   O     O_R   0.962790 0.564230 0.037210 -0.584614
O42   O     O_R   0.037210 0.564230 0.962790 -0.584613
O43   O     O_R   0.462790 0.064230 0.037210 -0.584607
O44   O     O_R   0.537210 0.064230 0.962790 -0.584607
O45   O     O_R   0.499980 0.435740 0.052200 -0.587375
O46   O     O_R   0.500020 0.435740 0.947800 -0.587375
O47   O     O_R   0.999980 0.935740 0.052200 -0.587374
O48   O     O_R   0.000020 0.935740 0.947800 -0.587375
Br1   Br    Br    0.818602 0.631247 0.775415 -0.474058
Br2   Br    Br    0.181587 0.631061 0.224271 -0.474124
Br3   Br    Br    0.318410 0.131057 0.775733 -0.474138
Br4   Br    Br    0.681585 0.131063 0.224276 -0.474145
H45   H     H_    0.013352 0.397561 0.829092 0.127638
H46   H     H_    0.986380 0.397675 0.170903 0.127358
H47   H     H_    0.513623 0.897675 0.829094 0.127362
H48   H     H_    0.486384 0.897675 0.170901 0.127364
H49   H     H_    0.220677 0.432643 0.251512 0.153562
H50   H     H_    0.779321 0.432640 0.748470 0.153525
H51   H     H_    0.720677 0.932643 0.251510 0.153563
H52   H     H_    0.279323 0.932642 0.748488 0.153565
Br5   Br    Br    0.268099 0.509512 0.367546 -0.495379
Br6   Br    Br    0.731905 0.509528 0.632459 -0.495480
Br7   Br    Br    0.768099 0.009505 0.367547 -0.495504
Br8   Br    Br    0.231901 0.009501 0.632452 -0.495503
H53   H     H_    0.906567 0.654625 0.737947 0.206171
H54   H     H_    0.093623 0.654515 0.261809 0.206172
H55   H     H_    0.406374 0.154514 0.738197 0.206171
H56   H     H_    0.593621 0.154516 0.261811 0.206169
H57   H     H_    0.070666 0.280587 0.941559 0.145341
H58   H     H_    0.929340 0.280585 0.058436 0.145332
H59   H     H_    0.570662 0.780586 0.941564 0.145319
H60   H     H_    0.429337 0.780586 0.058436 0.145320
H61   H     H_    0.070389 0.360508 0.944051 0.168536
H62   H     H_    0.929614 0.360505 0.055942 0.168482
H63   H     H_    0.570387 0.860507 0.944060 0.168473
H64   H     H_    0.429613 0.860507 0.055939 0.168474
H65   H     H_    0.449955 0.719630 0.979785 0.173129
H66   H     H_    0.550044 0.719631 0.020215 0.173128
H67   H     H_    0.949958 0.219632 0.979782 0.173115
H68   H     H_    0.050048 0.219630 0.020209 0.173135
Br9   Br    Br    0.428498 0.627856 0.980975 -0.459955
Br10  Br    Br    0.571501 0.627857 0.019026 -0.459997
Br11  Br    Br    0.928499 0.127857 0.980974 -0.459983
Br12  Br    Br    0.071504 0.127855 0.019022 -0.459967
H69   H     H_    0.070819 0.720436 0.934661 0.150727
H70   H     H_    0.929181 0.720436 0.065337 0.150725
H71   H     H_    0.570819 0.220436 0.934659 0.150723
H72   H     H_    0.429181 0.220436 0.065340 0.150725
Br13  Br    Br    0.504847 0.267330 0.129006 -0.439934
Br14  Br    Br    0.495154 0.267330 0.870993 -0.439935
Br15  Br    Br    0.004843 0.767330 0.129010 -0.439922
Br16  Br    Br    0.995158 0.767330 0.870989 -0.439929
H73   H     H_    0.503749 0.360357 0.095515 0.196636
H74   H     H_    0.496252 0.360357 0.904485 0.196636
H75   H     H_    0.003746 0.860356 0.095518 0.196637
H76   H     H_    0.996255 0.860357 0.904482 0.196637
Br17  Br    Br    0.988625 0.626676 0.716798 -0.433956
Br18  Br    Br    0.011516 0.626640 0.283067 -0.433936
Br19  Br    Br    0.488481 0.126639 0.716938 -0.433962
Br20  Br    Br    0.511515 0.126640 0.283067 -0.433962
Br21  Br    Br    0.885153 0.466590 0.793701 -0.516153
Br22  Br    Br    0.114832 0.466452 0.206309 -0.516083
Br23  Br    Br    0.385169 0.966449 0.793688 -0.516079
Br24  Br    Br    0.614831 0.966454 0.206310 -0.516082
H77   H     H_    0.830217 0.536702 0.795341 0.197320
H78   H     H_    0.169859 0.536519 0.204519 0.197309
H79   H     H_    0.330140 0.036514 0.795481 0.197310
H80   H     H_    0.669858 0.036520 0.204522 0.197310
H81   H     H_    0.944436 0.542380 0.864407 0.163963
H82   H     H_    0.055639 0.542277 0.135521 0.164010
H83   H     H_    0.444360 0.042276 0.864480 0.164010
H84   H     H_    0.555638 0.042279 0.135522 0.164008
H85   H     H_    0.173420 0.429760 0.656410 0.154694
H86   H     H_    0.826381 0.430100 0.344142 0.154804
H87   H     H_    0.673621 0.930108 0.655858 0.154810
H88   H     H_    0.326384 0.930094 0.344135 0.154807

loop_
_geom_bond_atom_site_label_1
_geom_bond_atom_site_label_2
_ccdc_geom_bond_type
Cu2   Cu4   S    
C92   H56   S    
C120  C146  S    
C55   C59   A    
C169  H73   S    
C77   C101  A    
C171  H75   S    
Cu12  O16   S    
C89   C125  A    
C150  C163  A    
C46   O26   A    
Cu7   O43   S    
C68   H16   S    
C26   C50   A    
C117  O11   A    
C59   H11   S    
C118  O12   A    
C72   H20   S    
C29   C33   A    
C100  C104  A    
C149  C153  A    
Cu9   O10   S    
C151  H71   S    
C54   C74   A    
C11   C15   A    
C152  C156  A    
C27   C51   A    
C70   C74   A    
C143  Br11  S    
C151  C155  A    
C22   C190  A    
C141  C145  A    
C181  H77   S    
C73   C101  S    
Cu7   Cu8   S    
C155  C158  A    
C75   C103  S    
C21   C159  S    
Cu10  O14   S    
C41   C49   A    
Cu11  O7    S    
C121  H57   S    
C123  H59   S    
C28   C32   A    
C4    O4    A    
C121  C129  A    
C62   C66   A    
C116  O6    A    
C90   C186  A    
C98   C102  A    
C17   C21   A    
C19   C23   A    
C170  H74   S    
C27   H43   S    
C78   C82   A    
C115  O5    A    
C16   C20   A    
Cu3   O26   S    
C128  C162  A    
C90   C126  A    
C121  C135  A    
C160  C178  A    
C178  C182  A    
Cu4   O27   S    
C112  C158  S    
C129  C133  A    
C58   H10   S    
C126  C160  A    
C115  O9    A    
Cu2   O4    S    
C100  H32   S    
C4    O20   A    
C150  H70   S    
C105  C133  S    
C5    C107  S    
C132  H64   S    
C40   H8    S    
C181  C185  A    
C186  Br2   S    
C84   C88   A    
C189  H81   S    
C57   C61   A    
C59   C63   A    
C111  O41   A    
C60   C64   A    
C156  C158  A    
C5    C189  A    
C65   H13   S    
Cu10  O6    S    
C8    C192  A    
C95   C99   A    
C108  O38   A    
C61   C65   A    
C114  C174  S    
Cu9   O45   S    
Cu11  O47   S    
C89   H53   S    
Cu5   O33   S    
C180  C184  A    
C130  H62   S    
C77   Br5   S    
Cu8   O36   S    
Cu1   O21   S    
C66   C70   A    
C82   H22   S    
C33   H1    S    
C64   C68   A    
C17   C45   S    
C80   Br8   S    
C28   H44   S    
C109  O35   A    
Cu12  O11   S    
C1    O1    A    
C110  O36   A    
C2    O18   A    
C124  C132  A    
C164  C175  S    
C36   H4    S    
C183  H79   S    
Cu3   O18   S    
C9    C13   A    
C177  Br21  S    
C14   H38   S    
C85   C93   A    
C179  Br23  S    
C190  H82   S    
C125  Br17  S    
C161  C179  A    
C162  C180  A    
Cu5   O29   S    
C44   C52   A    
C46   O22   A    
C105  O30   A    
C79   C103  A    
C187  Br3   S    
C142  Br10  S    
C172  C174  A    
C113  O45   A    
C139  H67   S    
C139  C148  A    
C30   C34   A    
C12   C16   A    
C9    C49   S    
C99   C103  A    
C10   C14   A    
Cu10  O9    S    
C78   Br6   S    
C166  Br14  S    
C53   H49   S    
C129  H61   S    
C5    C9    A    
C8    C110  S    
C21   C189  A    
C98   H30   S    
C8    C12   A    
C120  O15   A    
C165  Br13  S    
C140  H68   S    
C24   C192  A    
Cu1   O2    S    
C38   H6    S    
C42   C50   A    
C16   H40   S    
C132  C134  A    
Cu5   O41   S    
C122  H58   S    
Cu4   O20   S    
Cu2   O24   S    
C88   C118  S    
C93   C97   A    
C94   H26   S    
C191  H83   S    
C168  C176  A    
C91   C187  A    
C178  Br22  S    
C18   C22   A    
C89   C185  A    
C57   H9    S    
C92   C188  A    
C26   C30   A    
C154  H34   S    
C13   C17   A    
C67   H15   S    
C60   H12   S    
C30   H86   S    
C117  O7    A    
C25   C29   A    
C22   C160  S    
C177  C181  A    
C96   C100  A    
Cu12  O48   S    
C37   C41   A    
Cu5   Cu6   S    
C185  Br1   S    
C188  Br4   S    
C47   O23   A    
C114  O47   A    
C48   O24   A    
C151  C164  A    
C19   C47   S    
C192  H84   S    
C112  O43   A    
C169  C173  A    
C106  O31   A    
C69   H17   S    
C144  Br12  S    
C81   C85   A    
C58   C62   A    
C143  C146  A    
C83   C87   A    
C88   C96   A    
C114  O48   A    
C78   C102  A    
C128  Br20  S    
C80   C84   A    
C131  C134  A    
Cu5   O38   S    
C15   C19   A    
Cu7   O40   S    
C166  C175  A    
Cu8   O39   S    
C80   C104  A    
C107  O37   A    
C95   H27   S    
C87   C117  S    
C54   C58   A    
C119  O14   A    
C94   C98   A    
Cu10  O46   S    
C182  C186  A    
C90   H54   S    
Cu6   O34   S    
Cu7   O31   S    
Cu8   O32   S    
Cu3   O25   S    
C69   C73   A    
C168  Br16  S    
Cu4   O28   S    
C74   C102  S    
C155  H35   S    
C165  C169  A    
C142  C145  A    
C7    C191  A    
C18   C46   S    
C12   C52   S    
C137  H65   S    
C171  C174  A    
C53   C73   A    
C3    O19   A    
C124  C136  A    
C54   H50   S    
C85   C115  S    
C154  C157  A    
C144  C146  A    
C32   H88   S    
C15   H39   S    
C53   C57   A    
C82   C86   A    
C27   C31   A    
C34   H2    S    
C56   C60   A    
C35   C39   A    
C76   C104  S    
C183  C187  A    
C106  C134  S    
Cu6   O30   S    
C124  H60   S    
Cu7   O35   S    
Cu8   O44   S    
C20   C48   S    
C118  O8    A    
C35   H3    S    
C138  C142  A    
C31   C35   A    
C130  C133  A    
C10   C50   S    
C32   C36   A    
C116  O10   A    
Cu11  O12   S    
C33   C37   A    
C137  C141  A    
C123  C131  A    
C137  C147  A    
C140  C144  A    
C3    O3    A    
C1    C61   S    
C6    C10   A    
C167  C171  A    
C125  C159  A    
C38   C42   A    
C3    C63   S    
C119  C145  S    
C4    C64   S    
C45   O25   A    
C111  C157  S    
C127  Br19  S    
C66   H14   S    
C79   C83   A    
C43   C51   A    
C43   H47   S    
C65   C69   A    
Cu6   O42   S    
C70   H18   S    
C55   H51   S    
C47   O27   A    
C153  C157  A    
Cu3   O17   S    
C25   C49   A    
C122  C135  A    
C48   O28   A    
C44   H48   S    
C168  C172  A    
Cu2   O3    S    
C131  H63   S    
C170  C173  A    
C25   H41   S    
Cu11  Cu12  S    
C56   C76   A    
C105  O29   A    
Cu9   Cu10  S    
C14   C18   A    
C72   C76   A    
C140  C148  A    
C23   C191  A    
C167  Br15  S    
C83   H23   S    
C156  H36   S    
C7    C11   A    
C111  O42   A    
C81   H21   S    
Cu9   O13   S    
C180  Br24  S    
C2    O2    A    
Cu11  O15   S    
C91   H55   S    
C138  H66   S    
C86   C116  S    
C149  H69   S    
C182  H78   S    
C86   C94   A    
C172  H76   S    
C31   H87   S    
C13   H37   S    
C126  Br18  S    
Cu1   Cu3   S    
C91   C127  A    
C67   C71   A    
C149  C163  A    
C77   C81   A    
C68   C72   A    
Cu6   O37   S    
C127  C161  A    
C184  C188  A    
Cu1   O22   S    
C107  O33   A    
C139  C143  A    
C159  C177  A    
C163  C176  S    
C92   C128  A    
C179  C183  A    
C63   C67   A    
C71   H19   S    
C20   C24   A    
C36   C40   A    
C56   H52   S    
C41   H45   S    
C39   C43   A    
C120  O16   A    
C152  H72   S    
C7    C109  S    
C87   C95   A    
C26   H42   S    
C99   H31   S    
C40   C44   A    
C138  C147  A    
C97   H29   S    
C6    C190  A    
C39   H7    S    
C37   H5    S    
C152  C164  A    
Cu1   O1    S    
C112  O44   A    
C106  O32   A    
C84   H24   S    
C108  O34   A    
C113  C173  S    
C42   H46   S    
C93   H25   S    
C113  O46   A    
C34   C38   A    
C24   C162  S    
C79   Br7   S    
C165  C175  A    
C153  H33   S    
C123  C136  A    
C55   C75   A    
C71   C75   A    
C28   C52   A    
C29   H85   S    
C119  O13   A    
C166  C170  A    
C141  Br9   S    
C45   O21   A    
C96   H28   S    
C136  C147  S    
C11   C51   S    
C184  H80   S    
C109  O39   A    
C110  O40   A    
C135  C148  S    
C150  C154  A    
Cu9   O5    S    
Cu12  O8    S    
C6    C108  S    
Cu4   O19   S    
Cu2   O23   S    
C1    O17   A    
C122  C130  A    
C97   C101  A    
C2    C62   S    
C167  C176  A    
C23   C161  S    
