data_mof_unit_54114.cif
_audit_creation_date              2012-12-10T18:11:39-0500
_audit_creation_method            fapswitch 2.2
_symmetry_space_group_name_H-M    P1
_symmetry_Int_Tables_number       1
_space_group_crystal_system       triclinic
_cell_length_a                    10.510647
_cell_length_b                    12.629772
_cell_length_c                    12.938224
_cell_angle_alpha                 80.482138
_cell_angle_beta                  91.353339
_cell_angle_gamma                 102.134172
_cell_volume                      1655.91344202

loop_
_atom_site_label
_atom_site_type_symbol
_atom_type_description
_atom_site_fract_x
_atom_site_fract_y
_atom_site_fract_z
_atom_type_partial_charge
C1    C     C_R   0.480083 0.438102 0.692244 0.915444
C2    C     C_3   0.037595 0.488604 0.404636 -0.192264
C3    C     C_3   0.977403 0.583515 0.429872 -0.158352
C4    C     C_3   0.876976 0.498552 0.500582 -0.184900
C5    C     C_R   0.347008 0.679515 0.070953 0.484980
C6    C     C_R   0.490425 0.602095 0.198684 -0.208594
C7    C     C_R   0.500885 0.302613 0.851320 -0.161148
C8    C     C_R   0.513410 0.278834 0.960081 0.404203
C9    C     C_R   0.497452 0.356104 0.021179 -0.194256
C10   C     C_R   0.466007 0.456025 0.974967 0.087895
C11   C     C_R   0.428653 0.469027 0.869778 0.100426
C12   C     C_R   0.741907 0.500057 0.500186 0.977448
C13   C     C_R   0.461236 0.539748 0.033135 -0.069339
C14   C     C_R   0.377567 0.613736 0.000273 -0.042910
C15   C     C_R   0.325263 0.616865 0.899103 -0.073029
C16   C     C_R   0.355969 0.549294 0.832926 -0.119949
C17   C     C_R   0.534066 0.549774 0.124704 0.355050
C18   C     C_R   0.399127 0.668193 0.171826 -0.330940
C19   C     C_R   0.463115 0.399615 0.805232 -0.144194
C20   C     C_R   0.307424 0.090436 0.351738 -0.231582
C21   C     C_R   0.660801 0.798982 0.625676 -0.063531
C22   C     C_R   0.676927 0.894561 0.668098 0.168220
C23   C     C_R   0.510667 0.562282 0.308258 0.933373
C24   C     C_R   0.591644 0.966048 0.638124 0.311777
C25   C     C_R   0.515440 0.954036 0.546607 -0.134752
C26   C     C_R   0.498269 0.852505 0.510470 0.181477
C27   C     C_R   0.457143 0.036784 0.488680 0.037139
C28   C     C_R   0.367157 0.010373 0.408310 0.171625
C29   C     C_R   0.342259 0.905687 0.382065 -0.217106
C30   C     C_R   0.410877 0.829192 0.429968 -0.137516
C31   C     C_R   0.492968 0.147192 0.500762 0.106368
C32   C     C_R   0.340988 0.196819 0.372450 0.074609
C33   C     C_R   0.258312 0.499682 0.500007 0.906284
C34   C     C_3   0.963670 0.509371 0.596428 0.198492
C35   C     C_3   0.066019 0.594815 0.526392 -0.226256
C36   C     C_3   0.123411 0.499556 0.501039 -0.192641
C37   C     C_3   0.023300 0.415513 0.571017 0.320022
C38   C     C_3   0.935556 0.403800 0.475535 0.236971
H1    H     H_    0.122788 0.672793 0.547367 0.202130
H2    H     H_    0.522613 0.247384 0.802693 0.252529
H3    H     H_    0.505005 0.336602 0.105195 0.202866
H4    H     H_    0.315341 0.555663 0.755013 0.178837
H5    H     H_    0.294938 0.259901 0.330483 0.137142
H6    H     H_    0.274782 0.884752 0.320411 0.199189
H7    H     H_    0.237157 0.071272 0.291340 0.172652
H8    H     H_    0.569094 0.175443 0.553206 0.177080
H9    H     H_    0.717687 0.738252 0.654159 0.207795
H10   H     H_    0.396215 0.752990 0.401304 0.196644
H11   H     H_    0.071976 0.480227 0.326474 0.193855
H12   H     H_    0.954818 0.652237 0.372067 0.216768
H13   H     H_    0.364147 0.706634 0.231039 0.189610
H14   H     H_    0.262277 0.671974 0.869170 0.225020
N1    N     N_R   0.432930 0.222190 0.444670 -0.114319
N2    N     N_R   0.566370 0.776980 0.554790 -0.153373
O1    O     O_R   0.467970 0.366730 0.627150 -0.575109
O2    O     O_R   0.510820 0.544830 0.662520 -0.616534
O3    O     O_R   0.664630 0.410960 0.482340 -0.576264
O4    O     O_R   0.707470 0.589060 0.517710 -0.607129
O5    O     O_R   0.489180 0.455170 0.337480 -0.602332
O6    O     O_R   0.532030 0.633270 0.372850 -0.621853
O7    O     O_R   0.292530 0.410940 0.482290 -0.584275
O8    O     O_R   0.335370 0.589040 0.517660 -0.660195
Zn1   Zn    Zn3+2 0.471390 0.381080 0.476380 1.058473
Zn2   Zn    Zn3+2 0.528610 0.618920 0.523620 0.967064
S1    S     S_3+6 0.692943 0.519816 0.139430 0.061895
O9    O     O_2   0.780914 0.609967 0.185394 -0.271518
O10   O     O_2   0.688143 0.413127 0.212270 -0.269825
O11   O     O_3   0.754269 0.512522 0.022463 -0.486577
H15   H     H_    0.839846 0.492856 0.038295 0.417622
S2    S     S_3+6 0.555880 0.155650 0.019864 0.099886
O12   O     O_2   0.679817 0.145170 0.970877 -0.173993
O13   O     O_2   0.575779 0.153691 0.135593 -0.270003
O14   O     O_3   0.436233 0.049640 0.000963 -0.444619
H16   H     H_    0.358578 0.061481 0.035684 0.366003
Br1   Br    Br    0.906137 0.524792 0.733496 -0.362933
S3    S     S_3+6 0.546701 0.032909 0.737003 0.066380
O15   O     O_2   0.652457 0.130952 0.746797 -0.303415
O16   O     O_2   0.419625 0.068319 0.714349 -0.262091
O17   O     O_3   0.529581 0.943831 0.850474 -0.421328
H17   H     H_    0.607194 0.967499 0.892288 0.432308
Br2   Br    Br    0.808665 0.917816 0.772199 -0.324333
S4    S     S_3+6 0.060101 0.305612 0.664766 0.103005
O18   O     O_2   0.125757 0.234082 0.611398 -0.255771
O19   O     O_2   0.149220 0.351689 0.746229 -0.277544
O20   O     O_3   0.922285 0.230074 0.723365 -0.417410
H18   H     H_    0.887862 0.177027 0.675911 0.397962
Br3   Br    Br    0.848355 0.265216 0.435634 -0.396742
S5    S     S_3+6 0.229487 0.762328 0.042594 0.059300
O21   O     O_2   0.099430 0.689448 0.029029 -0.259254
O22   O     O_2   0.220025 0.825043 0.130247 -0.312919
O23   O     O_3   0.270501 0.851671 0.931129 -0.462959
H19   H     H_    0.198458 0.891587 0.918804 0.414055

loop_
_geom_bond_atom_site_label_1
_geom_bond_atom_site_label_2
_ccdc_geom_bond_type
C34   C37   S    
O14   H16   S    
C35   C36   S    
S3    O17   S    
C7    C8    A    
O20   H18   S    
C23   O5    A    
C11   C19   A    
C29   C30   A    
C30   H10   S    
C28   C29   A    
C1    O2    A    
S3    O16   D    
C33   O8    A    
C21   N2    A    
C15   C16   A    
C33   C36   S    
C8    S2    S    
C34   C35   S    
O7    Zn1   S    
C7    C19   A    
O8    Zn2   S    
C5    S5    S    
C8    C9    A    
S1    O10   D    
C31   H8    S    
O1    Zn1   S    
C7    H2    S    
O2    Zn2   S    
S2    O12   D    
C4    C12   S    
C9    C10   A    
C20   H7    S    
C34   Br1   S    
C12   O4    A    
C13   C14   A    
C26   N2    A    
C3    H12   S    
C18   H13   S    
O3    Zn1   S    
S3    O15   D    
O4    Zn2   S    
C23   O6    A    
C6    C18   A    
C4    C34   S    
C1    C19   S    
C27   C31   A    
C22   Br2   S    
C24   C25   A    
O23   H19   S    
O11   H15   S    
C5    C18   A    
C20   C28   A    
C25   C26   A    
S4    O18   D    
C35   H1    S    
C37   C38   S    
C2    H11   S    
C11   C16   A    
C2    C38   S    
S5    O23   S    
C3    C35   S    
S1    O11   S    
S2    O14   S    
C15   H14   S    
C31   N1    A    
C5    C14   A    
C12   O3    A    
C17   S1    S    
C4    C38   S    
C26   C30   A    
S4    O19   D    
C29   H6    S    
C22   C24   A    
C37   S4    S    
C3    C4    S    
C16   H4    S    
C32   N1    A    
C20   C32   A    
C2    C36   S    
C6    C17   A    
C36   C37   S    
O5    Zn1   S    
C24   S3    S    
S5    O22   D    
C10   C13   A    
C25   C27   A    
S4    O20   S    
C9    H3    S    
C13   C17   A    
C38   Br3   S    
O6    Zn2   S    
C2    C3    S    
C1    O1    A    
N1    Zn1   S    
N2    Zn2   S    
C6    C23   S    
C32   H5    S    
C10   C11   A    
O17   H17   S    
S5    O21   D    
C33   O7    A    
S1    O9    D    
C27   C28   A    
C14   C15   A    
S2    O13   D    
C21   C22   A    
C21   H9    S    
