data_mof_unit_19961.cif
_audit_creation_date              2012-12-10T17:32:12-0500
_audit_creation_method            fapswitch 2.2
_symmetry_space_group_name_H-M    P1
_symmetry_Int_Tables_number       1
_space_group_crystal_system       triclinic
_cell_length_a                    12.47912
_cell_length_b                    13.305887
_cell_length_c                    15.018167
_cell_angle_alpha                 73.579551
_cell_angle_beta                  101.537121
_cell_angle_gamma                 117.72508
_cell_volume                      2110.4685362

loop_
_atom_site_label
_atom_site_type_symbol
_atom_type_description
_atom_site_fract_x
_atom_site_fract_y
_atom_site_fract_z
_atom_type_partial_charge
C1    C     C_R   0.854527 0.285661 0.512142 0.840300
C2    C     C_R   0.966826 0.579188 0.068779 0.052344
C3    C     C_R   0.052435 0.338414 0.097474 -0.178076
C4    C     C_R   0.047817 0.334840 0.005276 -0.096315
C5    C     C_R   0.020669 0.415131 0.932246 0.060625
C6    C     C_R   0.997782 0.500441 0.953094 -0.057187
C7    C     C_R   0.974771 0.585385 0.880953 -0.033937
C8    C     C_R   0.935494 0.658465 0.904636 0.339017
C9    C     C_R   0.934236 0.655941 0.997850 -0.213770
C10   C     C_R   0.014030 0.410908 0.839131 0.203801
C11   C     C_R   0.003360 0.501656 0.768014 -0.174700
C12   C     C_R   0.001694 0.501079 0.670812 0.932173
C13   C     C_R   0.992264 0.592917 0.788939 0.222542
C14   C     C_R   0.276140 0.034837 0.397825 0.327326
C15   C     C_R   0.227316 0.837779 0.485783 -0.125015
C16   C     C_R   0.792443 0.090941 0.619627 0.253124
C17   C     C_R   0.698685 0.016390 0.677889 0.330379
C18   C     C_R   0.579602 0.995556 0.644858 -0.182177
C19   C     C_R   0.550804 0.035518 0.550337 0.058291
C20   C     C_R   0.645387 0.127660 0.498413 0.002838
C21   C     C_R   0.430393 0.992875 0.507970 -0.031598
C22   C     C_R   0.400268 0.066742 0.428067 -0.035382
C23   C     C_R   0.144968 0.713498 0.491578 0.867724
C24   C     C_R   0.495868 0.163285 0.378711 0.288396
C25   C     C_R   0.615892 0.186884 0.411133 -0.179528
C26   C     C_R   0.343412 0.875002 0.534857 0.254947
C27   C     C_R   0.191714 0.920206 0.425508 -0.233232
C28   C     C_R   0.767748 0.161425 0.536327 -0.192772
C29   C     C_R   0.315597 0.295394 0.630252 0.206912
C30   C     C_R   0.760435 0.643838 0.368707 0.110680
C31   C     C_R   0.656255 0.654309 0.324871 -0.216216
C32   C     C_R   0.546944 0.586147 0.365859 -0.072403
C33   C     C_R   0.540947 0.513658 0.455425 0.003654
C34   C     C_R   0.999868 0.500892 0.329130 0.793354
C35   C     C_R   0.644878 0.490581 0.491614 0.228774
C36   C     C_R   0.432988 0.456510 0.506918 -0.096006
C37   C     C_R   0.416466 0.354193 0.575838 -0.015423
C38   C     C_R   0.504724 0.315113 0.594423 -0.187857
C39   C     C_R   0.621526 0.387286 0.566643 0.250331
C40   C     C_R   0.343023 0.497851 0.497379 0.428111
C41   C     C_R   0.233559 0.341315 0.618474 0.062960
C42   C     C_R   0.965710 0.577838 0.161763 -0.181654
C43   C     C_R   0.998226 0.500432 0.232558 -0.055654
C44   C     C_R   0.029090 0.422043 0.211255 -0.207126
C45   C     C_R   0.026691 0.419919 0.118775 0.111270
C46   C     C_R   0.997271 0.500025 0.046768 0.103576
Cu1   Cu    Cu3+1 0.098270 0.475420 0.521130 1.060875
Cu2   Cu    Cu3+1 0.901730 0.524580 0.478870 1.009839
H1    H     H_    0.509983 0.947166 0.693346 0.216331
H2    H     H_    0.844364 0.693826 0.334936 0.124494
H3    H     H_    0.466242 0.585311 0.323301 0.192938
H4    H     H_    0.098760 0.894280 0.395495 0.194853
N1    N     N_R   0.246280 0.438190 0.553160 -0.231705
N2    N     N_R   0.754320 0.561190 0.447410 -0.198224
O1    O     O_R   0.972510 0.318130 0.526570 -0.552776
O2    O     O_R   0.806530 0.359650 0.490890 -0.566225
O3    O     O_R   0.082980 0.479210 0.647590 -0.547194
O4    O     O_R   0.917000 0.520730 0.611900 -0.523469
O5    O     O_R   0.193470 0.640350 0.509110 -0.502258
O6    O     O_R   0.027490 0.681870 0.473430 -0.591404
O7    O     O_R   0.083000 0.479270 0.388100 -0.557070
O8    O     O_R   0.917020 0.520790 0.352410 -0.602822
H5    H     H_    0.941692 0.638185 0.179192 0.149967
Br1   Br    Br    0.476446 0.252788 0.256508 -0.409950
Br2   Br    Br    0.210050 0.141643 0.328141 -0.458385
Br3   Br    Br    0.384689 0.758960 0.627392 -0.407979
Br4   Br    Br    0.949050 0.091299 0.653063 -0.307939
Br5   Br    Br    0.729304 0.946464 0.804527 -0.285359
H6    H     H_    0.686934 0.253624 0.367562 0.173994
H7    H     H_    0.157280 0.298824 0.660326 0.217393
H8    H     H_    0.486870 0.232180 0.642377 0.225630
Br6   Br    Br    0.286375 0.155376 0.725364 -0.348909
H9    H     H_    0.052467 0.361144 0.266779 0.175564
Br7   Br    Br    0.362225 0.644901 0.415187 -0.459259
H10   H     H_    0.659088 0.711861 0.257105 0.169967
Br8   Br    Br    0.718665 0.323838 0.658934 -0.476824
H11   H     H_    0.074904 0.276417 0.152237 0.196363
H12   H     H_    0.068101 0.269834 0.992399 0.210685
Br9   Br    Br    0.012709 0.278140 0.809169 -0.408553
Br10  Br    Br    0.033738 0.737140 0.695533 -0.358655
Br11  Br    Br    0.856714 0.745241 0.817814 -0.279994
H13   H     H_    0.904168 0.712198 0.014960 0.188641

loop_
_geom_bond_atom_site_label_1
_geom_bond_atom_site_label_2
_ccdc_geom_bond_type
C16   C28   A    
C21   C26   A    
C19   C20   A    
C7    C8    A    
C45   C46   A    
C2    C46   A    
C23   O5    A    
C30   N2    A    
C36   C37   A    
C19   C21   A    
C1    O2    A    
C5    C6    A    
C20   C25   A    
C34   O8    A    
C33   C36   A    
C18   C19   A    
C31   H10   S    
C31   C32   A    
C8    C9    A    
C1    C28   S    
C27   H4    S    
C14   C27   A    
C9    H13   S    
Cu1   N1    S    
C29   Br6   S    
C12   O4    A    
C15   C23   S    
C30   H2    S    
C13   Br10  S    
C24   Br1   S    
C21   C22   A    
C35   N2    A    
Cu2   O6    S    
C23   O6    A    
C8    Br11  S    
C26   Br3   S    
C36   C40   A    
C38   C39   A    
C24   C25   A    
C16   C17   A    
C15   C26   A    
C20   C28   A    
C3    C45   A    
C34   O7    A    
Cu2   N2    S    
C35   C39   A    
C43   C44   A    
C32   H3    S    
C4    H12   S    
C37   C38   A    
Cu1   O3    S    
C15   C27   A    
Cu1   Cu2   S    
C11   C12   S    
C17   C18   A    
C16   Br4   S    
C39   Br8   S    
C41   N1    A    
C12   O3    A    
C22   C24   A    
C25   H6    S    
C42   C43   A    
C3    C4    A    
C3    H11   S    
Cu2   O8    S    
C44   C45   A    
Cu1   O1    S    
Cu2   O2    S    
C38   H8    S    
C17   Br5   S    
C6    C46   A    
C29   C41   A    
C34   C43   S    
C4    C5    A    
Cu1   O7    S    
C10   Br9   S    
Cu2   O4    S    
C6    C7    A    
C32   C33   A    
C14   C22   A    
C1    O1    A    
C5    C10   A    
C11   C13   A    
C30   C31   A    
C2    C42   A    
C33   C35   A    
C14   Br2   S    
C40   Br7   S    
C44   H9    S    
C10   C11   A    
Cu1   O5    S    
C7    C13   A    
C40   N1    A    
C29   C37   A    
C2    C9    A    
C42   H5    S    
C18   H1    S    
C41   H7    S    
