data_mof_unit_11684.cif
_audit_creation_date              2013-03-05T15:59:16-0500
_audit_creation_method            fapswitch 2.2
_symmetry_space_group_name_H-M    P1
_symmetry_Int_Tables_number       1
_space_group_crystal_system       triclinic
_cell_length_a                    15.009523
_cell_length_b                    13.858702
_cell_length_c                    23.539437
_cell_angle_alpha                 89.966871
_cell_angle_beta                  87.602137
_cell_angle_gamma                 89.221657
_cell_volume                      4891.75847027

loop_
_atom_site_label
_atom_site_type_symbol
_atom_site_description
_atom_site_fract_x
_atom_site_fract_y
_atom_site_fract_z
_atom_type_partial_charge
O1    O     O_R   0.370260 0.582280 0.500010 -0.578993
O2    O     O_R   0.629740 0.417720 0.499990 -0.577310
O3    O     O_R   0.629740 0.582280 0.499990 -0.586296
O4    O     O_R   0.370260 0.417720 0.500010 -0.585041
C1    C     C_R   0.328906 0.500354 0.500579 0.807460
C2    C     C_R   0.671095 0.499635 0.499449 0.808362
O5    O     O_R   0.499980 0.582290 0.417880 -0.595834
O6    O     O_R   0.500020 0.417710 0.582120 -0.537735
O7    O     O_R   0.500020 0.582290 0.582120 -0.599956
O8    O     O_R   0.499980 0.417710 0.417880 -0.540578
C3    C     C_R   0.499651 0.499955 0.390942 0.832468
C4    C     C_R   0.500341 0.499927 0.609049 0.833181
Cu1   Cu    Cu3+1 0.500000 0.597420 0.500000 0.931381
Cu2   Cu    Cu3+1 0.500000 0.402580 0.500000 0.974767
C5    C     C_R   0.580631 0.506578 0.878345 0.540316
C6    C     C_R   0.421915 0.512579 0.121652 0.539811
N1    N     N_R   0.500863 0.509268 0.852196 -0.457240
N2    N     N_R   0.501655 0.508436 0.147780 -0.451600
C7    C     C_R   0.421217 0.511260 0.882781 0.535538
C8    C     C_R   0.581218 0.503859 0.117208 0.534994
C9    C     C_R   0.419710 0.512016 0.942392 -0.021791
C10   C     C_R   0.582767 0.504869 0.057600 -0.018559
C11   C     C_R   0.501169 0.509117 0.970027 -0.018119
C12   C     C_R   0.501333 0.508972 0.029966 -0.016133
C13   C     C_R   0.582462 0.506060 0.937867 -0.022443
C14   C     C_R   0.420054 0.512580 0.062129 -0.021878
C15   C     C_R   0.339052 0.515405 0.974872 -0.163180
C16   C     C_R   0.663427 0.501616 0.025123 -0.165342
C17   C     C_R   0.339227 0.515923 0.034137 -0.163667
C18   C     C_R   0.663283 0.502459 0.965861 -0.162290
O9    O     O_2   0.657781 0.504632 0.846778 -0.532033
O10   O     O_2   0.344841 0.516776 0.153243 -0.534246
O11   O     O_2   0.343907 0.512531 0.855499 -0.538546
O12   O     O_2   0.658418 0.498129 0.144491 -0.546229
H1    H     H_    0.275569 0.517792 0.954634 0.188290
H2    H     H_    0.726893 0.498544 0.045363 0.188396
H3    H     H_    0.275876 0.518677 0.057900 0.188878
H4    H     H_    0.726644 0.500005 0.942101 0.188899
C19   C     C_R   0.517354 0.591479 0.239508 0.215978
C20   C     C_R   0.483550 0.592762 0.760189 0.218310
C21   C     C_R   0.516224 0.587479 0.298919 -0.289207
C22   C     C_R   0.483321 0.587966 0.700890 -0.310238
H5    H     H_    0.528220 0.652835 0.322465 0.178094
H6    H     H_    0.469960 0.653474 0.677364 0.183660
C23   C     C_R   0.499878 0.500432 0.328086 -0.177998
C24   C     C_R   0.500456 0.500545 0.671877 -0.173971
C25   C     C_R   0.484775 0.415463 0.296823 0.466436
C26   C     C_R   0.517110 0.415609 0.703237 0.469654
C27   C     C_R   0.484406 0.420378 0.237242 -0.244516
C28   C     C_R   0.518417 0.421019 0.762784 -0.246002
H7    H     H_    0.469309 0.357076 0.212708 0.154431
H8    H     H_    0.534451 0.357590 0.787386 0.155781
C29   C     C_R   0.501746 0.506955 0.208680 0.300578
C30   C     C_R   0.500705 0.508129 0.791277 0.305063
C31   C     C_R   0.817385 0.438645 0.462448 -0.256160
C32   C     C_R   0.182625 0.561167 0.537717 -0.259172
C33   C     C_R   0.767728 0.499643 0.499383 -0.056094
C34   C     C_R   0.232273 0.500281 0.500712 -0.060975
C35   C     C_R   0.810317 0.562713 0.535552 -0.242521
C36   C     C_R   0.189680 0.437169 0.464570 -0.241748
C37   C     C_R   0.903129 0.563076 0.536264 0.109877
C38   C     C_R   0.096868 0.436713 0.463915 0.107004
C39   C     C_R   0.953320 0.500047 0.499852 0.059940
C40   C     C_R   0.046679 0.499709 0.500349 0.060650
C41   C     C_R   0.910200 0.437654 0.462758 0.118484
C42   C     C_R   0.089802 0.562098 0.537446 0.118374
C43   C     C_R   0.946554 0.624853 0.572893 -0.202737
C44   C     C_R   0.053442 0.374902 0.427306 -0.201676
C45   C     C_R   0.039436 0.624170 0.573597 -0.205779
C46   C     C_R   0.960560 0.375550 0.426623 -0.205287
H9    H     H_    0.784000 0.394088 0.432449 0.132416
H10   H     H_    0.216039 0.605719 0.567715 0.135415
H11   H     H_    0.771024 0.610449 0.563552 0.146828
H12   H     H_    0.228973 0.389480 0.436539 0.157596
H13   H     H_    0.908687 0.673489 0.601022 0.150430
H14   H     H_    0.091307 0.326282 0.399167 0.152858
H15   H     H_    0.071901 0.672380 0.602214 0.148175
H16   H     H_    0.928092 0.327321 0.398018 0.147154
C47   C     C_R   0.424551 0.797025 0.516452 0.296522
C48   C     C_R   0.574597 0.203178 0.481344 0.315997
C49   C     C_R   0.575417 0.794615 0.482984 0.287822
C50   C     C_R   0.425483 0.205463 0.519101 0.306761
N3    N     N_R   0.500000 0.743810 0.500000 -0.185171
N4    N     N_R   0.500000 0.256190 0.500000 -0.176954
C51   C     C_R   0.580234 0.895846 0.494372 -0.035923
C52   C     C_R   0.419547 0.103833 0.508387 -0.043636
C53   C     C_R   0.419915 0.898448 0.505189 -0.033708
C54   C     C_R   0.580672 0.101342 0.492095 -0.042359
C55   C     C_R   0.500105 0.948822 0.499958 -0.058547
C56   C     C_R   0.500114 0.051260 0.500136 -0.067673
C57   C     C_R   0.661735 0.945262 0.499587 0.181224
C58   C     C_R   0.337134 0.053374 0.504896 0.182284
C59   C     C_R   0.338557 0.950612 0.499802 0.177465
C60   C     C_R   0.663091 0.048167 0.495507 0.180282
C61   C     C_3   0.355249 0.755964 0.557557 -0.796212
H17   H     H_    0.383231 0.698300 0.583932 0.249402
H18   H     H_    0.330120 0.812467 0.587869 0.199140
H19   H     H_    0.297845 0.728622 0.535091 0.230251
C62   C     C_3   0.642186 0.246657 0.440240 -0.810650
H20   H     H_    0.614805 0.307261 0.416350 0.263382
H21   H     H_    0.700615 0.271201 0.462811 0.232255
H22   H     H_    0.663792 0.192971 0.407284 0.187611
C63   C     C_3   0.642789 0.752504 0.439841 -0.768842
H23   H     H_    0.611980 0.699500 0.412198 0.245747
H24   H     H_    0.668420 0.809880 0.410754 0.198052
H25   H     H_    0.701007 0.719010 0.459785 0.234286
C64   C     C_3   0.359099 0.250150 0.561692 -0.785058
H26   H     H_    0.388202 0.307948 0.586277 0.262541
H27   H     H_    0.299361 0.278989 0.541107 0.235230
H28   H     H_    0.338162 0.195877 0.594142 0.185780
C65   C     C_3   0.743875 0.889688 0.517389 -0.868196
H29   H     H_    0.769525 0.921458 0.556639 0.232637
H30   H     H_    0.729336 0.814601 0.530302 0.230504
H31   H     H_    0.796242 0.889964 0.482656 0.240392
C66   C     C_3   0.249617 0.109254 0.500617 -0.856103
H32   H     H_    0.194484 0.068045 0.483385 0.236519
H33   H     H_    0.224640 0.132728 0.543413 0.230973
H34   H     H_    0.258890 0.172029 0.471736 0.235339
C67   C     C_3   0.257212 0.898427 0.480017 -0.859787
H35   H     H_    0.231519 0.934151 0.441706 0.234411
H36   H     H_    0.273108 0.824492 0.464667 0.236505
H37   H     H_    0.204537 0.896452 0.514528 0.236766
C68   C     C_3   0.750527 0.101115 0.500953 -0.850733
H38   H     H_    0.805046 0.057882 0.518622 0.236886
H39   H     H_    0.776602 0.124674 0.458531 0.226705
H40   H     H_    0.740677 0.163370 0.530314 0.242666
C69   C     C_3   0.533381 0.685899 0.209393 -0.810153
H41   H     H_    0.541576 0.745971 0.239871 0.218784
H42   H     H_    0.594874 0.680549 0.181667 0.249731
H43   H     H_    0.475907 0.703852 0.182936 0.237157
C70   C     C_3   0.466965 0.689218 0.788414 -0.795301
H44   H     H_    0.516116 0.741947 0.771118 0.222850
H45   H     H_    0.398760 0.715556 0.779526 0.233644
H46   H     H_    0.473295 0.686394 0.835130 0.233790
O13   O     O_3   0.461595 0.330937 0.325025 -0.554143
C71   C     C_3   0.521952 0.255775 0.309076 -0.303929
H47   H     H_    0.592654 0.279505 0.308395 0.146785
H48   H     H_    0.505724 0.224970 0.267280 0.164777
H49   H     H_    0.515076 0.197053 0.340954 0.194195
O14   O     O_3   0.540835 0.330565 0.675059 -0.550031
C72   C     C_3   0.482606 0.255869 0.692221 -0.304332
H50   H     H_    0.411428 0.280117 0.694377 0.147096
H51   H     H_    0.501599 0.224905 0.733582 0.165459
H52   H     H_    0.488936 0.197108 0.660252 0.194023

loop_
_geom_bond_atom_site_label_1
_geom_bond_atom_site_label_2
_geom_bond_distance
_ccdc_geom_bond_type
C39   C41   1.411512 A    
C15   C17   1.395179 A    
C64   H27   1.106751 S    
C45   H15   1.083708 S    
C65   H29   1.109301 S    
Cu2   N4    2.028775 S    
C48   N4    1.386772 A    
C70   H46   1.108342 S    
C27   H7    1.082324 S    
C47   C53   1.431529 A    
C51   C57   1.419853 A    
C61   H19   1.101296 S    
C68   H38   1.102937 S    
C19   C21   1.398980 A    
O5    C3    1.305904 A    
C28   C30   1.398297 A    
C1    C34   1.450304 S    
O1    C1    1.301147 A    
C7    C9    1.402478 A    
C12   C14   1.408936 A    
C72   H51   1.110296 S    
C32   C42   1.393387 A    
C68   H39   1.107845 S    
C42   C45   1.401801 A    
C46   H16   1.083726 S    
C34   C36   1.399663 A    
C41   C46   1.401784 A    
C18   H4    1.083083 S    
C36   C38   1.393903 A    
C22   C24   1.406490 A    
C23   C25   1.414852 A    
C57   C65   1.518498 S    
C37   C39   1.412150 A    
O7    Cu1   1.944289 S    
C6    O10   1.349421 S    
C38   C40   1.412144 A    
N2    C29   1.433749 S    
C31   C41   1.393305 A    
C53   C55   1.400556 A    
C65   H30   1.105952 S    
C61   H17   1.101191 S    
C32   H10   1.081641 S    
C28   H8    1.082288 S    
C11   C12   1.411045 A    
C65   H31   1.110219 S    
C35   H11   1.085034 S    
O3    Cu1   1.955759 S    
C8    O12   1.349484 S    
C60   C68   1.522354 S    
O3    C2    1.295111 A    
C26   C28   1.404720 A    
C9    C15   1.404803 A    
C10   C16   1.404753 A    
Cu1   Cu2   2.700228 S    
C21   H5    1.083212 S    
C2    C33   1.450361 S    
O2    C2    1.301034 A    
C22   H6    1.083917 S    
C71   H49   1.109553 S    
C49   N3    1.385980 A    
C24   C26   1.414013 A    
C67   H36   1.106311 S    
C6    C14   1.402573 A    
C54   C60   1.436435 A    
C35   C37   1.393947 A    
C19   C69   1.505289 S    
C26   O14   1.387654 S    
O13   C71   1.411763 S    
O14   C72   1.411822 S    
C4    C24   1.479032 S    
C52   C56   1.409787 A    
C72   H52   1.109564 S    
C51   C55   1.402019 A    
O4    C1    1.294970 A    
C68   H40   1.110216 S    
C15   H1    1.083083 S    
C50   C52   1.435617 A    
C43   C45   1.394814 A    
C40   C42   1.411533 A    
O1    Cu1   1.961430 S    
C69   H42   1.109558 S    
C47   C61   1.507737 S    
C37   C43   1.401532 A    
C20   C22   1.397626 A    
C62   H20   1.095431 S    
O6    C4    1.304367 A    
C66   H34   1.110456 S    
C63   H24   1.111194 S    
C50   C64   1.510565 S    
C71   H48   1.110373 S    
C62   H21   1.102008 S    
C20   C70   1.506153 S    
C8    C10   1.402421 A    
C20   C30   1.408582 A    
O8    C3    1.304047 A    
C31   C33   1.398408 A    
C48   C62   1.504077 S    
C7    O11   1.349449 S    
C64   H28   1.110687 S    
C10   C12   1.408889 A    
C3    C23   1.479463 S    
C33   C35   1.399665 A    
C44   H14   1.083690 S    
C64   H26   1.094778 S    
C69   H41   1.110765 S    
C49   C63   1.514345 S    
C67   H37   1.110231 S    
C13   C18   1.404814 A    
C5    N1    1.369020 A    
C66   H33   1.107554 S    
O6    Cu2   1.944531 S    
C25   O13   1.387373 S    
C54   C56   1.408214 A    
C71   H47   1.114729 S    
C70   H45   1.110276 S    
C67   H35   1.109286 S    
C61   H18   1.111153 S    
C5    O9    1.349435 S    
C25   C27   1.404372 A    
Cu1   N3    2.028775 S    
C50   N4    1.387900 A    
C38   C44   1.401533 A    
C9    C11   1.408863 A    
C69   H43   1.110356 S    
C16   C18   1.395123 A    
C48   C54   1.436033 A    
C52   C58   1.434569 A    
C72   H50   1.114718 S    
C57   C60   1.429659 A    
C47   N3    1.384652 A    
C19   C29   1.405812 A    
C27   C29   1.397240 A    
C53   C59   1.420832 A    
C36   H12   1.085062 S    
C58   C59   1.429057 A    
N1    C7    1.369421 A    
C32   C34   1.398414 A    
C63   H25   1.105670 S    
N2    C8    1.368974 A    
C11   C13   1.408910 A    
O4    Cu2   1.955762 S    
C70   H44   1.110495 S    
O2    Cu2   1.961427 S    
C58   C66   1.522736 S    
C49   C51   1.431816 A    
C5    C13   1.402536 A    
O7    C4    1.305370 A    
C39   C40   1.401756 A    
O5    Cu1   1.944531 S    
C62   H22   1.110671 S    
C43   H13   1.083698 S    
C16   H2    1.083085 S    
C14   C17   1.404793 A    
C6    N2    1.368845 A    
C17   H3    1.083083 S    
C63   H23   1.100817 S    
C44   C46   1.394781 A    
C21   C23   1.407089 A    
C59   C67   1.517433 S    
C55   C56   1.419666 A    
N1    C30   1.434189 S    
C31   H9    1.081464 S    
C66   H32   1.103027 S    
O8    Cu2   1.944289 S    
