data_mof_unit_46715.cif
_audit_creation_date              2012-12-10T17:56:42-0500
_audit_creation_method            fapswitch 2.2
_symmetry_space_group_name_H-M    P1
_symmetry_Int_Tables_number       1
_space_group_crystal_system       triclinic
_cell_length_a                    10.806037
_cell_length_b                    9.524677
_cell_length_c                    10.824895
_cell_angle_alpha                 90.008002
_cell_angle_beta                  90.356186
_cell_angle_gamma                 89.915129
_cell_volume                      1114.11886324

loop_
_atom_site_label
_atom_site_type_symbol
_atom_type_description
_atom_site_fract_x
_atom_site_fract_y
_atom_site_fract_z
_atom_type_partial_charge
C1    C     C_R   0.262807 0.500224 0.499318 0.804896
C2    C     C_R   0.737633 0.499223 0.502505 0.788675
C3    C     C_R   0.937604 0.486388 0.614190 -0.076491
C4    C     C_R   0.067424 0.489259 0.612835 -0.058188
C5    C     C_R   0.418698 0.074513 0.427510 -0.004355
C6    C     C_R   0.581584 0.074355 0.572081 -0.004189
C7    C     C_R   0.418616 0.925700 0.427605 0.003613
C8    C     C_R   0.581847 0.925671 0.571727 -0.008958
C9    C     C_R   0.506191 0.500590 0.262515 0.754896
C10   C     C_R   0.506545 0.500308 0.737523 0.846750
C11   C     C_R   0.664915 0.703740 0.128526 -0.176382
C12   C     C_R   0.668917 0.697454 0.872028 -0.123548
C13   C     C_R   0.737027 0.799457 0.063880 -0.088234
C14   C     C_R   0.739257 0.796128 0.935942 -0.071422
C15   C     C_R   0.591084 0.602101 0.934966 0.099421
C16   C     C_R   0.589921 0.603936 0.065760 0.106198
C17   C     C_R   0.517296 0.502490 0.128875 -0.096084
C18   C     C_R   0.518045 0.501258 0.871328 -0.140072
C19   C     C_R   0.452355 0.399694 0.063413 -0.174673
C20   C     C_R   0.452680 0.399116 0.936193 -0.193424
C21   C     C_R   0.064326 0.507501 0.386186 -0.044106
C22   C     C_R   0.934305 0.495238 0.386574 -0.041424
C23   C     C_R   0.872023 0.495462 0.501156 -0.187678
C24   C     C_R   0.129084 0.500806 0.499385 -0.199641
Cu1   Cu    Cu3+1 0.500000 0.640660 0.500000 0.967491
Cu2   Cu    Cu3+1 0.500000 0.359340 0.500000 0.979909
H1    H     H_    0.397570 0.321583 0.111075 0.162100
H2    H     H_    0.397906 0.320885 0.887999 0.191536
H3    H     H_    0.673162 0.707933 0.227634 0.156859
H4    H     H_    0.681904 0.693157 0.773589 0.139548
H5    H     H_    0.793862 0.874348 0.113554 0.154756
H6    H     H_    0.798269 0.867868 0.885941 0.148795
H7    H     H_    0.353651 0.130644 0.369312 0.125948
H8    H     H_    0.646948 0.130247 0.629918 0.163618
H9    H     H_    0.353489 0.869744 0.369517 0.135582
H10   H     H_    0.648054 0.870059 0.628576 0.113379
N1    N     N_R   0.500000 0.852070 0.500000 -0.165812
N2    N     N_R   0.500000 0.147940 0.500000 -0.167966
O1    O     O_R   0.319640 0.618740 0.499990 -0.548485
O2    O     O_R   0.680360 0.618740 0.500010 -0.608573
O3    O     O_R   0.319620 0.381170 0.499990 -0.586248
O4    O     O_R   0.680380 0.381170 0.500010 -0.548500
O5    O     O_R   0.500000 0.618810 0.319650 -0.598441
O6    O     O_R   0.500000 0.618810 0.680350 -0.572677
O7    O     O_R   0.499970 0.381240 0.319640 -0.587367
O8    O     O_R   0.500030 0.381240 0.680360 -0.562876
C25   C     C_2   0.134230 0.531799 0.269810 0.476163
H11   H     H_    0.225199 0.485751 0.257454 0.021232
O9    O     O_2   0.093332 0.609070 0.189282 -0.489689
C26   C     C_2   0.862767 0.468599 0.270327 0.459923
H12   H     H_    0.764157 0.486279 0.267253 0.016423
O10   O     O_2   0.911179 0.417409 0.179182 -0.481413
C27   C     C_2   0.871431 0.467898 0.733308 0.835003
O11   O     O_2   0.900482 0.538503 0.823242 -0.547130
O12   O     O_R   0.780222 0.364913 0.744040 -0.765929
H13   H     H_    0.747163 0.356986 0.831169 0.337310
C28   C     C_2   0.139643 0.481015 0.729910 0.889911
O13   O     O_2   0.131330 0.377453 0.796082 -0.564113
O14   O     O_R   0.215148 0.593364 0.764779 -0.735751
H14   H     H_    0.254680 0.579047 0.848954 0.339905

loop_
_geom_bond_atom_site_label_1
_geom_bond_atom_site_label_2
_ccdc_geom_bond_type
C4    C28   S    
C10   O8    A    
C15   C18   A    
C26   O10   D    
O12   H13   S    
C6    N2    A    
C9    O7    A    
C3    C27   S    
C11   C16   A    
C3    C23   A    
C19   C20   A    
C12   C15   A    
C22   C26   S    
Cu1   N1    S    
Cu1   O5    S    
C26   H12   S    
C7    N1    A    
O14   H14   S    
C25   O9    D    
C14   H6    S    
C27   O11   D    
Cu1   O1    S    
C11   C13   A    
Cu2   O4    S    
C28   O13   D    
C16   C17   A    
C2    O4    A    
Cu1   O6    S    
C21   C22   A    
C17   C19   A    
C10   C18   S    
C5    N2    A    
C18   C20   A    
C27   O12   S    
Cu1   O2    S    
C4    C24   A    
C9    O5    A    
C28   O14   S    
C8    N1    A    
Cu2   O8    S    
C10   O6    A    
C15   C16   A    
C25   H11   S    
C2    O2    A    
C19   H1    S    
C11   H3    S    
C1    C24   S    
C8    H10   S    
C21   C24   A    
C1    O3    A    
C2    C23   S    
C5    C7    A    
C1    O1    A    
C22   C23   A    
Cu2   N2    S    
C6    C8    A    
C20   H2    S    
Cu2   O7    S    
C12   H4    S    
Cu1   Cu2   S    
C13   C14   A    
C7    H9    S    
C13   H5    S    
C3    C4    A    
C6    H8    S    
Cu2   O3    S    
C12   C14   A    
C9    C17   S    
C21   C25   S    
C5    H7    S    
