data_mof_unit_36148.cif
_audit_creation_date              2012-12-10T19:08:07-0500
_audit_creation_method            fapswitch 2.2
_symmetry_space_group_name_H-M    P1
_symmetry_Int_Tables_number       1
_space_group_crystal_system       triclinic
_cell_length_a                    9.09238
_cell_length_b                    10.893771
_cell_length_c                    9.636288
_cell_angle_alpha                 87.926705
_cell_angle_beta                  89.307206
_cell_angle_gamma                 92.173068
_cell_volume                      953.079849464

loop_
_atom_site_label
_atom_site_type_symbol
_atom_type_description
_atom_site_fract_x
_atom_site_fract_y
_atom_site_fract_z
_atom_type_partial_charge
C1    C     C_R   0.492607 0.262489 0.501981 0.854594
C2    C     C_R   0.511281 0.942749 0.372077 0.438233
C3    C     C_R   0.486080 0.870160 0.494255 -0.183609
C4    C     C_R   0.444087 0.928135 0.614185 -0.084231
C5    C     C_3   0.306161 0.910382 0.701625 0.211139
C6    C     C_3   0.303725 0.050816 0.707713 0.240187
C7    C     C_R   0.620681 0.543309 0.070096 0.089816
C8    C     C_R   0.393180 0.438873 0.079286 -0.101295
C9    C     C_R   0.394599 0.436508 0.931780 0.307730
C10   C     C_R   0.619011 0.544661 0.924137 0.031133
C11   C     C_3   0.707954 0.663319 0.908837 0.762538
C12   C     C_R   0.220937 0.500143 0.500431 0.860775
C13   C     C_3   0.701876 0.666051 0.069743 -0.081733
C14   C     C_R   0.494812 0.737041 0.497798 0.839692
C15   C     C_R   0.779075 0.500134 0.499489 0.856681
C16   C     C_1   0.065630 0.500415 0.500420 -0.137177
C17   C     C_1   0.934471 0.500279 0.499047 -0.150668
C18   C     C_R   0.443054 0.055331 0.619718 -0.028275
C19   C     C_R   0.485859 0.128701 0.502549 -0.094344
C20   C     C_R   0.521975 0.070717 0.379371 -0.336790
Cu1   Cu    Cu3+1 0.499990 0.499980 0.640670 1.020150
Cu2   Cu    Cu3+1 0.500010 0.500020 0.359330 0.987678
H1    H     H_    0.549241 0.124024 0.284840 0.184260
H2    H     H_    0.628061 0.736085 0.107420 0.218410
H3    H     H_    0.332359 0.867724 0.803933 0.111460
H4    H     H_    0.325071 0.085756 0.812918 0.082396
H5    H     H_    0.305480 0.390666 0.138267 0.172405
N1    N     N_R   0.500920 0.500930 0.147930 -0.191032
N2    N     N_R   0.500930 0.500890 0.852020 -0.193327
O1    O     O_R   0.500000 0.319640 0.618810 -0.550833
O2    O     O_R   0.500020 0.319680 0.381230 -0.601210
O3    O     O_R   0.288380 0.499980 0.618770 -0.548217
O4    O     O_R   0.288400 0.500020 0.381190 -0.594633
O5    O     O_R   0.499980 0.680320 0.618770 -0.533006
O6    O     O_R   0.500000 0.680360 0.381190 -0.540269
O7    O     O_R   0.711600 0.499980 0.618810 -0.578459
O8    O     O_R   0.711620 0.500020 0.381230 -0.531032
O9    O     O_3   0.628584 0.761204 0.849906 -0.595351
C21   C     C_3   0.719630 0.870580 0.835283 0.113599
H6    H     H_    0.723078 0.901142 0.724155 0.166902
H7    H     H_    0.836055 0.861332 0.867875 0.179525
C22   C     C_3   0.657840 0.971739 0.920213 -0.886884
H8    H     H_    0.540978 0.983716 0.895398 0.240224
H9    H     H_    0.669464 0.948737 0.032243 0.288216
H10   H     H_    0.719881 0.059690 0.896951 0.211999
Br1   Br    Br    0.884071 0.673315 0.172952 -0.605239
O10   O     O_3   0.507885 0.889734 0.244208 -0.581103
C23   C     C_3   0.379220 0.924843 0.173261 0.038884
H11   H     H_    0.407885 0.000458 0.096518 0.156253
H12   H     H_    0.290693 0.958504 0.241501 0.127337
C24   C     C_3   0.312869 0.815903 0.099301 -0.785212
H13   H     H_    0.278844 0.741192 0.175811 0.274004
H14   H     H_    0.214771 0.846580 0.042541 0.199710
H15   H     H_    0.392903 0.780514 0.024482 0.258858
O11   O     O_3   0.178863 0.848796 0.646461 -0.582255
C25   C     C_3   0.155800 0.867351 0.502246 0.127022
H16   H     H_    0.210334 0.794771 0.445058 0.136224
H17   H     H_    0.196341 0.958792 0.461096 0.178984
C26   C     C_3   0.991999 0.854636 0.472361 -0.737545
H18   H     H_    0.930174 0.925954 0.524248 0.223145
H19   H     H_    0.974942 0.866411 0.359010 0.238510
H20   H     H_    0.947412 0.762776 0.508968 0.265072
O12   O     O_3   0.185858 0.106109 0.637769 -0.545588
C27   C     C_3   0.056298 0.096859 0.721206 0.138860
H21   H     H_    0.075472 0.124598 0.829450 0.162576
H22   H     H_    0.010112 0.001387 0.727727 0.164192
C28   C     C_3   0.942203 0.179273 0.656446 -0.800122
H23   H     H_    0.921466 0.154035 0.547594 0.241207
H24   H     H_    0.837165 0.169903 0.716000 0.193891
H25   H     H_    0.982583 0.276506 0.657230 0.267324
Br2   Br    Br    0.246238 0.335526 0.853364 -0.616133
O13   O     O_3   0.844100 0.650538 0.835382 -0.598567
C29   C     C_3   0.933734 0.553987 0.879978 0.088257
H26   H     H_    0.938536 0.485768 0.797556 0.180172
H27   H     H_    0.894451 0.502103 0.975194 0.156910
C30   C     C_3   0.087805 0.608972 0.901558 -0.643485
H28   H     H_    0.142819 0.557453 0.985909 0.222438
H29   H     H_    0.153596 0.608854 0.804197 0.265717
H30   H     H_    0.081581 0.705700 0.931496 0.262335

loop_
_geom_bond_atom_site_label_1
_geom_bond_atom_site_label_2
_ccdc_geom_bond_type
C7    C10   A    
O11   C25   S    
C29   H26   S    
C19   C20   A    
C30   H30   S    
C21   H7    S    
Cu1   O7    S    
Cu2   O6    S    
C5    C6    S    
C30   H29   S    
C13   Br1   S    
C16   C17   T    
C1    O2    A    
C25   H16   S    
C18   C19   A    
C15   O8    A    
C23   C24   S    
C12   C16   S    
C8    C9    A    
C9    N2    A    
C4    C18   A    
C23   H12   S    
C26   H18   S    
Cu2   N1    S    
Cu1   Cu2   S    
C12   O3    A    
C29   H27   S    
C22   H9    S    
C21   C22   S    
O9    C21   S    
C6    C18   S    
Cu1   O3    S    
C26   H19   S    
C1    C19   S    
Cu2   O2    S    
C2    C20   A    
C28   H23   S    
C27   C28   S    
C30   H28   S    
C21   H6    S    
C11   O13   S    
C4    C5    S    
Cu1   O5    S    
Cu2   O8    S    
Cu1   N2    S    
C7    N1    A    
C24   H13   S    
C13   H2    S    
C24   H14   S    
C22   H10   S    
C27   H22   S    
C6    O12   S    
C11   O9    S    
O10   C23   S    
C20   H1    S    
C3    C14   S    
C5    H3    S    
C23   H11   S    
C8    N1    A    
C29   C30   S    
C22   H8    S    
C3    C4    A    
C15   O7    A    
C14   O6    A    
C15   C17   S    
Cu2   O4    S    
C26   H20   S    
C5    O11   S    
C9    Br2   S    
O13   C29   S    
C14   O5    A    
C2    O10   S    
Cu1   O1    S    
C25   C26   S    
C24   H15   S    
C27   H21   S    
C28   H25   S    
C2    C3    A    
C11   C13   S    
C10   N2    A    
C6    H4    S    
C1    O1    A    
C25   H17   S    
C10   C11   S    
O12   C27   S    
C7    C13   S    
C8    H5    S    
C28   H24   S    
C12   O4    A    
