data_mof_unit_35794.cif
_audit_creation_date              2012-12-10T17:28:37-0500
_audit_creation_method            fapswitch 2.2
_symmetry_space_group_name_H-M    P1
_symmetry_Int_Tables_number       1
_space_group_crystal_system       triclinic
_cell_length_a                    10.625155
_cell_length_b                    11.92684
_cell_length_c                    12.897186
_cell_angle_alpha                 92.988505
_cell_angle_beta                  89.853072
_cell_angle_gamma                 87.200162
_cell_volume                      1630.19724626

loop_
_atom_site_label
_atom_site_type_symbol
_atom_type_description
_atom_site_fract_x
_atom_site_fract_y
_atom_site_fract_z
_atom_type_partial_charge
C1    C     C_R   0.498821 0.521836 0.700544 0.884939
C2    C     C_R   0.480847 0.561268 0.132143 -0.280341
C3    C     C_R   0.513386 0.446952 0.974441 0.186939
C4    C     C_R   0.486614 0.553048 0.025559 0.186939
C5    C     C_R   0.365503 0.955464 0.419498 -0.349974
C6    C     C_R   0.634497 0.044536 0.580502 -0.349974
C7    C     C_R   0.380676 0.838689 0.425099 0.019415
C8    C     C_R   0.619324 0.161311 0.574901 0.019415
C9    C     C_R   0.560815 0.857566 0.531981 -0.074387
C10   C     C_R   0.439185 0.142433 0.468019 -0.074387
C11   C     C_R   0.549620 0.975308 0.528483 0.097350
C12   C     C_R   0.501178 0.478164 0.299455 0.884939
C13   C     C_R   0.450380 0.024692 0.471517 0.097350
C14   C     C_R   0.739819 0.499425 0.484732 0.895783
C15   C     C_R   0.260181 0.500575 0.515268 0.895783
C16   C     C_R   0.899284 0.294270 0.431274 -0.126189
C17   C     C_R   0.100716 0.705730 0.568726 -0.126189
C18   C     C_R   0.960615 0.191977 0.452120 -0.158093
C19   C     C_R   0.039385 0.808023 0.547880 -0.158093
C20   C     C_R   0.068763 0.190706 0.512495 -0.177858
C21   C     C_R   0.931237 0.809293 0.487504 -0.177859
C22   C     C_R   0.120519 0.291747 0.545156 -0.131609
C23   C     C_R   0.502639 0.465290 0.188267 -0.052745
C24   C     C_R   0.879481 0.708253 0.454844 -0.131610
C25   C     C_R   0.064958 0.396219 0.516725 0.090904
C26   C     C_R   0.935042 0.603781 0.483275 0.090904
C27   C     C_R   0.945970 0.397209 0.470846 0.083855
C28   C     C_R   0.054030 0.602791 0.529154 0.083855
C29   C     C_R   0.124432 0.499460 0.531961 -0.263172
C30   C     C_R   0.875568 0.500540 0.468039 -0.263172
C31   C     C_R   0.497361 0.534710 0.811733 -0.052745
C32   C     C_R   0.466443 0.649385 0.969448 -0.222005
C33   C     C_R   0.533557 0.350615 0.030552 -0.222005
C34   C     C_R   0.471843 0.640229 0.862149 -0.208830
C35   C     C_R   0.528157 0.359771 0.137851 -0.208830
C36   C     C_R   0.519153 0.438732 0.867856 -0.280341
H1    H     H_    0.886318 0.888543 0.467174 0.134004
H2    H     H_    0.539966 0.357077 0.828875 0.160564
H3    H     H_    0.545187 0.285105 0.181104 0.161488
H4    H     H_    0.454813 0.714895 0.818896 0.161489
H5    H     H_    0.446091 0.731052 0.008349 0.138571
H6    H     H_    0.553909 0.268948 0.991651 0.138571
H7    H     H_    0.364497 0.182192 0.423879 0.139305
H8    H     H_    0.635502 0.817808 0.576121 0.139305
H9    H     H_    0.685119 0.215037 0.614373 0.145102
H10   H     H_    0.314881 0.784963 0.385627 0.145101
H11   H     H_    0.815221 0.292445 0.384055 0.146868
H12   H     H_    0.113682 0.111457 0.532825 0.134004
H13   H     H_    0.184778 0.707555 0.615945 0.146868
H14   H     H_    0.288158 0.991152 0.375372 0.148766
H15   H     H_    0.711842 0.008848 0.624628 0.148766
H16   H     H_    0.922351 0.113753 0.423725 0.132757
H17   H     H_    0.077649 0.886247 0.576275 0.132757
H18   H     H_    0.202377 0.287096 0.594682 0.157264
H19   H     H_    0.797623 0.712904 0.405318 0.157264
H20   H     H_    0.460034 0.642923 0.171125 0.160564
N1    N     N_R   0.523130 0.207800 0.519340 -0.105216
N2    N     N_R   0.476870 0.792200 0.480660 -0.105216
O1    O     O_R   0.506170 0.421700 0.658830 -0.628735
O2    O     O_R   0.493830 0.578300 0.341170 -0.628736
O3    O     O_R   0.491330 0.609310 0.646410 -0.629255
O4    O     O_R   0.508670 0.390690 0.353590 -0.629256
O5    O     O_R   0.690650 0.406190 0.506220 -0.621951
O6    O     O_R   0.309350 0.593810 0.493780 -0.621951
O7    O     O_R   0.675800 0.593810 0.493800 -0.624026
O8    O     O_R   0.324200 0.406190 0.506200 -0.624026
Zn1   Zn    Zn3+2 0.509910 0.374730 0.508290 0.930514
Zn2   Zn    Zn3+2 0.490090 0.625270 0.491710 0.930514

loop_
_geom_bond_atom_site_label_1
_geom_bond_atom_site_label_2
_ccdc_geom_bond_type
C35   H3    S    
C15   O6    A    
C15   C29   S    
C19   C21   A    
C8    N1    A    
C25   C27   A    
C12   O4    A    
C7    N2    A    
C5    C13   A    
C12   C23   S    
C32   H5    S    
O7    Zn2   S    
O1    Zn1   S    
C19   H17   S    
C16   C27   A    
C36   H2    S    
O8    Zn1   S    
C31   C34   A    
C18   H16   S    
C22   H18   S    
C2    H20   S    
C15   O8    A    
C27   C30   A    
C9    C11   A    
O3    Zn2   S    
C4    C32   A    
C33   H6    S    
C3    C36   A    
N1    Zn1   S    
C34   H4    S    
C2    C4    A    
O6    Zn2   S    
C16   H11   S    
N2    Zn2   S    
C28   C29   A    
C17   C19   A    
C14   O7    A    
C24   C26   A    
C26   C30   A    
C23   C35   A    
C1    O1    A    
C25   C29   A    
C6    H15   S    
O5    Zn1   S    
C5    H14   S    
C11   C13   A    
O4    Zn1   S    
C14   O5    A    
C6    C11   A    
C3    C4    A    
C12   O2    A    
C7    H10   S    
C1    C31   S    
C10   N1    A    
C21   H1    S    
O2    Zn2   S    
C18   C20   A    
C16   C18   A    
C9    N2    A    
C21   C24   A    
C17   H13   S    
C2    C23   A    
C5    C7    A    
C3    C33   A    
C8    H9    S    
C9    H8    S    
C6    C8    A    
C20   H12   S    
C33   C35   A    
C10   H7    S    
C31   C36   A    
C17   C28   A    
C26   C28   A    
C10   C13   A    
C14   C30   S    
C20   C22   A    
C32   C34   A    
C24   H19   S    
C22   C25   A    
C1    O3    A    
