data_mof_unit_67006.cif
_audit_creation_date              2012-12-11T17:41:04-0500
_audit_creation_method            fapswitch 2.2
_symmetry_space_group_name_H-M    P1
_symmetry_Int_Tables_number       1
_space_group_crystal_system       triclinic
_cell_length_a                    8.224531
_cell_length_b                    12.714271
_cell_length_c                    14.263121
_cell_angle_alpha                 92.391749
_cell_angle_beta                  90.79923
_cell_angle_gamma                 98.636186
_cell_volume                      1472.97521253

loop_
_atom_site_label
_atom_site_type_symbol
_atom_type_description
_atom_site_fract_x
_atom_site_fract_y
_atom_site_fract_z
_atom_type_partial_charge
Ba1   Ba    Ba6+2 0.855630 0.555280 0.454520 1.648774
Ba2   Ba    Ba6+2 0.334200 0.444810 0.545490 1.660476
C1    C     C_3   0.627659 0.947856 0.167444 -0.423639
C2    C     C_3   0.663583 0.858739 0.228775 0.345135
C3    C     C_3   0.474791 0.323088 0.261282 0.303004
C4    C     C_3   0.468738 0.311360 0.155046 -0.390678
C5    C     C_3   0.025263 0.200062 0.797653 0.409970
C6    C     C_3   0.002815 0.161180 0.896775 -0.323362
C7    C     C_3   0.525707 0.158514 0.857500 0.959917
C8    C     C_3   0.491906 0.111079 0.952734 -0.233847
C9    C     C_R   0.989010 0.442425 0.061269 -0.059042
C10   C     C_R   0.181091 0.502295 0.196759 0.053205
C11   C     C_R   0.333333 0.557546 0.227424 -0.288554
C12   C     C_3   0.154669 0.817652 0.194630 0.356848
C13   C     C_R   0.446622 0.604344 0.164074 0.010476
C14   C     C_R   0.403665 0.605639 0.069092 -0.141628
C15   C     C_R   0.249009 0.554592 0.035622 -0.011337
C16   C     C_R   0.137968 0.498924 0.098689 -0.030845
C17   C     C_R   0.058183 0.499891 0.901944 -0.001731
C18   C     C_R   0.947429 0.444115 0.965078 0.009252
C19   C     C_R   0.011837 0.498987 0.804418 0.070438
C20   C     C_R   0.859245 0.444417 0.774133 -0.232389
C21   C     C_R   0.748045 0.395730 0.837296 0.044531
C22   C     C_R   0.791698 0.394489 0.932146 -0.074337
C23   C     C_3   0.162789 0.872058 0.101565 -0.385721
C24   C     C_R   0.207338 0.556321 0.939322 -0.051517
C25   C     C_R   0.774218 0.174684 0.522944 -0.295474
C26   C     C_R   0.437269 0.811177 0.453167 -0.277715
C27   C     C_R   0.414502 0.992738 0.418386 -0.108831
C28   C     C_R   0.349146 0.885401 0.415323 -0.009761
C29   C     C_R   0.584261 0.844077 0.503564 0.086284
C30   C     C_R   0.653360 0.954595 0.507870 -0.066447
C31   C     C_R   0.565932 0.029351 0.464420 -0.065059
C32   C     C_R   0.626887 0.139713 0.473820 0.035918
C33   C     C_R   0.865683 0.102955 0.561287 -0.024546
C34   C     C_3   0.230552 0.757683 0.649855 0.287135
C35   C     C_R   0.803609 0.994015 0.556382 -0.092418
C36   C     C_3   0.304979 0.872820 0.670807 -0.337540
C37   C     C_3   0.968890 0.233678 0.337047 0.275242
C38   C     C_3   0.975552 0.116620 0.314397 -0.342213
C39   C     C_3   0.770648 0.737748 0.750824 0.406079
C40   C     C_3   0.683436 0.686566 0.835679 0.224791
H1    H     H_    0.753573 0.892107 0.285055 0.083690
H2    H     H_    0.423512 0.876429 0.709252 0.158030
H3    H     H_    0.323098 0.914770 0.604738 0.058611
H4    H     H_    0.224313 0.915578 0.714200 0.205294
H5    H     H_    0.840899 0.244740 0.350479 0.006210
H6    H     H_    0.048221 0.258672 0.400075 0.067829
H7    H     H_    0.902713 0.090298 0.249521 0.118939
H8    H     H_    0.924634 0.067542 0.372373 0.087149
H9    H     H_    0.104904 0.104462 0.303436 0.134780
H10   H     H_    0.842919 0.681618 0.714815 0.009326
H11   H     H_    0.580425 0.010721 0.210981 0.098747
H12   H     H_    0.618658 0.744357 0.875809 0.038254
H13   H     H_    0.584453 0.624015 0.807857 0.105401
H14   H     H_    0.547124 0.826146 0.262602 -0.051565
H15   H     H_    0.533913 0.915666 0.112793 0.113927
H16   H     H_    0.354431 0.340359 0.286301 0.017612
H17   H     H_    0.572561 0.390603 0.281668 0.070274
H18   H     H_    0.371153 0.244932 0.131730 0.125735
H19   H     H_    0.442201 0.385446 0.124050 0.069311
H20   H     H_    0.590257 0.295298 0.130276 0.113960
H21   H     H_    0.741140 0.983120 0.132095 0.131693
H22   H     H_    0.214429 0.821918 0.047398 0.067759
H23   H     H_    0.122213 0.271216 0.800137 0.073072
H24   H     H_    0.907232 0.222869 0.773148 -0.093027
H25   H     H_    0.113872 0.129596 0.920647 0.141719
H26   H     H_    0.982470 0.227614 0.945792 0.051969
H27   H     H_    0.894867 0.097616 0.898961 0.140497
H28   H     H_    0.660093 0.189193 0.859811 -0.360506
H29   H     H_    0.527017 0.172949 0.008869 0.027582
H30   H     H_    0.566711 0.046290 0.962318 0.071848
H31   H     H_    0.280925 0.803821 0.213347 -0.070426
H32   H     H_    0.360300 0.077481 0.958791 0.090287
H33   H     H_    0.368640 0.557982 0.300821 0.067542
H34   H     H_    0.492471 0.644000 0.021177 0.084988
H35   H     H_    0.702560 0.357318 0.980377 0.042815
H36   H     H_    0.821856 0.445798 0.701194 0.052287
H37   H     H_    0.902604 0.397415 0.106346 0.103521
H38   H     H_    0.292373 0.602661 0.894379 0.102324
H39   H     H_    0.341954 0.046907 0.387645 0.091665
H40   H     H_    0.873165 0.942595 0.592641 0.135594
H41   H     H_    0.820104 0.259060 0.529773 0.063501
H42   H     H_    0.072951 0.739730 0.186071 0.070767
H43   H     H_    0.383908 0.727960 0.450163 0.064218
H44   H     H_    0.037888 0.884902 0.078872 0.138645
H45   H     H_    0.242899 0.950555 0.109173 0.119617
H46   H     H_    0.323565 0.716267 0.614599 0.023647
H47   H     H_    0.122840 0.755602 0.602233 0.082083
O1    O     O_2   0.887370 0.460630 0.272300 -0.464690
O2    O     O_3   0.648100 0.767857 0.693756 -0.673901
O3    O     O_3   0.091051 0.883026 0.262291 -0.595110
O4    O     O_2   0.302330 0.539400 0.727760 -0.459692
O5    O     O_3   0.060300 0.548700 0.611500 -0.503101
O6    O     O_3   0.519500 0.346920 0.670840 -0.463222
O7    O     O_3   0.182632 0.710565 0.734021 -0.618888
O8    O     O_3   0.614310 0.373510 0.452640 -0.481511
O9    O     O_3   0.100780 0.295230 0.623970 -0.497523
O10   O     O_2   0.210588 0.114364 0.575663 -0.461112
O11   O     O_3   0.072734 0.119000 0.738707 -0.558008
O12   O     O_3   0.129410 0.451380 0.388510 -0.497551
O13   O     O_3   0.575400 0.626570 0.547370 -0.474060
O14   O     O_2   0.344320 0.238700 0.455090 -0.467384
O15   O     O_3   0.508753 0.227544 0.297105 -0.649909
O16   O     O_2   0.440439 0.437750 0.831887 -0.487457
O17   O     O_3   0.426070 0.237874 0.844368 -0.615618
O18   O     O_3   0.670210 0.653170 0.329170 -0.475578
O19   O     O_2   0.777888 0.584727 0.166974 -0.495278
O20   O     O_3   0.021487 0.290453 0.258795 -0.641702
O21   O     O_3   0.732061 0.783221 0.173028 -0.603899
O22   O     O_2   0.845380 0.761330 0.544970 -0.485217
O23   O     O_3   0.088930 0.704860 0.376040 -0.481618
O24   O     O_2   0.016432 0.889304 0.439283 -0.489652
P1    P     P_3+3 0.054400 0.427280 0.286870 0.968570
P2    P     P_3+3 0.668300 0.742890 0.573060 0.972742
P3    P     P_3+3 0.137142 0.842151 0.373794 0.949852
P4    P     P_3+3 0.135310 0.572810 0.713130 0.980092
P5    P     P_3+3 0.062570 0.156210 0.622225 0.993215
P6    P     P_3+3 0.655917 0.654992 0.207268 0.948395
P7    P     P_3+3 0.525237 0.242785 0.419365 0.935791
P8    P     P_3+3 0.536795 0.350589 0.794983 0.976868
I1    I     I_    0.916436 0.883355 0.797490 -0.553205
O25   O     O_3   0.787812 0.635612 0.891987 -0.685690
C41   C     C_3   0.869510 0.704644 0.963418 0.135604
H48   H     H_    0.796427 0.765098 0.991887 0.080239
H49   H     H_    0.989789 0.742792 0.938083 0.082773
H50   H     H_    0.898486 0.656610 0.022311 0.114800
O26   O     O_3   0.480599 0.076500 0.788805 -0.649922
C42   C     C_3   0.590248 0.087937 0.714383 0.214439
H51   H     H_    0.695849 0.046264 0.729919 0.057542
H52   H     H_    0.634752 0.171846 0.698317 -0.016937
H53   H     H_    0.524396 0.051769 0.650834 0.070473

loop_
_geom_bond_atom_site_label_1
_geom_bond_atom_site_label_2
_ccdc_geom_bond_type
C34   H47   S    
C9    C16   A    
Ba1   O1    S    
C8    H32   S    
C39   C40   S    
C17   C18   A    
C12   H42   S    
O15   P7    S    
O26   C42   S    
O25   C41   S    
C21   P8    S    
C28   P3    S    
C34   H46   S    
C36   H2    S    
C6    H27   S    
C3    H16   S    
C15   C24   A    
C4    H19   S    
C41   H49   S    
Ba2   O6    S    
C17   C19   A    
Ba1   O23   S    
C3    C4    S    
O5    P4    S    
Ba2   O13   S    
C13   C14   A    
C27   C31   A    
C23   H45   S    
Ba1   Ba2   S    
O18   P6    S    
C17   C24   A    
C18   C22   A    
C36   H3    S    
C19   P4    S    
O13   P2    S    
C11   H33   S    
Ba2   O8    S    
O2    P2    S    
Ba1   O5    S    
C21   C22   A    
C7    C8    S    
C39   H10   S    
C42   H53   S    
C8    H29   S    
O6    P8    S    
C3    O15   S    
C19   C20   A    
C2    H14   S    
O12   P1    S    
O19   P6    D    
O4    P4    D    
C29   P2    S    
Ba2   P4    S    
C40   O25   S    
O9    P5    S    
C10   P1    S    
Ba2   O4    S    
C25   C32   A    
C32   P7    S    
C9    C18   A    
C7    O26   S    
C5    O11   S    
C3    H17   S    
C12   H31   S    
C4    H18   S    
O7    P4    S    
Ba2   O5    S    
C31   C32   A    
C7    H28   S    
C20   H36   S    
Ba1   O8    S    
C37   C38   S    
C14   C15   A    
Ba2   O12   S    
C25   C33   A    
C7    O17   S    
C24   H38   S    
C23   H22   S    
C39   I1    S    
C27   H39   S    
C27   C28   A    
C40   H13   S    
C5    H23   S    
C34   O7    S    
C29   C30   A    
C15   C16   A    
O16   P8    D    
C30   C35   A    
O3    P3    S    
C12   O3    S    
C9    H37   S    
O20   P1    S    
Ba1   O18   S    
C41   H50   S    
C1    H15   S    
C39   O2    S    
C6    H26   S    
C11   C13   A    
C35   H40   S    
O11   P5    S    
Ba1   P1    S    
C1    C2    S    
Ba1   O12   S    
O23   P3    S    
C34   C36   S    
C37   H5    S    
C42   H51   S    
C2    O21   S    
C33   C35   A    
C14   H34   S    
C26   C29   A    
O21   P6    S    
C2    H1    S    
C1    H21   S    
C38   H9    S    
C30   C31   A    
O24   P3    D    
O8    P7    S    
C25   H41   S    
Ba1   O22   S    
O10   P5    D    
C1    H11   S    
C4    H20   S    
Ba2   O14   S    
C38   H8    S    
O17   P8    S    
C26   C28   A    
C23   H44   S    
O14   P7    D    
C13   P6    S    
O1    P1    D    
C12   C23   S    
C36   H4    S    
C5    C6    S    
C22   H35   S    
C37   O20   S    
C10   C11   A    
Ba2   O9    S    
C6    H25   S    
C10   C16   A    
C26   H43   S    
C20   C21   A    
C41   H48   S    
C33   P5    S    
O22   P2    D    
Ba1   P2    S    
C42   H52   S    
Ba1   O13   S    
C40   H12   S    
C38   H7    S    
C37   H6    S    
C5    H24   S    
C8    H30   S    
