data_mof_unit_41836.cif
_audit_creation_date              2012-12-10T20:26:27-0500
_audit_creation_method            fapswitch 2.2
_symmetry_space_group_name_H-M    P1
_symmetry_Int_Tables_number       1
_space_group_crystal_system       triclinic
_cell_length_a                    10.740338
_cell_length_b                    10.670423
_cell_length_c                    9.870324
_cell_angle_alpha                 90.197079
_cell_angle_beta                  90.325089
_cell_angle_gamma                 89.928706
_cell_volume                      1131.15236653

loop_
_atom_site_label
_atom_site_type_symbol
_atom_type_description
_atom_site_fract_x
_atom_site_fract_y
_atom_site_fract_z
_atom_type_partial_charge
C1    C     C_R   0.496231 0.260095 0.499651 0.947370
C2    C     C_R   0.479618 0.128399 0.500588 -0.268646
C3    C     C_R   0.422597 0.064379 0.391063 0.399074
C4    C     C_R   0.414885 0.933472 0.396293 0.386400
C5    C     C_R   0.475860 0.870724 0.503108 -0.294222
C6    C     C_R   0.513518 0.936770 0.617407 -0.052965
C7    C     C_3   0.628874 0.930145 0.703694 0.456418
C8    C     C_3   0.629038 0.073751 0.703187 -0.541574
C9    C     C_R   0.408236 0.558941 0.070864 0.277590
C10   C     C_R   0.595617 0.446828 0.072321 -0.159261
C11   C     C_R   0.595573 0.446765 0.928424 -0.132112
C12   C     C_R   0.262613 0.501914 0.499581 0.921487
C13   C     C_R   0.408510 0.559438 0.928237 0.212440
C14   C     C_3   0.273002 0.530445 0.920875 -0.518234
C15   C     C_3   0.272956 0.528155 0.074269 -0.520813
C16   C     C_R   0.494811 0.739606 0.500296 0.991594
C17   C     C_R   0.737361 0.496379 0.500326 0.941407
C18   C     C_2   0.932697 0.487677 0.386276 -0.178741
C19   C     C_2   0.868721 0.481857 0.501499 -0.321341
C20   C     C_2   0.066503 0.479601 0.388066 -0.160584
C21   C     C_2   0.130969 0.511513 0.498753 -0.340768
C22   C     C_R   0.513910 0.064102 0.617052 -0.015634
H1    H     H_    0.886997 0.497817 0.288401 0.170145
H2    H     H_    0.671466 0.402723 0.126765 0.143960
H3    H     H_    0.671357 0.402567 0.874558 0.147830
H4    H     H_    0.218248 0.609428 0.877746 0.204621
H5    H     H_    0.253615 0.437328 0.874439 0.222106
H6    H     H_    0.216647 0.604610 0.119815 0.204820
H7    H     H_    0.255430 0.433119 0.115789 0.217243
H8    H     H_    0.911781 0.462623 0.598888 0.149756
H9    H     H_    0.111998 0.448647 0.296080 0.173119
H10   H     H_    0.088357 0.547941 0.590110 0.149999
H11   H     H_    0.607326 0.891704 0.805458 0.087804
N1    N     N_R   0.499170 0.499140 0.142800 -0.109522
N2    N     N_R   0.499170 0.499180 0.857150 -0.108627
O1    O     O_R   0.500020 0.316790 0.614690 -0.618715
O2    O     O_R   0.500000 0.316760 0.385350 -0.592988
O3    O     O_R   0.319080 0.500020 0.614640 -0.633401
O4    O     O_R   0.319070 0.499980 0.385300 -0.609915
O5    O     O_R   0.500000 0.683240 0.614650 -0.616118
O6    O     O_R   0.499980 0.683210 0.385310 -0.580605
O7    O     O_R   0.680930 0.500020 0.614700 -0.616262
O8    O     O_R   0.680920 0.499980 0.385360 -0.635067
Zn1   Zn    Zn3+2 0.500010 0.500020 0.653130 0.951140
Zn2   Zn    Zn3+2 0.499990 0.499980 0.346870 0.969653
H12   H     H_    0.706788 0.121202 0.650695 0.189654
O9    O     O_3   0.369393 0.129554 0.284195 -0.583598
C23   C     C_3   0.447142 0.119238 0.169734 -0.220794
H13   H     H_    0.545840 0.142840 0.193998 0.132868
H14   H     H_    0.414491 0.187031 0.092244 0.173997
H15   H     H_    0.441557 0.024158 0.124008 0.187608
O10   O     O_3   0.356161 0.868185 0.293004 -0.589991
C24   C     C_3   0.231901 0.846839 0.331863 -0.257439
H16   H     H_    0.227274 0.785656 0.422802 0.137300
H17   H     H_    0.182885 0.797886 0.247977 0.175465
H18   H     H_    0.181612 0.936516 0.350673 0.168439
O11   O     O_3   0.730891 0.864349 0.644097 -0.585979
C25   C     C_3   0.782150 0.921131 0.527758 -0.294967
H19   H     H_    0.852414 0.992247 0.558053 0.164452
H20   H     H_    0.711327 0.962960 0.459131 0.150409
H21   H     H_    0.831575 0.847924 0.468739 0.182489
H22   H     H_    0.607925 0.114528 0.804308 0.170229

loop_
_geom_bond_atom_site_label_1
_geom_bond_atom_site_label_2
_ccdc_geom_bond_type
C2    C22   A    
C8    C22   S    
C17   O8    A    
O3    Zn1   S    
C6    C7    S    
C14   H5    S    
C7    H11   S    
O9    C23   S    
C14   C15   S    
C1    O2    A    
O4    Zn2   S    
C25   H21   S    
C11   N2    A    
C2    C3    A    
O11   C25   S    
C7    C8    S    
C10   N1    A    
N1    Zn2   S    
C13   C14   S    
C14   H4    S    
C23   H14   S    
N2    Zn1   S    
O8    Zn2   S    
C15   H6    S    
C5    C6    A    
O7    Zn1   S    
C16   O5    A    
C12   C21   S    
C3    O9    S    
C23   H13   S    
C17   C19   S    
C4    O10   S    
C15   H7    S    
C18   C20   S    
C24   H17   S    
C12   O3    A    
C9    N1    A    
C23   H15   S    
C21   H10   S    
C8    H12   S    
O1    Zn1   S    
C10   C11   A    
C11   H3    S    
C12   O4    A    
C25   H20   S    
C3    C4    A    
C6    C22   A    
O5    Zn1   S    
C20   C21   D    
C1    O1    A    
C1    C2    S    
C24   H18   S    
C8    H22   S    
C9    C13   A    
C17   O7    A    
C18   C19   D    
C5    C16   S    
O6    Zn2   S    
C10   H2    S    
C25   H19   S    
C9    C15   S    
C19   H8    S    
O2    Zn2   S    
C16   O6    A    
C7    O11   S    
C13   N2    A    
C18   H1    S    
C24   H16   S    
O10   C24   S    
C4    C5    A    
C20   H9    S    
