data_mof_unit_10055.cif
_audit_creation_date              2012-12-11T14:41:10-0500
_audit_creation_method            fapswitch 2.2
_symmetry_space_group_name_H-M    P1
_symmetry_Int_Tables_number       1
_space_group_crystal_system       triclinic
_cell_length_a                    6.941613
_cell_length_b                    17.654406
_cell_length_c                    19.033113
_cell_angle_alpha                 90.000011
_cell_angle_beta                  90.000569
_cell_angle_gamma                 90.06145
_cell_volume                      2332.50768807

loop_
_atom_site_label
_atom_site_type_symbol
_atom_type_description
_atom_site_fract_x
_atom_site_fract_y
_atom_site_fract_z
_atom_type_partial_charge
O1    O     O_R   0.377350 0.828520 0.186660 -0.535528
O2    O     O_R   0.622650 0.171480 0.813340 -0.535519
O3    O     O_R   0.122650 0.171480 0.686660 -0.535521
O4    O     O_R   0.877350 0.828520 0.313340 -0.535523
O5    O     O_R   0.877350 0.671480 0.313340 -0.536711
O6    O     O_R   0.122650 0.328520 0.686660 -0.536710
O7    O     O_R   0.622650 0.328520 0.813340 -0.536728
O8    O     O_R   0.377350 0.671480 0.186660 -0.536697
O9    O     O_R   0.707090 0.671930 0.178410 -0.539029
O10   O     O_R   0.292910 0.328070 0.821590 -0.539012
O11   O     O_R   0.792910 0.328070 0.678410 -0.539026
O12   O     O_R   0.207090 0.671930 0.321590 -0.539017
O13   O     O_R   0.207090 0.828070 0.321590 -0.539429
O14   O     O_R   0.792910 0.171930 0.678410 -0.539434
O15   O     O_R   0.292910 0.171930 0.821590 -0.539429
O16   O     O_R   0.707090 0.828070 0.178410 -0.539435
C1    C     C_R   0.538144 0.646537 0.160991 0.683766
C2    C     C_R   0.461855 0.353464 0.839007 0.683785
C3    C     C_R   0.961854 0.353465 0.660994 0.683761
C4    C     C_R   0.038146 0.646538 0.339010 0.683772
C5    C     C_R   0.038292 0.853580 0.338862 0.683925
C6    C     C_R   0.961709 0.146421 0.661137 0.683940
C7    C     C_R   0.461709 0.146421 0.838863 0.683918
C8    C     C_R   0.538290 0.853579 0.161137 0.683948
O17   O     O_3   0.543850 0.750000 0.294270 -0.364215
O18   O     O_3   0.456150 0.250000 0.705730 -0.364215
O19   O     O_3   0.956150 0.250000 0.794270 -0.364213
O20   O     O_3   0.043850 0.750000 0.205730 -0.364220
V1    V     V_3+5 0.818700 0.750000 0.241790 1.446074
V2    V     V_3+5 0.181300 0.250000 0.758210 1.446114
V3    V     V_3+5 0.681300 0.250000 0.741790 1.446085
V4    V     V_3+5 0.318700 0.750000 0.258210 1.446101
C9    C     C_R   0.971773 0.416743 0.609718 -0.244262
C10   C     C_R   0.028229 0.583261 0.390286 -0.244267
C11   C     C_R   0.528223 0.583258 0.109716 -0.244250
C12   C     C_R   0.471774 0.416740 0.890285 -0.244346
C13   C     C_R   0.470823 0.083523 0.890493 -0.242978
C14   C     C_R   0.529177 0.916477 0.109507 -0.243011
C15   C     C_R   0.029181 0.916478 0.390492 -0.242997
C16   C     C_R   0.970822 0.083523 0.609506 -0.242997
C17   C     C_R   0.022276 0.447308 0.414403 0.159559
C18   C     C_R   0.977733 0.552697 0.585604 0.159535
C19   C     C_R   0.477684 0.552693 0.914400 0.159443
C20   C     C_R   0.522263 0.447303 0.085599 0.159562
C21   C     C_R   0.530010 0.052436 0.085433 0.161212
C22   C     C_R   0.469981 0.947562 0.914567 0.161213
C23   C     C_R   0.970001 0.947563 0.585432 0.161225
C24   C     C_R   0.030010 0.052438 0.414567 0.161217
C25   C     C_R   0.008605 0.507786 0.366170 0.290617
C26   C     C_R   0.991419 0.492218 0.633835 0.290563
C27   C     C_R   0.491445 0.492215 0.866170 0.290809
C28   C     C_R   0.508633 0.507782 0.133834 0.290597
C29   C     C_R   0.567389 0.991618 0.131533 0.290056
C30   C     C_R   0.432623 0.008381 0.868464 0.290034
C31   C     C_R   0.932629 0.008381 0.631534 0.290042
C32   C     C_R   0.067380 0.991620 0.368465 0.290052
C33   C     C_R   0.047253 0.597047 0.463478 0.274722
C34   C     C_R   0.952736 0.402960 0.536527 0.274738
C35   C     C_R   0.452700 0.402957 0.963475 0.274719
C36   C     C_R   0.547180 0.597046 0.036524 0.274710
C37   C     C_R   0.469107 0.903166 0.039196 0.278216
C38   C     C_R   0.530874 0.096834 0.960805 0.278220
C39   C     C_R   0.030877 0.096835 0.539195 0.278217
C40   C     C_R   0.969126 0.903167 0.460803 0.278219
C41   C     C_R   0.004858 0.538138 0.512313 -0.072599
C42   C     C_R   0.995137 0.461868 0.487693 -0.072596
C43   C     C_R   0.495093 0.461864 0.012311 -0.072547
C44   C     C_R   0.504790 0.538134 0.987691 -0.072708
C45   C     C_R   0.486017 0.961996 0.988307 -0.072314
C46   C     C_R   0.513970 0.038002 0.011692 -0.072334
C47   C     C_R   0.013976 0.038004 0.488307 -0.072329
C48   C     C_R   0.986031 0.961998 0.511692 -0.072324
O21   O     O_3   0.879229 0.335201 0.511344 -0.658071
H1    H     H_    0.841962 0.301058 0.550105 0.289583
O22   O     O_3   0.120748 0.664808 0.488660 -0.658076
H2    H     H_    0.158020 0.698949 0.449898 0.289578
O23   O     O_3   0.620569 0.664822 0.011334 -0.658066
H3    H     H_    0.657950 0.698950 0.050093 0.289584
O24   O     O_3   0.379168 0.335201 0.988655 -0.658065
H4    H     H_    0.341963 0.301050 0.949891 0.289580
O25   O     O_3   0.620828 0.163781 0.980148 -0.654363
H5    H     H_    0.620014 0.201017 0.941497 0.292365
O26   O     O_3   0.379126 0.836224 0.019857 -0.654362
H6    H     H_    0.379899 0.798994 0.058513 0.292400
O27   O     O_3   0.879162 0.836221 0.480145 -0.654359
H7    H     H_    0.879963 0.798987 0.441493 0.292380
O28   O     O_3   0.120834 0.163782 0.519854 -0.654362
H8    H     H_    0.120034 0.201015 0.558507 0.292378
O29   O     O_3   0.011903 0.510072 0.704367 -0.648783
H9    H     H_    0.033065 0.464063 0.732842 0.292027
O30   O     O_3   0.988153 0.489930 0.295638 -0.648809
H10   H     H_    0.967054 0.535938 0.267157 0.291984
O31   O     O_3   0.488243 0.489925 0.204368 -0.648802
H11   H     H_    0.467206 0.535935 0.232855 0.291977
O32   O     O_3   0.512042 0.510066 0.795644 -0.648820
H12   H     H_    0.533260 0.464057 0.767175 0.291989
O33   O     O_3   0.371623 0.991035 0.801012 -0.652193
H13   H     H_    0.336317 0.037274 0.774853 0.294104
O34   O     O_3   0.628410 0.008964 0.198982 -0.652187
H14   H     H_    0.663776 0.962725 0.225132 0.294109
O35   O     O_3   0.128386 0.008967 0.301015 -0.652185
H15   H     H_    0.163709 0.962728 0.274858 0.294104
O36   O     O_3   0.871628 0.991033 0.698985 -0.652192
H16   H     H_    0.836281 0.037271 0.725138 0.294103
C49   C     C_3   0.081564 0.369732 0.385585 -0.270699
C50   C     C_3   0.275803 0.372608 0.347331 -0.716427
H17   H     H_    0.266127 0.404470 0.297327 0.286027
H18   H     H_    0.386932 0.399152 0.381421 0.231838
H19   H     H_    0.322907 0.314112 0.334402 0.206420
H20   H     H_    0.104437 0.327101 0.427100 0.226490
H21   H     H_    0.968491 0.348021 0.349454 0.200166
C51   C     C_3   0.918460 0.630273 0.614425 -0.270644
C52   C     C_3   0.724249 0.627400 0.652699 -0.716489
H22   H     H_    0.613098 0.600846 0.618626 0.231824
H23   H     H_    0.733964 0.595550 0.702709 0.286058
H24   H     H_    0.677144 0.685898 0.665622 0.206409
H25   H     H_    0.031560 0.651988 0.650543 0.200103
H26   H     H_    0.895551 0.672900 0.572909 0.226492
C53   C     C_3   0.418424 0.630278 0.885591 -0.270571
C54   C     C_3   0.224525 0.627393 0.847104 -0.716198
H27   H     H_    0.234910 0.595857 0.796940 0.285969
H28   H     H_    0.113312 0.600506 0.880924 0.231920
H29   H     H_    0.177048 0.685905 0.834421 0.206286
H30   H     H_    0.395058 0.672822 0.927152 0.226431
H31   H     H_    0.531753 0.652089 0.849622 0.200097
C55   C     C_3   0.581558 0.369727 0.114416 -0.270705
C56   C     C_3   0.775851 0.372596 0.152635 -0.716448
H32   H     H_    0.886958 0.399108 0.118515 0.231826
H33   H     H_    0.766273 0.404485 0.202627 0.286038
H34   H     H_    0.822924 0.314100 0.165582 0.206431
H35   H     H_    0.468526 0.348029 0.150569 0.200158
H36   H     H_    0.604351 0.327086 0.072905 0.226491
C57   C     C_3   0.492967 0.130457 0.118038 -0.270144
C58   C     C_3   0.327837 0.129114 0.171559 -0.716347
H37   H     H_    0.198803 0.101148 0.148671 0.234968
H38   H     H_    0.369648 0.099512 0.220545 0.285198
H39   H     H_    0.288667 0.188081 0.186093 0.203150
H40   H     H_    0.626483 0.151688 0.143588 0.199096
H41   H     H_    0.445913 0.172889 0.079113 0.224565
C59   C     C_3   0.507003 0.869540 0.881960 -0.270146
C60   C     C_3   0.672198 0.870872 0.828467 -0.716418
H42   H     H_    0.630518 0.900533 0.779497 0.285234
H43   H     H_    0.801263 0.898774 0.851398 0.234938
H44   H     H_    0.711254 0.811904 0.813896 0.203168
H45   H     H_    0.553976 0.827094 0.920885 0.224617
H46   H     H_    0.373504 0.848329 0.856387 0.199106
C61   C     C_3   0.007048 0.869542 0.618036 -0.270172
C62   C     C_3   0.172218 0.870883 0.671541 -0.716378
H47   H     H_    0.301257 0.898821 0.648629 0.234960
H48   H     H_    0.130473 0.900512 0.720520 0.285223
H49   H     H_    0.211343 0.811915 0.686091 0.203157
H50   H     H_    0.873549 0.848318 0.643600 0.199107
H51   H     H_    0.054060 0.827104 0.579110 0.224584
C63   C     C_3   0.992962 0.130459 0.381963 -0.270155
C64   C     C_3   0.827811 0.129117 0.328450 -0.716387
H52   H     H_    0.869593 0.099504 0.279467 0.285210
H53   H     H_    0.698782 0.101160 0.351350 0.234965
H54   H     H_    0.788653 0.188083 0.313911 0.203163
H55   H     H_    0.945928 0.172893 0.420889 0.224579
H56   H     H_    0.126467 0.151688 0.356406 0.199101

loop_
_geom_bond_atom_site_label_1
_geom_bond_atom_site_label_2
_ccdc_geom_bond_type
O23   H3    S    
O28   H8    S    
C9    C34   A    
C31   O36   S    
C64   H53   S    
O21   H1    S    
O13   V4    S    
O32   H12   S    
C62   H49   S    
O14   V3    S    
C49   H20   S    
C12   C35   A    
C19   C27   A    
C58   H39   S    
O25   H5    S    
O5    C4    A    
C53   H30   S    
C29   O34   S    
C15   C40   A    
O11   C3    A    
C55   C56   S    
C16   C39   A    
C17   C49   S    
C23   C31   A    
O20   V1    S    
C62   H48   S    
C32   O35   S    
C60   H43   S    
O27   H7    S    
C51   H25   S    
C50   H17   S    
O33   H13   S    
C38   C46   A    
C18   C51   S    
C22   C45   A    
C35   C43   A    
C34   C42   A    
C61   C62   S    
C19   C44   A    
C18   C41   A    
C8    C14   S    
C30   O33   S    
O4    V1    S    
C54   H29   S    
O9    V1    S    
C52   H24   S    
C4    C10   S    
C20   C28   A    
O17   V4    S    
O15   C7    A    
C49   H21   S    
O11   V3    S    
O18   V3    S    
O16   C8    A    
O12   V4    S    
C64   H54   S    
O12   C4    A    
C25   O30   S    
C17   C25   A    
C51   C52   S    
C54   H28   S    
C13   C38   A    
O5    V1    S    
O17   V1    S    
C23   C61   S    
C36   O23   S    
C64   H52   S    
O7    V3    S    
O19   V3    S    
C43   C44   A    
O8    V4    S    
O35   H15   S    
O20   V4    S    
C62   H47   S    
C37   O26   S    
C60   H44   S    
C59   H46   S    
O30   H10   S    
C6    C16   S    
C58   H38   S    
O16   V1    S    
C7    C13   S    
O1    V4    S    
O2    V3    S    
O3    V2    S    
O22   H2    S    
C56   H33   S    
C63   H56   S    
O6    C3    A    
C10   C33   A    
O10   V2    S    
C26   O29   S    
O26   H6    S    
C5    C15   S    
C55   H36   S    
O7    C2    A    
C20   C55   S    
C22   C30   A    
O13   C5    A    
C28   O31   S    
O31   H11   S    
C59   C60   S    
C63   C64   S    
C58   H37   S    
C12   C27   A    
C18   C26   A    
C13   C30   A    
C53   H31   S    
O9    C1    A    
O6    V2    S    
C38   O25   S    
C39   C47   A    
C57   H41   S    
C3    C9    S    
C57   C58   S    
C24   C47   A    
C35   O24   S    
C56   H32   S    
C15   C32   A    
C40   O27   S    
O2    C7    A    
C63   H55   S    
C54   H27   S    
O15   V2    S    
C22   C59   S    
C52   H22   S    
C37   C45   A    
C24   C32   A    
C24   C63   S    
C10   C25   A    
C39   O28   S    
C21   C46   A    
C33   C41   A    
C20   C43   A    
C16   C31   A    
C59   H45   S    
C53   C54   S    
C14   C37   A    
O18   V2    S    
C17   C42   A    
C49   C50   S    
C21   C57   S    
O8    C1    A    
O34   H14   S    
O14   C6    A    
C61   H50   S    
C9    C26   A    
C56   H34   S    
C47   C48   A    
C60   H42   S    
C51   H26   S    
O4    C5    A    
C11   C28   A    
C33   O22   S    
C14   C29   A    
C50   H18   S    
C55   H35   S    
O10   C2    A    
C40   C48   A    
C45   C46   A    
C61   H51   S    
C23   C48   A    
C21   C29   A    
O24   H4    S    
C57   H40   S    
C36   C44   A    
O1    C8    A    
C41   C42   A    
C27   O32   S    
O36   H16   S    
C11   C36   A    
O3    C6    A    
C1    C11   S    
C52   H23   S    
O29   H9    S    
C2    C12   S    
C34   O21   S    
C19   C53   S    
O19   V2    S    
C50   H19   S    
