data_mof_unit_24253.cif
_audit_creation_date              2012-12-11T16:53:53-0500
_audit_creation_method            fapswitch 2.2
_symmetry_space_group_name_H-M    P1
_symmetry_Int_Tables_number       1
_space_group_crystal_system       triclinic
_cell_length_a                    14.877773
_cell_length_b                    14.829735
_cell_length_c                    16.958319
_cell_angle_alpha                 108.894076
_cell_angle_beta                  106.675942
_cell_angle_gamma                 108.112994
_cell_volume                      3035.89810709

loop_
_atom_site_label
_atom_site_type_symbol
_atom_type_description
_atom_site_fract_x
_atom_site_fract_y
_atom_site_fract_z
_atom_type_partial_charge
C1    C     C_R   0.088555 0.282510 0.070414 -0.191531
C2    C     C_R   0.067839 0.474459 0.249933 0.343307
C3    C     C_R   0.221664 0.798586 0.186388 -0.128295
C4    C     C_R   0.934780 0.450773 0.734843 -0.124188
C5    C     C_R   0.744542 0.470578 0.054050 -0.130115
C6    C     C_R   0.234765 0.805280 0.272602 0.083743
C7    C     C_R   0.721963 0.551385 0.043456 0.088640
C8    C     C_R   0.977315 0.413373 0.253415 0.024011
C9    C     C_R   0.999277 0.808099 0.950751 0.060448
C10   C     C_R   0.517465 0.642194 0.032187 0.165086
C11   C     C_R   0.471731 0.595039 0.078770 -0.016713
C12   C     C_R   0.026683 0.463778 0.724910 0.059411
C13   C     C_R   0.534768 0.577296 0.145760 -0.253013
C14   C     C_R   0.632333 0.583106 0.149323 0.295336
C15   C     C_R   0.660778 0.599017 0.079959 -0.019659
C16   C     C_R   0.720028 0.214551 0.821717 -0.126652
C17   C     C_R   0.609922 0.643171 0.031815 0.111347
C18   C     C_3   0.573364 0.622332 0.932509 -0.500956
C19   C     C_3   0.472738 0.622540 0.933847 -0.506589
C20   C     C_R   0.966685 0.371185 0.320359 0.133642
C21   C     C_R   0.033359 0.415761 0.637600 0.130714
C22   C     C_R   0.137742 0.420374 0.551580 -0.222168
C23   C     C_R   0.664144 0.217612 0.742617 0.056201
C24   C     C_R   0.131182 0.439543 0.635078 -0.173321
C25   C     C_R   0.941526 0.357541 0.554386 -0.276607
C26   C     C_R   0.947862 0.344485 0.471635 0.189998
C27   C     C_R   0.046925 0.381027 0.471215 0.186161
C28   C     C_R   0.300219 0.592723 0.001722 -0.158610
C29   C     C_R   0.055003 0.390135 0.394400 -0.300351
C30   C     C_R   0.867035 0.322822 0.317366 -0.163579
C31   C     C_R   0.857646 0.308004 0.392043 -0.226982
C32   C     C_R   0.554726 0.144604 0.675235 0.123361
C33   C     C_R   0.274346 0.902255 0.358518 0.082222
C34   C     C_R   0.359579 0.557897 0.051032 0.095572
C35   C     C_R   0.378476 0.094444 0.443132 0.284164
C36   C     C_R   0.308364 0.002590 0.360130 -0.226921
C37   C     C_R   0.294472 0.895807 0.441787 -0.279158
C38   C     C_R   0.369479 0.984221 0.524035 0.140154
C39   C     C_R   0.416475 0.083344 0.524448 0.128684
C40   C     C_R   0.726589 0.311048 0.746012 -0.141487
C41   C     C_R   0.506855 0.164506 0.602656 -0.267504
C42   C     C_R   0.501053 0.049882 0.677516 -0.174187
C43   C     C_R   0.407473 0.970950 0.602997 -0.193184
C44   C     C_R   0.074862 0.116684 0.147508 0.142987
C45   C     C_R   0.212387 0.703560 0.264087 -0.146094
C46   C     C_R   0.998693 0.099373 0.065443 0.053131
C47   C     C_R   0.912917 0.996820 0.011986 -0.204589
C48   C     C_R   0.894764 0.923814 0.048692 -0.185382
C49   C     C_R   0.965215 0.949050 0.136646 0.040032
C50   C     C_R   0.058796 0.042102 0.181578 0.145208
C51   C     C_3   0.108282 0.125036 0.279043 -0.472803
C52   C     C_R   0.295876 0.495751 0.077654 -0.124774
C53   C     C_3   0.124268 0.206493 0.242292 -0.527524
C54   C     C_R   0.109460 0.535002 0.811731 -0.134280
C55   C     C_R   0.914593 0.200035 0.996747 0.343184
C56   C     C_R   0.757289 0.571152 0.980843 -0.146109
C57   C     C_R   0.001507 0.186840 0.039551 0.009622
C58   C     C_3   0.178290 0.491251 0.296603 -1.135555
C59   C     C_3   0.699461 0.567617 0.224074 -1.030981
C60   C     C_3   0.418653 0.200149 0.441169 -1.065995
C61   C     C_3   0.807290 0.143709 0.989360 -1.084925
C62   C     C_R   0.894146 0.394173 0.176069 -0.215156
C63   C     C_R   0.084319 0.798493 0.000585 -0.133004
C64   C     C_R   0.913302 0.714263 0.923198 -0.137847
H1    H     H_    0.167647 0.306939 0.118148 0.124356
H2    H     H_    0.560999 0.542894 0.884914 0.202000
H3    H     H_    0.462542 0.691342 0.927324 0.186276
H4    H     H_    0.403536 0.543676 0.887328 0.198584
H5    H     H_    0.132221 0.421099 0.398834 0.156783
H6    H     H_    0.796024 0.303148 0.260889 0.117195
H7    H     H_    0.214383 0.446204 0.551604 0.130012
H8    H     H_    0.780634 0.277672 0.390792 0.128542
H9    H     H_    0.203144 0.479536 0.697621 0.116581
H10   H     H_    0.864900 0.333228 0.553890 0.117961
H11   H     H_    0.545078 0.239360 0.602902 0.137145
H12   H     H_    0.756172 0.631341 0.958940 0.107874
H13   H     H_    0.688179 0.161296 0.847658 0.105963
H14   H     H_    0.533798 0.033183 0.733695 0.113804
H15   H     H_    0.370667 0.895737 0.603625 0.124304
H16   H     H_    0.287016 0.009220 0.296417 0.125287
H17   H     H_    0.855685 0.975629 0.944735 0.145293
H18   H     H_    0.823836 0.849473 0.010425 0.123626
H19   H     H_    0.052223 0.122443 0.310763 0.204293
H20   H     H_    0.182721 0.127722 0.320685 0.202151
H21   H     H_    0.074803 0.248154 0.250750 0.215182
H22   H     H_    0.328578 0.657116 0.984862 0.102975
H23   H     H_    0.813448 0.337232 0.148420 0.113638
H24   H     H_    0.208224 0.257776 0.264373 0.190655
H25   H     H_    0.320388 0.467599 0.127530 0.090458
H26   H     H_    0.192165 0.563141 0.829857 0.094397
H27   H     H_    0.211699 0.679531 0.317140 0.126576
H28   H     H_    0.215256 0.549969 0.370516 0.252197
H29   H     H_    0.180712 0.415484 0.288405 0.254818
H30   H     H_    0.226489 0.521770 0.263471 0.263037
H31   H     H_    0.506037 0.552386 0.190745 0.144484
H32   H     H_    0.662840 0.483541 0.211242 0.245901
H33   H     H_    0.780090 0.590304 0.229094 0.257689
H34   H     H_    0.165197 0.851090 0.022276 0.091100
H35   H     H_    0.706729 0.619725 0.291917 0.257570
H36   H     H_    0.376475 0.193800 0.372433 0.253206
H37   H     H_    0.407422 0.258746 0.492878 0.257354
H38   H     H_    0.503089 0.229764 0.456711 0.252614
H39   H     H_    0.262982 0.820006 0.442510 0.126105
H40   H     H_    0.703646 0.348497 0.704104 0.086365
H41   H     H_    0.758670 0.071547 0.921818 0.243294
H42   H     H_    0.812037 0.121057 0.046195 0.266473
H43   H     H_    0.768987 0.197251 0.996325 0.248851
H44   H     H_    0.835013 0.688813 0.873324 0.089622
H45   H     H_    0.232501 0.862253 0.167137 0.092507
H46   H     H_    0.726497 0.432295 0.095521 0.119766
H47   H     H_    0.620214 0.690419 0.924179 0.184481
H48   H     H_    0.855403 0.401437 0.682583 0.095289
N1    N     N_R   0.055640 0.348550 0.045600 -0.050556
N2    N     N_R   0.811290 0.303400 0.871650 -0.037570
N3    N     N_R   0.205180 0.552990 0.997660 -0.039734
N4    N     N_R   0.814810 0.361830 0.823710 -0.039008
N5    N     N_R   0.201660 0.494570 0.045600 -0.037962
N6    N     N_R   0.068420 0.560530 0.871650 -0.039303
N7    N     N_R   0.948050 0.295860 0.997660 -0.055350
N8    N     N_R   0.185190 0.638170 0.176290 -0.041229
N9    N     N_R   0.798340 0.505430 0.954400 -0.040368
N10   N     N_R   0.931580 0.439470 0.128350 -0.051313
N11   N     N_R   0.051950 0.704140 0.002340 -0.038791
N12   N     N_R   0.944360 0.651450 0.954400 -0.038694
N13   N     N_R   0.039170 0.492150 0.176290 -0.052927
N14   N     N_R   0.188710 0.696600 0.128350 -0.039802
N15   N     N_R   0.794820 0.447010 0.002340 -0.041684
N16   N     N_R   0.960830 0.507850 0.823710 -0.040494
Ni1   Ni    Ni4+2 0.119330 0.493420 0.109950 0.206772
Ni2   Ni    Ni4+2 0.880670 0.506580 0.890050 0.208339
Ni3   Ni    Ni4+2 0.872590 0.372590 0.000000 0.205589
Ni4   Ni    Ni4+2 0.127410 0.627410 0.000000 0.209875

loop_
_geom_bond_atom_site_label_1
_geom_bond_atom_site_label_2
_ccdc_geom_bond_type
C56   H12   S    
C6    C45   A    
N11   Ni4   S    
C27   C29   A    
C9    C64   A    
C59   H35   S    
N2    Ni3   S    
C22   H7    S    
C35   C36   A    
N9    Ni2   S    
C3    C6    A    
C3    N14   A    
N11   N12   A    
C39   C41   A    
C55   N7    A    
C14   C59   S    
C26   C27   A    
C8    C20   S    
N1    Ni1   S    
C13   H31   S    
C58   H29   S    
C54   H26   S    
C63   H34   S    
C30   C31   A    
N8    N14   A    
C24   H9    S    
C40   H40   S    
C5    H46   S    
C10   C17   A    
C43   H15   S    
C23   C40   A    
C33   C36   A    
C25   H10   S    
N1    N7    A    
C44   C53   S    
N6    N16   A    
N3    N5    A    
C45   H27   S    
C1    H1    S    
C32   C41   A    
C19   H3    S    
C4    C12   A    
N5    Ni1   S    
N3    Ni4   S    
C52   N5    A    
C7    C15   S    
C4    H48   S    
C28   C34   A    
C26   C31   A    
C13   C14   A    
C52   H25   S    
C1    N1    A    
C7    C56   A    
C60   H38   S    
C30   H6    S    
C44   C46   A    
C50   C51   S    
C29   H5    S    
C20   C29   A    
C4    N16   A    
C63   N11   A    
N8    Ni1   S    
C18   H47   S    
C36   H16   S    
C5    C7    A    
C18   C19   S    
C20   C30   A    
C25   C26   A    
C64   N12   A    
C12   C21   S    
C33   C37   A    
C16   N2    A    
C35   C60   S    
C51   C53   S    
C35   C39   A    
C37   C38   A    
C28   N3    A    
C1    C57   A    
C41   H11   S    
N7    Ni3   S    
C47   C48   A    
N14   Ni4   S    
C10   C19   S    
C5    N15   A    
C17   C18   S    
N12   Ni2   S    
C19   H4    S    
C61   H42   S    
C45   N8    A    
C48   C49   A    
C42   H14   S    
C16   C23   A    
C22   C27   A    
C55   C57   A    
C46   C57   S    
C28   H22   S    
C59   H33   S    
C22   C24   A    
C42   C43   A    
C60   H37   S    
C51   H19   S    
N10   Ni3   S    
C62   N10   A    
C61   H41   S    
C37   H39   S    
C44   C50   A    
C15   C17   A    
C21   C25   A    
C46   C47   A    
C31   H8    S    
C9    C63   A    
C11   C34   S    
C2    C8    A    
C60   H36   S    
N16   Ni2   S    
C40   N4    A    
N2    N4    A    
C2    C58   S    
N9    N15   A    
C18   H2    S    
C62   H23   S    
C34   C52   A    
C6    C33   S    
C23   C32   S    
N10   N13   A    
C54   N6    A    
C58   H30   S    
C38   C43   A    
C56   N9    A    
C11   C13   A    
C38   C39   A    
C3    H45   S    
C55   C61   S    
C48   H18   S    
C53   H24   S    
C47   H17   S    
C61   H43   S    
N15   Ni3   S    
N6    Ni4   S    
C10   C11   A    
C2    N13   A    
N13   Ni1   S    
N4    Ni2   S    
C49   C50   A    
C59   H32   S    
C21   C24   A    
C32   C42   A    
C14   C15   A    
C16   H13   S    
C53   H21   S    
C58   H28   S    
C51   H20   S    
C12   C54   A    
C64   H44   S    
C8    C62   A    
