data_mof_unit_39320.cif
_audit_creation_date              2012-12-11T14:46:03-0500
_audit_creation_method            fapswitch 2.2
_symmetry_space_group_name_H-M    P1
_symmetry_Int_Tables_number       1
_space_group_crystal_system       triclinic
_cell_length_a                    10.951955
_cell_length_b                    11.111059
_cell_length_c                    18.693948
_cell_angle_alpha                 90.371496
_cell_angle_beta                  89.828574
_cell_angle_gamma                 119.658031
_cell_volume                      1976.7687727

loop_
_atom_site_label
_atom_site_type_symbol
_atom_type_description
_atom_site_fract_x
_atom_site_fract_y
_atom_site_fract_z
_atom_type_partial_charge
C1    C     C_R   0.860300 0.642464 0.599687 0.648619
C2    C     C_R   0.505234 0.724931 0.760555 -0.169588
C3    C     C_R   0.452710 0.691824 0.691266 0.182725
C4    C     C_R   0.312114 0.652186 0.678954 0.012582
C5    C     C_R   0.783923 0.095358 0.812179 0.024330
C6    C     C_R   0.040956 0.240771 0.827889 -0.048227
C7    C     C_R   0.176256 0.294680 0.801176 -0.116167
C8    C     C_R   0.196733 0.265134 0.731481 -0.041589
C9    C     C_R   0.081896 0.194538 0.685813 0.226676
C10   C     C_R   0.943938 0.158290 0.709987 -0.004444
C11   C     C_R   0.922124 0.162384 0.783861 0.008238
C12   C     C_R   0.259107 0.623769 0.606499 0.659193
C13   C     C_R   0.691155 0.061362 0.689557 -0.010166
C14   C     C_R   0.662523 0.058095 0.765288 -0.007353
C15   C     C_R   0.579425 0.004995 0.638777 0.261943
C16   C     C_R   0.445102 0.966209 0.659304 -0.132398
C17   C     C_R   0.412373 0.965347 0.729890 -0.145570
C18   C     C_R   0.514128 0.016177 0.784482 0.259938
C19   C     C_R   0.831049 0.129787 0.663730 0.050635
C20   C     C_R   0.715572 0.560361 0.706757 -0.032108
C21   C     C_R   0.712871 0.572603 0.780643 0.233623
C22   C     C_R   0.787485 0.703593 0.813429 0.010388
C23   C     C_R   0.859939 0.220111 0.600252 0.672418
C24   C     C_R   0.867563 0.820101 0.770439 -0.156189
C25   C     C_R   0.877306 0.804518 0.697014 -0.057311
C26   C     C_R   0.808893 0.671829 0.666074 0.093388
C27   C     C_R   0.239671 0.538455 0.274157 -0.124818
C28   C     C_R   0.256267 0.556127 0.201268 -0.134839
C29   C     C_R   0.333998 0.689540 0.173459 0.011823
C30   C     C_R   0.382856 0.805844 0.218722 -0.126566
C31   C     C_R   0.363199 0.787949 0.292103 -0.097595
C32   C     C_R   0.296929 0.654019 0.319928 0.058504
C33   C     C_R   0.773568 0.237646 0.278469 -0.160260
C34   C     C_R   0.866940 0.637914 0.397507 0.596432
C35   C     C_R   0.770340 0.227946 0.205248 0.220370
C36   C     C_R   0.848469 0.172350 0.171748 -0.046935
C37   C     C_R   0.936058 0.140345 0.212849 -0.163377
C38   C     C_R   0.937444 0.150552 0.286852 0.200480
C39   C     C_R   0.853219 0.197067 0.319858 -0.011076
C40   C     C_R   0.936391 0.643793 0.274404 -0.135715
C41   C     C_R   0.920404 0.655418 0.201959 -0.081408
C42   C     C_R   0.806735 0.667695 0.178461 0.045186
C43   C     C_R   0.710329 0.671150 0.227172 -0.077380
C44   C     C_R   0.726719 0.660257 0.300071 0.251041
C45   C     C_R   0.265115 0.629700 0.395063 0.591256
C46   C     C_R   0.840738 0.647499 0.323269 0.082313
C47   C     C_R   0.767714 0.046506 0.887113 0.469692
C48   C     C_R   0.461501 0.723973 0.890203 0.494494
C49   C     C_R   0.775981 0.726837 0.889754 0.517692
C50   C     C_R   0.809460 0.110392 0.101109 0.574023
C51   C     C_R   0.394391 0.705045 0.102910 0.541351
C52   C     C_R   0.796704 0.696716 0.104827 0.583337
C53   C     C_R   0.863181 0.231482 0.395091 0.605053
C54   C     C_R   0.220385 0.620420 0.737789 0.164194
C55   C     C_R   0.273355 0.650311 0.806182 -0.071966
C56   C     C_R   0.415064 0.705500 0.817497 -0.045732
Cr1   Cr    Cr6+3 0.791660 0.390250 0.499930 1.134279
Cr2   Cr    Cr6+3 0.098520 0.708290 0.500540 1.135441
Cr3   Cr    Cr6+3 0.109770 0.401430 0.499480 1.198209
Cr4   Cr    Cr6+3 0.874790 0.925890 0.000070 1.053842
Cr5   Cr    Cr6+3 0.574120 0.948670 0.999300 1.152565
Cr6   Cr    Cr6+3 0.551420 0.625320 0.000920 1.103944
H1    H     H_    0.362911 0.933661 0.619806 0.190730
H2    H     H_    0.302432 0.929914 0.740912 0.210245
H3    H     H_    0.658596 0.460520 0.681091 0.149467
H4    H     H_    0.926467 0.921989 0.794165 0.144322
H5    H     H_    0.948468 0.892865 0.666010 0.197803
H6    H     H_    0.181268 0.434031 0.294730 0.162292
H7    H     H_    0.216445 0.465319 0.167057 0.147935
H8    H     H_    0.444598 0.909810 0.198185 0.185080
H9    H     H_    0.204679 0.631944 0.851578 0.173845
H10   H     H_    0.403059 0.877636 0.327080 0.167770
H11   H     H_    0.713557 0.279790 0.303495 0.211972
H12   H     H_    0.995327 0.096836 0.188143 0.184166
H13   H     H_    0.024288 0.633157 0.292708 0.109262
H14   H     H_    0.996379 0.655835 0.164536 0.141894
H15   H     H_    0.624635 0.685299 0.208534 0.136132
H16   H     H_    0.615166 0.770511 0.769569 0.092172
H17   H     H_    0.264734 0.356226 0.835548 0.195528
H18   H     H_    0.302227 0.297425 0.712900 0.167869
H19   H     H_    0.030488 0.267983 0.882317 0.171901
O1    O     O_R   0.766500 0.250040 0.579790 -0.465706
O2    O     O_R   0.218690 0.701900 0.425960 -0.511457
O3    O     O_R   0.249490 0.516440 0.419420 -0.460913
O4    O     O_R   0.982880 0.281910 0.424890 -0.457028
O5    O     O_3   0.999980 0.499990 0.499980 -0.316731
O6    O     O_R   0.895110 0.806860 0.920430 -0.466682
O7    O     O_R   0.872260 0.046970 0.925000 -0.529587
O8    O     O_R   0.691430 0.085060 0.918550 -0.396844
O9    O     O_R   0.451490 0.822460 0.925250 -0.446808
O10   O     O_R   0.413330 0.603360 0.920440 -0.500532
O11   O     O_R   0.676110 0.626250 0.926750 -0.422856
O12   O     O_R   0.798570 0.516780 0.574780 -0.476158
O13   O     O_R   0.895350 0.809870 0.080950 -0.507672
O14   O     O_R   0.872490 0.049760 0.073800 -0.518419
O15   O     O_R   0.691680 0.088070 0.079070 -0.414586
O16   O     O_R   0.451720 0.825250 0.074050 -0.486173
O17   O     O_R   0.413580 0.606370 0.080960 -0.517377
O18   O     O_R   0.676340 0.629040 0.075550 -0.467467
O19   O     O_3   0.666780 0.833290 0.000090 -0.358331
O20   O     O_R   0.984000 0.732950 0.581090 -0.469563
O21   O     O_R   0.218600 0.700890 0.574760 -0.482940
O22   O     O_R   0.249390 0.515350 0.579940 -0.447346
O23   O     O_R   0.982790 0.280900 0.573700 -0.439088
O24   O     O_R   0.766600 0.251130 0.419260 -0.509843
O25   O     O_R   0.798660 0.517790 0.425980 -0.498178
O26   O     O_R   0.984100 0.734040 0.420570 -0.478788
S1    S     S_3+6 0.041787 0.559383 0.731709 -0.017173
O27   O     O_2   0.029120 0.685401 0.743874 -0.329484
O28   O     O_2   0.984242 0.495960 0.660299 -0.281272
O29   O     O_3   0.952986 0.443679 0.795870 -0.480021
H20   H     H_    0.969978 0.498767 0.840198 0.369616
Cl1   Cl    Cl    0.597795 0.970733 0.547405 -0.477911
S2    S     S_3+6 0.640689 0.418690 0.828243 0.098340
O30   O     O_2   0.733111 0.428621 0.889865 -0.175233
O31   O     O_2   0.499443 0.386991 0.856147 -0.277373
O32   O     O_3   0.628090 0.296345 0.771298 -0.470823
H21   H     H_    0.543642 0.271308 0.741922 0.337333
S3    S     S_3+6 0.659707 0.279976 0.160815 0.014027
O33   O     O_2   0.732485 0.362833 0.095428 -0.247120
O34   O     O_2   0.523619 0.154756 0.139384 -0.277363
O35   O     O_3   0.619545 0.375040 0.216026 -0.552892
H22   H     H_    0.539510 0.377480 0.192914 0.378048
Cl2   Cl    Cl    0.038364 0.095877 0.335835 -0.512602
Cl3   Cl    Cl    0.608186 0.668409 0.360856 -0.520295
Cl4   Cl    Cl    0.561801 0.700454 0.620226 -0.560440
Cl5   Cl    Cl    0.115845 0.135646 0.603971 -0.565846
S4    S     S_3+6 0.428664 0.056475 0.858064 0.092270
O36   O     O_2   0.353837 0.124781 0.824757 -0.288437
O37   O     O_2   0.311641 0.925144 0.888560 -0.283189
O38   O     O_3   0.523721 0.161136 0.925585 -0.362352
H23   H     H_    0.454036 0.161579 0.959341 0.365438

loop_
_geom_bond_atom_site_label_1
_geom_bond_atom_site_label_2
_ccdc_geom_bond_type
C51   O16   A    
Cr1   O24   S    
C55   C56   A    
C23   O1    A    
C41   C42   A    
C14   C18   A    
C35   S3    S    
C35   C36   A    
C25   H5    S    
C37   H12   S    
S4    O36   D    
S2    O30   D    
Cr4   O7    S    
C3    Cl4   S    
C7    C8    A    
C39   C53   S    
S1    O27   D    
C40   C46   A    
C5    C47   S    
C28   C29   A    
C29   C30   A    
Cr3   O23   S    
C36   C37   A    
C5    C11   A    
C17   H2    S    
C38   C39   A    
C50   O14   A    
Cr1   O12   S    
C15   C16   A    
Cr1   O5    S    
Cr2   O26   S    
C32   C45   S    
C49   O6    A    
C27   H6    S    
C18   S4    S    
Cr6   O17   S    
C33   C39   A    
C28   H7    S    
Cr5   O8    S    
C8    C9    A    
C48   O10   A    
Cr6   O11   S    
C15   Cl1   S    
C52   O13   A    
C34   C46   S    
C16   H1    S    
C4    C12   S    
C9    C10   A    
C24   H4    S    
C51   O17   A    
Cr1   O25   S    
C6    H19   S    
C48   O9    A    
C13   C14   A    
C47   O8    A    
C45   O2    A    
Cr2   O5    S    
C30   H8    S    
Cr4   O6    S    
C44   C46   A    
S3    O34   D    
C44   Cl3   S    
Cr5   O15   S    
C13   C19   A    
C34   O25   A    
C20   H3    S    
C24   C25   A    
C12   O22   A    
C6    C11   A    
C16   C17   A    
C25   C26   A    
C19   C23   S    
C43   C44   A    
Cr3   O4    S    
C12   O21   A    
C37   C38   A    
C2    H16   S    
C23   O23   A    
C10   C19   A    
Cr6   O10   S    
C17   C18   A    
Cr2   O20   S    
C9    Cl5   S    
Cr3   O3    S    
C5    C14   A    
C22   C49   S    
Cr6   O19   S    
C33   H11   S    
C40   C41   A    
C13   C15   A    
C1    C26   S    
C22   C24   A    
Cr5   O19   S    
C42   C43   A    
C34   O26   A    
C49   O11   A    
O38   H23   S    
S4    O38   S    
C1    O20   A    
C36   C50   S    
Cr5   O9    S    
C7    H17   S    
C29   C51   S    
S3    O35   S    
C48   C56   S    
C54   C55   A    
C31   H10   S    
O29   H20   S    
C4    C54   A    
C27   C32   A    
C31   C32   A    
Cr5   O16   S    
C21   S2    S    
Cr4   O19   S    
S4    O37   D    
S2    O31   D    
S3    O33   D    
C40   H13   S    
C6    C7    A    
C43   H15   S    
C52   O18   A    
O32   H21   S    
S1    O29   S    
C54   S1    S    
Cr3   O22   S    
C47   O7    A    
C2    C3    A    
Cr3   O5    S    
C2    C56   A    
Cr2   O2    S    
C41   H14   S    
C50   O15   A    
C30   C31   A    
C20   C26   A    
Cr2   O21   S    
C33   C35   A    
S1    O28   D    
C55   H9    S    
S2    O32   S    
C10   C11   A    
Cr6   O18   S    
C45   O3    A    
Cr4   O14   S    
C53   O24   A    
C20   C21   A    
C1    O12   A    
C27   C28   A    
C8    H18   S    
Cr1   O1    S    
C53   O4    A    
O35   H22   S    
C21   C22   A    
C38   Cl2   S    
C3    C4    A    
C42   C52   S    
Cr4   O13   S    
