data_mof_unit_53838.cif
_audit_creation_date              2012-12-10T17:07:41-0500
_audit_creation_method            fapswitch 2.2
_symmetry_space_group_name_H-M    P1
_symmetry_Int_Tables_number       1
_space_group_crystal_system       triclinic
_cell_length_a                    19.31516
_cell_length_b                    10.897555
_cell_length_c                    9.77391
_cell_angle_alpha                 110.504154
_cell_angle_beta                  97.74729
_cell_angle_gamma                 90.765165
_cell_volume                      1905.29535947

loop_
_atom_site_label
_atom_site_type_symbol
_atom_type_description
_atom_site_fract_x
_atom_site_fract_y
_atom_site_fract_z
_atom_type_partial_charge
C1    C     C_R   0.497295 0.253183 0.441638 0.782206
C2    C     C_R   0.507122 0.746843 0.558202 0.782968
C3    C     C_2   0.501669 0.111674 0.412519 0.156867
C4    C     C_2   0.515799 0.888545 0.586962 0.157238
C5    C     C_2   0.543095 0.071149 0.509134 0.334645
C6    C     C_2   0.541426 0.929909 0.487498 0.345182
C7    C     C_2   0.506467 0.509975 0.080628 -0.061224
C8    C     C_2   0.494559 0.488028 0.918868 -0.041037
C9    C     C_R   0.367714 0.503549 0.502963 0.803117
C10   C     C_R   0.632503 0.496807 0.496904 0.823618
C11   C     C_R   0.264278 0.599542 0.627051 0.051860
C12   C     C_R   0.738126 0.413501 0.368434 0.055581
C13   C     C_R   0.191862 0.592376 0.631260 0.385343
C14   C     C_R   0.811488 0.420266 0.373182 0.386517
C15   C     C_R   0.147101 0.496928 0.514074 -0.097443
C16   C     C_R   0.854762 0.506016 0.501150 -0.091267
C17   C     C_R   0.174943 0.405757 0.394682 0.070665
C18   C     C_R   0.825279 0.587625 0.623522 0.068734
C19   C     C_R   0.247571 0.412405 0.395083 -0.218767
C20   C     C_R   0.752323 0.580533 0.616386 -0.211863
C21   C     C_R   0.292097 0.506914 0.509029 -0.161969
C22   C     C_R   0.708619 0.495445 0.492042 -0.156823
C23   C     C_R   0.931109 0.505295 0.509156 0.370866
C24   C     C_R   0.070954 0.499159 0.511743 0.372241
Cu1   Cu    Cu3+1 0.512140 0.521810 0.644910 0.961287
Cu2   Cu    Cu3+1 0.487860 0.478190 0.355090 0.954955
H1    H     H_    0.270878 0.343109 0.307330 0.153097
H2    H     H_    0.728185 0.642451 0.707657 0.157491
H3    H     H_    0.454609 0.414442 0.846576 0.163904
H4    H     H_    0.547184 0.582024 0.152496 0.197225
H5    H     H_    0.567787 0.624312 0.933766 0.195131
H6    H     H_    0.431293 0.377478 0.066691 0.194224
N1    N     N_R   0.037783 0.607404 0.509039 -0.210288
N2    N     N_R   0.964234 0.397130 0.512127 -0.211159
N3    N     N_R   0.968871 0.610302 0.507352 -0.243347
N4    N     N_R   0.033164 0.394312 0.513998 -0.245719
N5    N     N_2   0.469620 0.445420 0.137370 -0.288795
N6    N     N_2   0.530380 0.554580 0.862630 -0.279150
O1    O     O_R   0.506480 0.332340 0.577400 -0.515766
O2    O     O_R   0.493520 0.667660 0.422600 -0.519238
O3    O     O_R   0.485980 0.295500 0.332650 -0.593426
O4    O     O_R   0.514020 0.704500 0.667350 -0.599759
O5    O     O_R   0.410390 0.518410 0.622410 -0.582742
O6    O     O_R   0.589610 0.481590 0.377590 -0.577535
O7    O     O_R   0.389900 0.481570 0.377660 -0.571478
O8    O     O_R   0.610100 0.518430 0.622340 -0.560593
C25   C     C_3   0.310245 0.709068 0.748173 -0.327582
C26   C     C_3   0.328852 0.673722 0.887003 -0.343390
C27   C     C_3   0.381639 0.775740 0.002150 -0.751128
H7    H     H_    0.430994 0.781029 0.957178 0.259514
H8    H     H_    0.359584 0.873704 0.035168 0.251061
H9    H     H_    0.393820 0.748044 0.101430 0.269566
H10   H     H_    0.280800 0.668128 0.936127 0.245337
H11   H     H_    0.351352 0.576223 0.858066 0.224388
H12   H     H_    0.358515 0.732094 0.709355 0.179002
H13   H     H_    0.282632 0.801604 0.776602 0.221880
C28   C     C_3   0.693071 0.317351 0.231114 -0.337784
C29   C     C_3   0.663078 0.199647 0.261032 -0.359110
C30   C     C_3   0.613345 0.110305 0.126812 -0.785015
H14   H     H_    0.568380 0.164791 0.100390 0.278670
H15   H     H_    0.641217 0.072591 0.029464 0.252173
H16   H     H_    0.592897 0.025507 0.150727 0.241646
H17   H     H_    0.706739 0.142303 0.287340 0.230574
H18   H     H_    0.634350 0.233064 0.357093 0.216339
H19   H     H_    0.651200 0.368124 0.187506 0.210400
H20   H     H_    0.723401 0.278131 0.138044 0.242790
O9    O     O_3   0.166757 0.681150 0.751323 -0.746954
H21   H     H_    0.120717 0.647502 0.761834 0.332076
O10   O     O_3   0.839229 0.340195 0.251476 -0.747770
H22   H     H_    0.887052 0.373970 0.251908 0.334088
C31   C     C_3   0.125976 0.304632 0.268328 -0.361207
C32   C     C_3   0.160123 0.217725 0.137345 -0.390022
C33   C     C_3   0.105473 0.124723 0.016593 -0.785691
H23   H     H_    0.077998 0.059618 0.060542 0.256111
H24   H     H_    0.066533 0.181371 0.973428 0.254762
H25   H     H_    0.131609 0.062688 0.924087 0.256049
H26   H     H_    0.187054 0.280307 0.089343 0.226494
H27   H     H_    0.198846 0.157544 0.175318 0.224621
H28   H     H_    0.099961 0.239021 0.313789 0.221097
H29   H     H_    0.084958 0.357832 0.224967 0.206876
C34   C     C_3   0.873080 0.678941 0.760162 -0.365799
C35   C     C_3   0.836848 0.758767 0.891263 -0.385036
C36   C     C_3   0.890250 0.843720 0.021202 -0.787789
H30   H     H_    0.927034 0.781210 0.060023 0.255315
H31   H     H_    0.920379 0.913761 0.988356 0.256689
H32   H     H_    0.862652 0.900574 0.113803 0.252002
H33   H     H_    0.800251 0.824407 0.857511 0.224183
H34   H     H_    0.807152 0.691195 0.928484 0.228761
H35   H     H_    0.911339 0.618613 0.799268 0.206982
H36   H     H_    0.902691 0.749332 0.726861 0.219202
O11   O     O_3   0.564447 0.841255 0.364594 -0.750408
H37   H     H_    0.583967 0.891086 0.309394 0.322848
O12   O     O_3   0.585498 0.160522 0.629342 -0.724946
H38   H     H_    0.613496 0.111193 0.682877 0.332212
O13   O     O_3   0.496992 0.979767 0.713417 -0.755775
H39   H     H_    0.476461 0.932251 0.769812 0.325399
O14   O     O_3   0.463118 0.019658 0.288473 -0.764380
H40   H     H_    0.434012 0.066510 0.233652 0.325103

loop_
_geom_bond_atom_site_label_1
_geom_bond_atom_site_label_2
_ccdc_geom_bond_type
C9    O7    A    
O12   H38   S    
C33   H23   S    
C11   C25   S    
O13   H39   S    
C28   H20   S    
Cu2   O2    S    
Cu1   O5    S    
C31   H28   S    
O14   H40   S    
Cu2   O6    S    
C7    C8    S    
C10   C22   S    
C26   H11   S    
C24   N4    A    
C8    H3    S    
C19   C21   A    
C5    C6    S    
C6    O11   S    
C12   C22   A    
C18   C34   S    
C32   H27   S    
Cu2   O7    S    
N1    N3    A    
C25   C26   S    
C27   H8    S    
C10   O8    A    
C19   H1    S    
N2    N4    A    
C34   H35   S    
C27   H9    S    
C30   H14   S    
C7    H4    S    
C33   H24   S    
C8    N6    D    
C31   H29   S    
C34   C35   S    
C29   H18   S    
C26   H10   S    
C30   H15   S    
C9    O5    A    
C10   O6    A    
O9    H21   S    
C4    C6    D    
C28   H19   S    
O11   H37   S    
C20   H2    S    
Cu1   Cu2   S    
C11   C21   A    
C1    C3    S    
C2    C4    S    
C32   H26   S    
Cu1   N6    S    
C4    O13   S    
C3    O14   S    
C36   H30   S    
C23   N2    A    
C7    N5    D    
H6    N5    S    
C34   H36   S    
C1    O3    A    
C26   C27   S    
C36   H31   S    
C20   C22   A    
C17   C31   S    
C16   C23   S    
C23   N3    A    
C13   C15   A    
C14   O10   S    
C14   C16   A    
C12   C28   S    
C25   H12   S    
C13   O9    S    
C29   H17   S    
C15   C17   A    
C15   C24   S    
C30   H16   S    
C12   C14   A    
C32   C33   S    
C3    C5    D    
Cu1   O4    S    
C5    O12   S    
Cu2   N5    S    
C24   N1    A    
H5    N6    S    
C29   C30   S    
C31   C32   S    
Cu1   O1    S    
C11   C13   A    
C9    C21   S    
C28   C29   S    
C2    O4    A    
C35   H34   S    
C17   C19   A    
C18   C20   A    
O10   H22   S    
C1    O1    A    
C2    O2    A    
C36   H32   S    
C33   H25   S    
C16   C18   A    
C27   H7    S    
C35   C36   S    
Cu1   O8    S    
C35   H33   S    
Cu2   O3    S    
C25   H13   S    
