data_mof_unit_21731.cif
_audit_creation_date              2012-12-11T16:26:09-0500
_audit_creation_method            fapswitch 2.2
_symmetry_space_group_name_H-M    P1
_symmetry_Int_Tables_number       1
_space_group_crystal_system       monoclinic
_cell_length_a                    13.985108
_cell_length_b                    13.985108
_cell_length_c                    32.098501
_cell_angle_alpha                 90.0
_cell_angle_beta                  90.0
_cell_angle_gamma                 120.00024
_cell_volume                      5436.83285729

loop_
_atom_site_label
_atom_site_type_symbol
_atom_type_description
_atom_site_fract_x
_atom_site_fract_y
_atom_site_fract_z
_atom_type_partial_charge
C1    C     C_R   0.568207 0.443469 0.810694 0.548334
C2    C     C_R   0.875262 0.431793 0.689306 0.548333
C3    C     C_R   0.556531 0.124738 0.810694 0.548334
C4    C     C_R   0.568207 0.443469 0.689306 0.548334
C5    C     C_R   0.875262 0.431793 0.810694 0.548333
C6    C     C_R   0.556531 0.124738 0.689306 0.548334
C7    C     C_R   0.443469 0.568207 0.310694 0.548334
C8    C     C_R   0.431793 0.875262 0.189306 0.548334
C9    C     C_R   0.124738 0.556531 0.310694 0.548333
C10   C     C_R   0.443469 0.568207 0.189306 0.548335
C11   C     C_R   0.431793 0.875262 0.310694 0.548333
C12   C     C_R   0.124738 0.556531 0.189306 0.548334
C13   C     C_1   0.005416 0.521786 0.018585 0.171831
C14   C     C_1   0.516371 0.994585 0.481415 0.171831
C15   C     C_1   0.478213 0.483629 0.018585 0.171831
C16   C     C_1   0.005414 0.521786 0.481415 0.171831
C17   C     C_1   0.516370 0.994583 0.018585 0.171831
C18   C     C_1   0.478213 0.483629 0.481415 0.171831
C19   C     C_1   0.521787 0.005417 0.518585 0.171831
C20   C     C_1   0.994584 0.516370 0.981415 0.171830
C21   C     C_1   0.483629 0.478213 0.518585 0.171831
C22   C     C_1   0.521786 0.005416 0.981415 0.171830
C23   C     C_1   0.994582 0.516369 0.518585 0.171831
C24   C     C_1   0.483629 0.478213 0.981415 0.171831
C25   C     C_R   0.925886 0.468679 0.852103 -0.015263
C26   C     C_R   0.542793 0.074114 0.647897 -0.015263
C27   C     C_R   0.531321 0.457207 0.852103 -0.015263
C28   C     C_R   0.925885 0.468679 0.647897 -0.015263
C29   C     C_R   0.542793 0.074114 0.852103 -0.015263
C30   C     C_R   0.531321 0.457207 0.647897 -0.015263
C31   C     C_R   0.468679 0.925886 0.352103 -0.015263
C32   C     C_R   0.074114 0.542793 0.147897 -0.015263
C33   C     C_R   0.457207 0.531321 0.352103 -0.015263
C34   C     C_R   0.468679 0.925886 0.147897 -0.015263
C35   C     C_R   0.074114 0.542793 0.352103 -0.015263
C36   C     C_R   0.457207 0.531321 0.147897 -0.015263
C37   C     C_R   0.908417 0.545058 0.874148 -0.156900
C38   C     C_R   0.636640 0.091583 0.625852 -0.156901
C39   C     C_R   0.454943 0.363358 0.874148 -0.156901
C40   C     C_R   0.908416 0.545057 0.625852 -0.156901
C41   C     C_R   0.636640 0.091583 0.874148 -0.156900
C42   C     C_R   0.454942 0.363359 0.625852 -0.156901
C43   C     C_R   0.545057 0.908416 0.374148 -0.156901
C44   C     C_R   0.091583 0.636641 0.125852 -0.156901
C45   C     C_R   0.363358 0.454943 0.374148 -0.156901
C46   C     C_R   0.545057 0.908416 0.125852 -0.156901
C47   C     C_R   0.091585 0.636641 0.374148 -0.156901
C48   C     C_R   0.363359 0.454942 0.125852 -0.156901
C49   C     C_R   0.932408 0.563736 0.916567 -0.007206
C50   C     C_R   0.631328 0.067591 0.583433 -0.007206
C51   C     C_R   0.436264 0.368671 0.916567 -0.007207
C52   C     C_R   0.932407 0.563735 0.583433 -0.007206
C53   C     C_R   0.631328 0.067592 0.916567 -0.007207
C54   C     C_R   0.436263 0.368671 0.583433 -0.007207
C55   C     C_R   0.563736 0.932408 0.416567 -0.007207
C56   C     C_R   0.067591 0.631328 0.083433 -0.007206
C57   C     C_R   0.368671 0.436264 0.416567 -0.007207
C58   C     C_R   0.563736 0.932407 0.083433 -0.007207
C59   C     C_R   0.067592 0.631328 0.416567 -0.007207
C60   C     C_R   0.368671 0.436264 0.083433 -0.007207
C61   C     C_R   0.980238 0.507816 0.937004 0.024730
C62   C     C_R   0.527578 0.019763 0.562996 0.024729
C63   C     C_R   0.492184 0.472421 0.937004 0.024730
C64   C     C_R   0.980236 0.507815 0.562996 0.024729
C65   C     C_R   0.527578 0.019762 0.937004 0.024729
C66   C     C_R   0.492184 0.472421 0.562996 0.024730
C67   C     C_R   0.507817 0.980238 0.437004 0.024730
C68   C     C_R   0.019762 0.527578 0.062996 0.024730
C69   C     C_R   0.472421 0.492184 0.437004 0.024730
C70   C     C_R   0.507816 0.980237 0.062996 0.024730
C71   C     C_R   0.019761 0.527578 0.437004 0.024730
C72   C     C_R   0.472422 0.492184 0.062996 0.024730
C73   C     C_R   0.006676 0.437025 0.914146 0.025995
C74   C     C_R   0.430349 0.993325 0.585854 0.025995
C75   C     C_R   0.562975 0.569651 0.914146 0.025995
C76   C     C_R   0.006675 0.437024 0.585854 0.025995
C77   C     C_R   0.430348 0.993324 0.914146 0.025994
C78   C     C_R   0.562976 0.569651 0.585854 0.025995
C79   C     C_R   0.437026 0.006677 0.414146 0.025994
C80   C     C_R   0.993324 0.430348 0.085854 0.025995
C81   C     C_R   0.569651 0.562975 0.414146 0.025994
C82   C     C_R   0.437025 0.006676 0.085854 0.025995
C83   C     C_R   0.993322 0.430348 0.414146 0.025995
C84   C     C_R   0.569651 0.562976 0.085854 0.025994
C85   C     C_R   0.977122 0.417110 0.871959 -0.138801
C86   C     C_R   0.439987 0.022878 0.628041 -0.138801
C87   C     C_R   0.582890 0.560013 0.871959 -0.138801
C88   C     C_R   0.977122 0.417109 0.628041 -0.138801
C89   C     C_R   0.439986 0.022877 0.871959 -0.138802
C90   C     C_R   0.582891 0.560013 0.628041 -0.138801
C91   C     C_R   0.417110 0.977123 0.371959 -0.138802
C92   C     C_R   0.022878 0.439987 0.128041 -0.138801
C93   C     C_R   0.560013 0.582890 0.371959 -0.138801
C94   C     C_R   0.417110 0.977122 0.128041 -0.138801
C95   C     C_R   0.022876 0.439986 0.371959 -0.138801
C96   C     C_R   0.560013 0.582891 0.128041 -0.138801
Cr1   Cr    Cr6+3 0.504240 0.249200 0.750000 1.033249
Cr2   Cr    Cr6+3 0.744960 0.495760 0.750000 1.033249
Cr3   Cr    Cr6+3 0.750800 0.255040 0.750000 1.033249
Cr4   Cr    Cr6+3 0.249200 0.504240 0.250000 1.033249
Cr5   Cr    Cr6+3 0.495760 0.744960 0.250000 1.033249
Cr6   Cr    Cr6+3 0.255040 0.750800 0.250000 1.033249
H1    H     H_    0.868425 0.584994 0.858926 0.134275
H2    H     H_    0.716569 0.131574 0.641074 0.134275
H3    H     H_    0.415007 0.283429 0.858926 0.134275
H4    H     H_    0.868424 0.584993 0.641074 0.134275
H5    H     H_    0.716570 0.131576 0.858926 0.134275
H6    H     H_    0.415005 0.283430 0.641074 0.134275
H7    H     H_    0.584993 0.868423 0.358926 0.134275
H8    H     H_    0.131575 0.716570 0.141074 0.134275
H9    H     H_    0.283429 0.415006 0.358926 0.134275
H10   H     H_    0.584993 0.868423 0.141074 0.134275
H11   H     H_    0.131578 0.716570 0.358926 0.134275
H12   H     H_    0.283430 0.415005 0.141074 0.134275
H13   H     H_    0.008033 0.367402 0.145415 0.175650
H14   H     H_    0.359371 0.991969 0.354584 0.175651
H15   H     H_    0.632598 0.640631 0.145416 0.175651
H16   H     H_    0.008030 0.367401 0.354584 0.175650
H17   H     H_    0.359370 0.991968 0.145416 0.175651
H18   H     H_    0.632598 0.640630 0.354584 0.175650
H19   H     H_    0.367402 0.008034 0.645415 0.175650
H20   H     H_    0.991967 0.359370 0.854584 0.175650
H21   H     H_    0.640631 0.632598 0.645415 0.175650
H22   H     H_    0.367402 0.008032 0.854584 0.175651
H23   H     H_    0.991967 0.359370 0.645415 0.175650
H24   H     H_    0.640630 0.632598 0.854584 0.175650
O1    O     O_R   0.480350 0.140770 0.796330 -0.514541
O2    O     O_R   0.660420 0.519650 0.703670 -0.514541
O3    O     O_R   0.859230 0.339580 0.796330 -0.514540
O4    O     O_R   0.480350 0.140770 0.703670 -0.514541
O5    O     O_R   0.660420 0.519650 0.796330 -0.514541
O6    O     O_R   0.859230 0.339580 0.703670 -0.514540
O7    O     O_R   0.140770 0.480350 0.296330 -0.514540
O8    O     O_R   0.519650 0.660420 0.203670 -0.514541
O9    O     O_R   0.339580 0.859230 0.296330 -0.514540
O10   O     O_R   0.140770 0.480350 0.203670 -0.514540
O11   O     O_R   0.519650 0.660420 0.296330 -0.514541
O12   O     O_R   0.339580 0.859230 0.203670 -0.514540
O13   O     O_R   0.514930 0.348530 0.793250 -0.496903
O14   O     O_R   0.833600 0.485070 0.706750 -0.496903
O15   O     O_R   0.651470 0.166400 0.793250 -0.496903
O16   O     O_R   0.514930 0.348530 0.706750 -0.496903
O17   O     O_R   0.833600 0.485070 0.793250 -0.496903
O18   O     O_R   0.651470 0.166400 0.706750 -0.496903
O19   O     O_R   0.348530 0.514930 0.293250 -0.496903
O20   O     O_R   0.485070 0.833600 0.206750 -0.496903
O21   O     O_R   0.166400 0.651470 0.293250 -0.496903
O22   O     O_R   0.348530 0.514930 0.206750 -0.496903
O23   O     O_R   0.485070 0.833600 0.293250 -0.496903
O24   O     O_R   0.166400 0.651470 0.206750 -0.496903
O25   O     O_3   0.666667 0.333333 0.750000 -0.241452
O26   O     O_3   0.333333 0.666667 0.250000 -0.241452
C97   C     C_2   0.099336 0.737967 0.062219 0.268214
H25   H     H_    0.126268 0.812085 0.080738 0.132807
O27   O     O_2   0.098576 0.746066 0.024410 -0.421714
C98   C     C_2   0.638629 0.900663 0.437782 0.268212
H26   H     H_    0.685814 0.873728 0.419263 0.132808
O28   O     O_2   0.647489 0.901424 0.475591 -0.421715
C99   C     C_2   0.262033 0.361369 0.062218 0.268214
H27   H     H_    0.187914 0.314181 0.080737 0.132808
O29   O     O_2   0.253933 0.352512 0.024410 -0.421713
C100  C     C_2   0.099338 0.737967 0.437782 0.268212
H28   H     H_    0.126275 0.812086 0.419263 0.132809
O30   O     O_2   0.098573 0.746065 0.475590 -0.421716
C101  C     C_2   0.638629 0.900662 0.062218 0.268214
H29   H     H_    0.685815 0.873729 0.080737 0.132808
O31   O     O_2   0.647489 0.901423 0.024409 -0.421714
C102  C     C_2   0.262032 0.361370 0.437782 0.268213
H30   H     H_    0.187913 0.314185 0.419263 0.132808
O32   O     O_2   0.253933 0.352510 0.475590 -0.421715
C103  C     C_2   0.737967 0.099335 0.562219 0.268214
H31   H     H_    0.812085 0.126265 0.580738 0.132807
O33   O     O_2   0.746067 0.098578 0.524410 -0.421713
C104  C     C_2   0.900664 0.638630 0.937782 0.268213
H32   H     H_    0.873733 0.685818 0.919263 0.132807
O34   O     O_2   0.901422 0.647488 0.975590 -0.421714
C105  C     C_2   0.361369 0.262032 0.562218 0.268214
H33   H     H_    0.314182 0.187914 0.580737 0.132809
O35   O     O_2   0.352511 0.253933 0.524409 -0.421714
C106  C     C_2   0.737966 0.099336 0.937782 0.268214
H34   H     H_    0.812085 0.126267 0.919262 0.132808
O36   O     O_2   0.746066 0.098577 0.975590 -0.421714
C107  C     C_2   0.900662 0.638629 0.562218 0.268214
H35   H     H_    0.873731 0.685817 0.580737 0.132808
O37   O     O_2   0.901419 0.647485 0.524409 -0.421711
C108  C     C_2   0.361370 0.262032 0.937782 0.268214
H36   H     H_    0.314186 0.187913 0.919263 0.132808
O38   O     O_2   0.352509 0.253934 0.975591 -0.421716
C109  C     C_2   0.938053 0.317939 0.066732 0.598158
O39   O     O_2   0.883921 0.298945 0.034773 -0.460717
O40   O     O_R   0.945707 0.232345 0.086070 -0.711029
H37   H     H_    0.904071 0.159825 0.070450 0.366699
C110  C     C_2   0.379889 0.061950 0.433267 0.598156
O41   O     O_2   0.415027 0.116082 0.465227 -0.460716
O42   O     O_R   0.286641 0.054296 0.413929 -0.711028
H38   H     H_    0.255759 0.095933 0.429549 0.366700
C111  C     C_2   0.682061 0.620114 0.066733 0.598157
O43   O     O_2   0.701055 0.584977 0.034773 -0.460716
O44   O     O_R   0.767655 0.713362 0.086070 -0.711028
H39   H     H_    0.840175 0.744246 0.070451 0.366699
C112  C     C_2   0.938049 0.317938 0.433267 0.598157
O45   O     O_2   0.883916 0.298944 0.465226 -0.460716
O46   O     O_R   0.945702 0.232344 0.413929 -0.711028
H40   H     H_    0.904064 0.159824 0.429549 0.366699
C113  C     C_2   0.379887 0.061948 0.066733 0.598157
O47   O     O_2   0.415025 0.116079 0.034773 -0.460719
O48   O     O_R   0.286640 0.054294 0.086070 -0.711028
H41   H     H_    0.255757 0.095931 0.070451 0.366699
C114  C     C_2   0.682061 0.620112 0.433267 0.598157
O49   O     O_2   0.701055 0.584974 0.465227 -0.460715
O50   O     O_R   0.767655 0.713360 0.413930 -0.711027
H42   H     H_    0.840175 0.744243 0.429549 0.366700
C115  C     C_2   0.317939 0.938055 0.566732 0.598157
O51   O     O_2   0.298945 0.883923 0.534772 -0.460720
O52   O     O_R   0.232346 0.945710 0.586070 -0.711029
H43   H     H_    0.159826 0.904074 0.570450 0.366699
C116  C     C_2   0.061947 0.379887 0.933267 0.598157
O53   O     O_2   0.116078 0.415024 0.965227 -0.460716
O54   O     O_R   0.054293 0.286639 0.913930 -0.711028
H44   H     H_    0.095929 0.255755 0.929549 0.366700
C117  C     C_2   0.620114 0.682061 0.566732 0.598157
O55   O     O_2   0.584977 0.701055 0.534773 -0.460718
O56   O     O_R   0.713362 0.767655 0.586070 -0.711029
H45   H     H_    0.744246 0.840175 0.570450 0.366699
C118  C     C_2   0.317938 0.938052 0.933267 0.598157
O57   O     O_2   0.298944 0.883921 0.965227 -0.460718
O58   O     O_R   0.232344 0.945705 0.913929 -0.711029
H46   H     H_    0.159825 0.904069 0.929549 0.366699
C119  C     C_2   0.061946 0.379886 0.566732 0.598157
O59   O     O_2   0.116076 0.415023 0.534772 -0.460719
O60   O     O_R   0.054293 0.286639 0.586070 -0.711029
H47   H     H_    0.095928 0.255755 0.570451 0.366699
C120  C     C_2   0.620113 0.682061 0.933267 0.598158
O61   O     O_2   0.584975 0.701055 0.965227 -0.460718
O62   O     O_R   0.713360 0.767656 0.913929 -0.711028
H48   H     H_    0.744243 0.840175 0.929549 0.366699

loop_
_geom_bond_atom_site_label_1
_geom_bond_atom_site_label_2
_ccdc_geom_bond_type
C82   C113  S    
C68   C80   A    
C44   H8    S    
C39   C51   A    
C103  H31   S    
C77   C118  S    
C101  H29   S    
C82   C94   A    
C46   H10   S    
Cr2   O17   S    
C18   C21   T    
C33   C45   A    
C90   H21   S    
C81   C114  S    
O56   H45   S    
C3    O15   A    
C52   C107  S    
C6    O4    A    
C35   C47   A    
C29   C89   A    
C4    C30   S    
C57   C102  S    
C6    C26   S    
C115  O51   D    
C78   C90   A    
C15   C72   S    
C103  O33   D    
C45   C57   A    
C54   C66   A    
C117  O55   D    
C31   C43   A    
Cr3   O6    S    
C80   C109  S    
C40   H4    S    
C98   H26   S    
C118  O57   D    
Cr1   O4    S    
C107  O37   D    
Cr6   O12   S    
C21   C66   S    
C3    O1    A    
C5    O17   A    
C60   C72   A    
C19   C62   S    
C37   C49   A    
C91   H14   S    
C8    O12   A    
C84   C96   A    
Cr5   O23   S    
C20   C61   S    
C3    C29   S    
C58   C101  S    
C44   C56   A    
Cr6   O9    S    
C38   H2    S    
C25   C37   A    
C104  H32   S    
C15   C24   T    
C11   O23   A    
C71   C83   A    
O50   H42   S    
C27   C39   A    
C110  O42   S    
Cr2   O5    S    
C28   C88   A    
C2    O6    A    
O62   H48   S    
C60   C99   S    
C36   C48   A    
C50   C103  S    
C34   C46   A    
C93   H18   S    
C97   O27   D    
C53   C65   A    
C120  O61   D    
C76   C88   A    
C79   C91   A    
C1    O13   A    
Cr1   O1    S    
C18   C69   S    
C102  O32   D    
C11   C31   S    
C17   C70   S    
C101  O31   D    
C46   C58   A    
C112  O46   S    
C109  O39   D    
C16   C71   S    
C49   C104  S    
C119  O59   D    
C106  O36   D    
C48   C60   A    
Cr5   O8    S    
C100  O30   D    
Cr2   O25   S    
C113  O48   S    
C95   H16   S    
Cr1   O25   S    
C55   C98   S    
C66   C78   A    
C8    O20   A    
Cr5   O20   S    
C49   C61   A    
C42   H6    S    
C7    C33   S    
C73   C116  S    
O48   H41   S    
C12   O24   A    
C96   H15   S    
C51   C63   A    
C52   C64   A    
O54   H44   S    
C7    O11   A    
Cr3   O3    S    
C58   C70   A    
C9    C35   S    
C26   C86   A    
C61   C73   A    
C116  O53   D    
C56   C68   A    
Cr3   O25   S    
C9    O21   A    
Cr4   O26   S    
O40   H37   S    
Cr2   O14   S    
Cr3   O18   S    
C10   C36   S    
C80   C92   A    
O52   H43   S    
C22   C65   S    
C88   H23   S    
C114  O50   S    
C11   O9    A    
Cr6   O21   S    
C65   C77   A    
C81   C93   A    
C94   H17   S    
C36   C96   A    
C55   C67   A    
C99   H27   S    
Cr4   O19   S    
C14   C67   S    
C62   C74   A    
C83   C95   A    
C86   H19   S    
C25   C85   A    
C114  O49   D    
C64   C76   A    
C67   C79   A    
C85   H20   S    
C8    C34   S    
C74   C86   A    
C111  O44   S    
C27   C87   A    
C120  O62   S    
C41   C53   A    
C72   C84   A    
Cr6   O26   S    
Cr6   O24   S    
C5    C25   S    
C75   C87   A    
C102  H30   S    
C105  H33   S    
C16   C23   T    
C31   C91   A    
C74   C115  S    
C50   C62   A    
C5    O3    A    
C116  O54   S    
C6    O18   A    
C53   C106  S    
O60   H47   S    
Cr4   O7    S    
O58   H46   S    
C48   H12   S    
C100  H28   S    
C73   C85   A    
C43   C55   A    
C47   H11   S    
C113  O47   D    
C23   C64   S    
C4    O2    A    
Cr5   O11   S    
C41   H5    S    
C13   C20   T    
C29   C41   A    
C77   C89   A    
C14   C19   T    
Cr3   O15   S    
C26   C38   A    
C34   C94   A    
C56   C97   S    
C1    O5    A    
C33   C93   A    
C39   H3    S    
C37   H1    S    
C45   H9    S    
C38   C50   A    
C89   H22   S    
C35   C95   A    
C84   C111  S    
C24   C63   S    
Cr5   O26   S    
C17   C22   T    
C79   C110  S    
C54   C105  S    
C2    O14   A    
C98   O28   D    
C99   O29   D    
C97   H25   S    
C115  O52   S    
C83   C112  S    
C119  O60   S    
C59   C100  S    
C40   C52   A    
C42   C54   A    
C4    O16   A    
C107  H35   S    
C32   C92   A    
C63   C75   A    
Cr4   O22   S    
Cr2   O2    S    
C118  O58   S    
C105  O35   D    
C75   C120  S    
C87   H24   S    
C111  O43   D    
C70   C82   A    
C92   H13   S    
C104  O34   D    
Cr1   O16   S    
C69   C81   A    
C78   C117  S    
C47   C59   A    
O42   H38   S    
C51   C108  S    
O44   H39   S    
C10   O8    A    
C112  O45   D    
C32   C44   A    
C117  O56   S    
C110  O41   D    
C12   O10   A    
C59   C71   A    
C76   C119  S    
C1    C27   S    
C28   C40   A    
C30   C42   A    
C2    C28   S    
C43   H7    S    
O46   H40   S    
C57   C69   A    
C108  H36   S    
C108  O38   D    
Cr1   O13   S    
C30   C90   A    
C12   C32   S    
C106  H34   S    
Cr4   O10   S    
C10   O22   A    
C109  O40   S    
C7    O19   A    
C13   C68   S    
C9    O7    A    
