data_mof_unit_18405.cif
_audit_creation_date              2012-10-26T21:00:18-0400
_audit_creation_method            fapswitch 2.2
_symmetry_space_group_name_H-M    P1
_symmetry_Int_Tables_number       1
_space_group_crystal_system       triclinic
_cell_length_a                    19.374212
_cell_length_b                    8.803203
_cell_length_c                    7.705995
_cell_angle_alpha                 104.228188
_cell_angle_beta                  97.769485
_cell_angle_gamma                 102.615159
_cell_volume                      1218.1919157

loop_
_atom_site_label
_atom_site_type_symbol
_atom_type_description
_atom_site_fract_x
_atom_site_fract_y
_atom_site_fract_z
_atom_type_partial_charge
C1    C     C_R   0.497777 0.199182 0.451576 0.521629
C2    C     C_R   0.803924 0.431963 0.360181 -0.152200
C3    C     C_R   0.144708 0.497187 0.476352 0.030719
C4    C     C_R   0.855259 0.502417 0.523808 0.030681
C5    C     C_R   0.166983 0.427891 0.312784 -0.001367
C6    C     C_R   0.832984 0.571835 0.687324 -0.001340
C7    C     C_R   0.240732 0.431493 0.321666 -0.120843
C8    C     C_R   0.759249 0.568429 0.678359 -0.120794
C9    C     C_R   0.290995 0.499695 0.487132 0.004908
C10   C     C_R   0.708993 0.500204 0.512886 0.004947
C11   C     C_R   0.931013 0.499965 0.516149 0.319563
C12   C     C_R   0.502224 0.800818 0.548424 0.521637
C13   C     C_R   0.068952 0.499580 0.484081 0.319634
C14   C     C_3   0.112253 0.354080 0.132726 -0.250998
C15   C     C_3   0.143510 0.306614 0.960031 -0.322098
C16   C     C_3   0.084173 0.244936 0.788316 -0.427460
C17   C     C_3   0.887686 0.645524 0.867443 -0.250984
C18   C     C_3   0.856395 0.692902 0.040104 -0.322105
C19   C     C_3   0.915678 0.754086 0.211917 -0.427451
C20   C     C_R   0.415071 0.313885 0.942719 0.197895
C21   C     C_R   0.374417 0.226124 0.046976 -0.075308
C22   C     C_R   0.312343 0.096786 0.976218 -0.180798
C23   C     C_2   0.496974 0.029849 0.427163 -0.147191
C24   C     C_R   0.285174 0.040862 0.791789 -0.111492
C25   C     C_R   0.320947 0.113711 0.679442 -0.160086
C26   C     C_R   0.383170 0.243195 0.751804 -0.075137
C27   C     C_R   0.584908 0.686170 0.057293 0.197894
C28   C     C_R   0.625551 0.773960 0.953040 -0.075337
C29   C     C_R   0.687562 0.903481 0.023826 -0.180746
C30   C     C_R   0.714686 0.959544 0.208276 -0.111447
C31   C     C_R   0.678951 0.886582 0.320604 -0.160096
C32   C     C_R   0.616798 0.756890 0.248213 -0.075161
C33   C     C_2   0.503027 0.970151 0.572837 -0.147204
C34   C     C_R   0.367459 0.499410 0.495670 0.517509
C35   C     C_R   0.632539 0.500576 0.504329 0.517498
C36   C     C_R   0.267980 0.567473 0.645839 -0.135741
C37   C     C_R   0.732001 0.432258 0.354234 -0.135813
C38   C     C_R   0.196052 0.567647 0.639955 -0.152065
Cu1   Cu    Cu3+1 0.507710 0.517380 0.684380 0.898864
Cu2   Cu    Cu3+1 0.492290 0.482620 0.315620 0.898869
H1    H     H_    0.305791 0.621845 0.775142 0.144980
H2    H     H_    0.055768 0.339865 0.776679 0.178110
H3    H     H_    0.108353 0.213980 0.665824 0.163621
H4    H     H_    0.183585 0.413679 0.949157 0.168149
H5    H     H_    0.170331 0.208160 0.966734 0.168707
H6    H     H_    0.074337 0.243099 0.141945 0.171383
H7    H     H_    0.081213 0.443502 0.114979 0.160828
H8    H     H_    0.943923 0.658886 0.223389 0.178084
H9    H     H_    0.955465 0.864573 0.208044 0.163075
H10   H     H_    0.891475 0.785044 0.334352 0.163656
H11   H     H_    0.829696 0.791585 0.033594 0.168721
H12   H     H_    0.694191 0.377862 0.224932 0.144960
H13   H     H_    0.816206 0.585883 0.050689 0.168158
H14   H     H_    0.918690 0.556028 0.885138 0.160831
H15   H     H_    0.925641 0.756511 0.858357 0.171345
H16   H     H_    0.385484 0.245779 0.187673 0.179814
H17   H     H_    0.285172 0.039463 0.066818 0.101460
H18   H     H_    0.237090 0.941181 0.736220 0.136416
H19   H     H_    0.300295 0.069170 0.533086 0.102628
H20   H     H_    0.398531 0.272112 0.639459 0.181295
H21   H     H_    0.614520 0.754203 0.812322 0.179810
H22   H     H_    0.714718 0.960841 0.933230 0.101464
H23   H     H_    0.180164 0.621134 0.765631 0.124081
H24   H     H_    0.762715 0.059385 0.263869 0.136420
H25   H     H_    0.699584 0.931182 0.466967 0.102641
H26   H     H_    0.601475 0.727869 0.360553 0.181301
H27   H     H_    0.819813 0.378386 0.234541 0.124085
H28   H     H_    0.259832 0.379417 0.201303 0.123888
H29   H     H_    0.740156 0.620676 0.798672 0.123835
H30   H     H_    0.491502 0.954161 0.288869 0.144357
H31   H     H_    0.508499 0.045839 0.711132 0.144341
H32   H     H_    0.044527 0.134340 0.792481 0.163052
N1    N     N_R   0.013220 0.369724 0.389919 -0.261616
N2    N     N_R   0.986746 0.629819 0.610314 -0.261595
N3    N     N_R   0.945601 0.370372 0.404555 -0.247732
N4    N     N_R   0.054363 0.629171 0.595679 -0.247690
N5    N     N_2   0.480680 0.456420 0.038530 -0.146687
N6    N     N_2   0.519320 0.543580 0.961470 -0.146683
O1    O     O_R   0.505010 0.286130 0.619770 -0.518799
O2    O     O_R   0.494990 0.713870 0.380230 -0.518786
O3    O     O_R   0.491990 0.256780 0.308370 -0.519784
O4    O     O_R   0.508010 0.743220 0.691630 -0.519771
O5    O     O_R   0.406650 0.514660 0.655750 -0.519093
O6    O     O_R   0.593350 0.485340 0.344250 -0.519102
O7    O     O_R   0.393640 0.485310 0.344340 -0.529562
O8    O     O_R   0.606360 0.514690 0.655660 -0.529583

loop_
_geom_bond_atom_site_label_1
_geom_bond_atom_site_label_2
_ccdc_geom_bond_type
C30   H24   S    
Cu2   O6    S    
C16   H32   S    
C27   N6    S    
C22   H17   S    
C14   H6    S    
C2    C37   A    
N5    N6    D    
C8    H29   S    
N2    N4    A    
C20   N5    S    
C10   C37   A    
C28   C29   A    
C15   H4    S    
C30   C31   A    
C35   O8    A    
C1    O3    A    
C15   C16   S    
C7    C9    A    
C18   C19   S    
C18   H13   S    
C7    H28   S    
C3    C38   A    
C23   C33   D    
C9    C36   A    
Cu2   O2    S    
C10   C35   S    
C17   H15   S    
C3    C13   S    
C28   H21   S    
C21   C22   A    
N1    N3    A    
C23   H30   S    
C36   H1    S    
C18   H11   S    
Cu1   N6    S    
C24   C25   A    
C4    C6    A    
C2    H27   S    
Cu1   Cu2   S    
C5    C7    A    
C37   H12   S    
C19   H8    S    
C6    C8    A    
C25   C26   A    
C34   O7    A    
Cu1   O1    S    
Cu2   O7    S    
C2    C4    A    
C29   C30   A    
C19   H9    S    
C31   C32   A    
C13   N4    A    
C17   C18   S    
C12   O4    A    
C4    C11   S    
C16   H3    S    
C5    C14   S    
C24   H18   S    
C13   N1    A    
C1    C23   S    
C9    C34   S    
C1    O1    A    
C22   C24   A    
C34   O5    A    
C15   H5    S    
C16   H2    S    
C32   H26   S    
C38   H23   S    
C31   H25   S    
C6    C17   S    
C29   H22   S    
C27   C32   A    
Cu2   N5    S    
Cu2   O3    S    
Cu1   O4    S    
C3    C5    A    
C11   N2    A    
C21   H16   S    
C35   O6    A    
C14   H7    S    
C36   C38   A    
Cu1   O5    S    
C11   N3    A    
C19   H10   S    
C20   C26   A    
C12   O2    A    
C33   H31   S    
C20   C21   A    
C8    C10   A    
C27   C28   A    
C14   C15   S    
C25   H19   S    
Cu1   O8    S    
C12   C33   S    
C26   H20   S    
C17   H14   S    
