data_mof_unit_64699.cif
_audit_creation_date              2013-03-05T15:45:28-0500
_audit_creation_method            fapswitch 2.2
_symmetry_space_group_name_H-M    P1
_symmetry_Int_Tables_number       1
_space_group_crystal_system       triclinic
_cell_length_a                    15.076624
_cell_length_b                    15.102486
_cell_length_c                    19.41405
_cell_angle_alpha                 89.702213
_cell_angle_beta                  91.266548
_cell_angle_gamma                 90.5684
_cell_volume                      4419.12022062

loop_
_atom_site_label
_atom_site_type_symbol
_atom_site_description
_atom_site_fract_x
_atom_site_fract_y
_atom_site_fract_z
_atom_type_partial_charge
Zn1   Zn    Zn3+2 0.433070 0.575010 0.435400 0.974655
Zn2   Zn    Zn3+2 0.418400 0.433070 0.557650 0.993883
Zn3   Zn    Zn3+2 0.575700 0.573520 0.558390 1.017742
Zn4   Zn    Zn3+2 0.572830 0.418400 0.448560 1.045014
O1    O     O_3   0.500000 0.500000 0.500000 -0.507094
O2    O     O_R   0.542340 0.296600 0.470110 -0.594019
O3    O     O_R   0.461800 0.698790 0.448670 -0.633954
O4    O     O_R   0.296600 0.461110 0.533510 -0.645249
O5    O     O_R   0.699270 0.543500 0.547710 -0.633753
O6    O     O_R   0.437070 0.459640 0.654640 -0.636758
O7    O     O_R   0.556790 0.436390 0.349710 -0.640030
O8    O     O_R   0.547170 0.557950 0.655150 -0.614256
O9    O     O_R   0.458970 0.546010 0.340500 -0.640986
O10   O     O_R   0.306870 0.560460 0.447950 -0.645170
O11   O     O_R   0.697260 0.434930 0.470830 -0.606202
O12   O     O_R   0.434240 0.306870 0.546470 -0.640744
O13   O     O_R   0.561630 0.697750 0.534750 -0.637973
C1    C     C_R   0.486221 0.260177 0.510223 0.859264
C2    C     C_R   0.515680 0.739703 0.489786 0.821608
C3    C     C_R   0.260032 0.512508 0.488458 0.792923
C4    C     C_R   0.739732 0.486667 0.512016 0.821172
C5    C     C_R   0.491473 0.510263 0.687418 0.829238
C6    C     C_R   0.508996 0.488812 0.312660 0.797811
C7    C     C_R   0.508143 0.481159 0.237765 -0.032059
C8    C     C_R   0.430388 0.500589 0.200166 -0.184370
C9    C     C_R   0.428865 0.494761 0.128842 -0.135990
C10   C     C_R   0.506042 0.473090 0.094007 0.145853
C11   C     C_R   0.583435 0.450325 0.131612 0.190014
C12   C     C_R   0.583964 0.454075 0.203451 -0.209813
C13   C     C_R   0.563216 0.517165 0.873883 -0.168157
C14   C     C_R   0.567348 0.508309 0.802705 0.155870
C15   C     C_R   0.407882 0.531537 0.793419 -0.219226
C16   C     C_R   0.404593 0.541757 0.864526 -0.122679
C17   C     C_R   0.482160 0.534160 0.904813 0.089248
C18   C     C_2   0.504773 0.472167 0.018566 -0.261898
C19   C     C_2   0.478328 0.541362 0.979674 0.144160
C20   C     C_R   0.489083 0.515675 0.762158 -0.043786
H1    H     H_    0.370512 0.519364 0.226022 0.165530
H2    H     H_    0.347428 0.537648 0.762603 0.157053
H3    H     H_    0.623182 0.510755 0.905242 0.183383
H4    H     H_    0.644101 0.438190 0.232281 0.180507
H5    H     H_    0.529049 0.413060 0.993697 0.176549
H6    H     H_    0.367642 0.508299 0.100664 0.169653
H7    H     H_    0.341599 0.554340 0.888225 0.162815
C21   C     C_R   0.480105 0.163762 0.512261 -0.126895
C22   C     C_R   0.526431 0.835300 0.487410 -0.061314
C23   C     C_R   0.623849 0.961745 0.508225 0.323289
C24   C     C_R   0.611267 0.871300 0.497950 -0.241901
C25   C     C_R   0.452545 0.889659 0.486168 -0.231003
C26   C     C_R   0.463037 0.980650 0.496416 0.107754
C27   C     C_R   0.549407 0.018781 0.505078 -0.070240
C28   C     C_R   0.557446 0.112035 0.509993 0.259494
C29   C     C_R   0.396076 0.123916 0.509402 -0.226965
C30   C     C_R   0.387552 0.033308 0.499943 -0.158582
H8    H     H_    0.336733 0.163735 0.510572 0.175760
H9    H     H_    0.321660 0.004328 0.495059 0.157885
H10   H     H_    0.668020 0.827862 0.502034 0.188057
H11   H     H_    0.386727 0.860468 0.480747 0.155253
C31   C     C_R   0.163506 0.512892 0.481361 -0.015896
C32   C     C_R   0.835549 0.482733 0.517920 -0.001001
C33   C     C_R   0.968224 0.471788 0.589557 -0.185832
C34   C     C_R   0.876184 0.470199 0.582722 -0.138151
C35   C     C_R   0.886509 0.497981 0.459754 -0.252117
C36   C     C_R   0.978772 0.503017 0.466531 0.180643
C37   C     C_R   0.019937 0.488772 0.531860 0.163977
C38   C     C_R   0.112096 0.492625 0.538563 -0.250284
C39   C     C_R   0.122480 0.529453 0.417067 -0.185246
C40   C     C_R   0.030498 0.523626 0.409504 -0.190335
H12   H     H_    0.143851 0.480669 0.588386 0.159083
H13   H     H_    0.161707 0.544614 0.372360 0.165778
H14   H     H_    0.998821 0.461331 0.639942 0.158181
H15   H     H_    0.999892 0.535369 0.359298 0.155122
H16   H     H_    0.836530 0.459075 0.627869 0.178684
H17   H     H_    0.854137 0.509255 0.410062 0.143295
N1    N     N_R   0.642715 0.155193 0.508647 0.238554
O14   O     O_R   0.667991 0.207219 0.558748 -0.345114
O15   O     O_R   0.689828 0.151571 0.453392 -0.322700
N2    N     N_R   0.710814 0.991541 0.529266 0.240149
O16   O     O_R   0.723216 0.024320 0.590618 -0.314618
O17   O     O_R   0.779362 0.967124 0.494768 -0.336815
I1    I     I_    0.692732 0.478761 0.760989 -0.295432
I2    I     I_    0.440680 0.666435 0.019468 -0.306912
I3    I     I_    0.702458 0.414593 0.082951 -0.313382

loop_
_geom_bond_atom_site_label_1
_geom_bond_atom_site_label_2
_geom_bond_distance
_ccdc_geom_bond_type
C18   C19   1.344579 D    
C28   N1    1.436283 S    
C2    C22   1.451838 S    
C24   H10   1.084610 S    
C29   C30   1.385950 A    
O6    C5    1.277406 A    
C22   C25   1.390030 A    
C9    C10   1.401061 A    
O4    C3    1.285148 A    
C32   C35   1.396651 A    
Zn1   O1    1.956123 S    
C36   C40   1.400205 A    
C11   C12   1.395953 A    
C31   C38   1.399120 A    
C13   C14   1.391823 A    
N2    O17   1.301276 A    
C38   H12   1.084822 S    
O8    C5    1.273896 A    
O9    C6    1.281796 A    
C32   C34   1.399875 A    
C15   H2    1.083577 S    
C18   H5    1.087507 S    
C7    C12   1.401292 A    
Zn3   O8    1.948899 S    
C31   C39   1.403154 A    
C19   I2    2.131389 S    
C6    C7    1.458966 S    
C34   H16   1.083299 S    
Zn2   O12   1.937096 S    
C33   H14   1.083724 S    
C21   C29   1.397249 A    
C11   I3    2.122085 S    
C9    H6    1.083202 S    
C16   C17   1.397770 A    
C30   H9    1.084013 S    
C29   H8    1.083670 S    
O2    C1    1.280767 A    
C22   C24   1.396122 A    
C13   C17   1.400048 A    
C27   C28   1.415901 A    
O10   C3    1.284560 A    
C7    C8    1.399983 A    
C4    C32   1.448396 S    
Zn4   O2    1.937465 S    
N2    O16   1.301214 A    
C23   C27   1.421607 A    
C21   C28   1.411584 A    
C10   C18   1.464460 S    
C8    C9    1.387608 A    
C5    C20   1.454992 S    
C25   H11   1.085041 S    
C39   C40   1.393264 A    
C3    C31   1.458817 S    
N1    O14   1.301637 A    
Zn3   O5    1.937573 S    
C33   C37   1.400015 A    
C8    H1    1.083455 S    
C23   C24   1.391986 A    
C40   H15   1.083679 S    
C26   C27   1.425478 A    
C13   H3    1.083599 S    
C26   C30   1.397967 A    
C15   C20   1.401651 A    
Zn4   O7    1.946930 S    
N1    O15   1.301275 A    
C37   C38   1.393328 A    
O3    C2    1.282709 A    
Zn2   O1    1.952523 S    
Zn1   O9    1.944812 S    
Zn2   O6    1.941137 S    
C1    C21   1.458486 S    
C12   H4    1.083214 S    
Zn1   O3    1.931993 S    
C16   H7    1.083328 S    
Zn2   O4    1.935563 S    
Zn4   O1    1.951877 S    
Zn3   O1    1.936794 S    
C35   H17   1.084898 S    
C14   I1    2.125246 S    
C39   H13   1.083255 S    
C15   C16   1.391911 A    
Zn4   O11   1.929905 S    
C36   C37   1.415991 A    
O5    C4    1.274473 A    
O7    C6    1.282918 A    
O13   C2    1.272633 A    
Zn3   O13   1.941736 S    
C17   C19   1.460447 S    
C33   C34   1.391038 A    
C35   C36   1.395673 A    
C14   C20   1.408893 A    
O11   C4    1.278222 A    
O12   C1    1.283418 A    
C25   C26   1.396473 A    
C10   C11   1.407264 A    
Zn1   O10   1.933766 S    
C23   N2    1.433517 S    
