data_mof_unit_35345.cif
_audit_creation_date              2012-12-11T14:40:03-0500
_audit_creation_method            fapswitch 2.2
_symmetry_space_group_name_H-M    P1
_symmetry_Int_Tables_number       1
_space_group_crystal_system       triclinic
_cell_length_a                    19.924432
_cell_length_b                    10.895918
_cell_length_c                    19.353201
_cell_angle_alpha                 89.633168
_cell_angle_beta                  96.625702
_cell_angle_gamma                 90.217818
_cell_volume                      4173.31609894

loop_
_atom_site_label
_atom_site_type_symbol
_atom_type_description
_atom_site_fract_x
_atom_site_fract_y
_atom_site_fract_z
_atom_type_partial_charge
C1    C     C_R   0.725562 0.949576 0.359675 0.553313
C2    C     C_R   0.276141 0.955983 0.638626 0.544915
C3    C     C_R   0.225563 0.449576 0.359677 0.539615
C4    C     C_R   0.776142 0.455986 0.638626 0.558270
C5    C     C_3   0.694233 0.360947 0.482019 -0.139826
C6    C     C_3   0.278379 0.304173 0.516756 -0.145269
C7    C     C_3   0.194226 0.860947 0.482021 -0.142287
C8    C     C_3   0.778362 0.804175 0.516760 -0.142843
C9    C     C_3   0.747694 0.394457 0.433696 0.057993
C10   C     C_3   0.253731 0.398420 0.566782 0.045780
C11   C     C_3   0.247691 0.894444 0.433699 0.053959
C12   C     C_3   0.753730 0.898437 0.566785 0.049950
C13   C     C_3   0.757857 0.520897 0.465113 -0.170175
C14   C     C_3   0.284786 0.503217 0.528825 -0.130423
C15   C     C_3   0.257863 0.020882 0.465118 -0.169443
C16   C     C_3   0.784796 0.003217 0.528825 -0.130340
C17   C     C_3   0.814246 0.466967 0.517904 -0.101692
C18   C     C_3   0.216099 0.515838 0.482707 -0.097020
C19   C     C_3   0.314246 0.966939 0.517910 -0.099357
C20   C     C_3   0.716107 0.015863 0.482712 -0.099411
C21   C     C_3   0.804163 0.339556 0.485726 0.125043
C22   C     C_3   0.186031 0.409541 0.521543 0.103403
C23   C     C_3   0.304155 0.839530 0.485731 0.124301
C24   C     C_3   0.686029 0.909583 0.521554 0.103704
C25   C     C_3   0.750961 0.306439 0.534678 -0.134900
C26   C     C_3   0.209821 0.315927 0.470814 -0.109675
C27   C     C_3   0.250949 0.806427 0.534682 -0.135297
C28   C     C_3   0.709802 0.815951 0.470823 -0.109863
C29   C     C_3   0.761168 0.432631 0.566058 0.036508
C30   C     C_3   0.240380 0.421105 0.432477 0.040139
C31   C     C_3   0.261163 0.932617 0.566062 0.040290
C32   C     C_3   0.740373 0.921113 0.432481 0.036223
C33   C     C_3   0.470821 0.286396 0.986664 0.037308
C34   C     C_3   0.456190 0.201581 0.047628 0.082501
C35   C     C_3   0.043727 0.702028 0.952153 0.069468
C36   C     C_3   0.029168 0.786976 0.012435 0.034149
C37   C     C_3   0.545861 0.256663 0.002318 0.243636
C38   C     C_3   0.449213 0.090782 0.998656 0.230561
C39   C     C_3   0.050804 0.591484 0.002012 0.196629
C40   C     C_3   0.954131 0.756331 0.997083 0.230206
C41   C     C_3   0.531927 0.173232 0.063094 -0.051177
C42   C     C_3   0.463337 0.174623 0.937807 -0.059196
C43   C     C_3   0.036751 0.675576 0.062186 -0.042883
C44   C     C_3   0.967962 0.672539 0.937014 -0.054522
C45   C     C_R   0.534022 0.179631 0.337010 0.562200
C46   C     C_R   0.464711 0.180512 0.662024 0.566652
C47   C     C_R   0.034028 0.679629 0.337015 0.560849
C48   C     C_R   0.964720 0.680512 0.662031 0.567894
C49   C     C_3   0.524401 0.060879 0.014932 0.025030
C50   C     C_3   0.538969 0.145359 0.953639 0.080650
C51   C     C_3   0.961113 0.645346 0.046719 0.095592
C52   C     C_3   0.975592 0.560593 0.986170 0.006032
C53   C     C_1   0.785355 0.489343 0.916800 0.067958
C54   C     C_1   0.247773 0.395556 0.105323 0.122534
C55   C     C_1   0.252355 0.894789 0.894889 0.126554
C56   C     C_1   0.715380 0.988835 0.083023 0.066818
C57   C     C_1   0.766315 0.459345 0.047664 0.100331
C58   C     C_1   0.270172 0.341515 0.978029 0.114970
C59   C     C_1   0.229393 0.840515 0.022156 0.104946
C60   C     C_1   0.734061 0.958092 0.952162 0.122655
C61   C     C_1   0.777072 0.480081 0.977475 0.090296
C62   C     C_1   0.261404 0.364413 0.048557 0.128728
C63   C     C_1   0.238451 0.863250 0.951646 0.128406
C64   C     C_1   0.723612 0.979042 0.022367 0.095118
C65   C     C_1   0.754038 0.425881 0.104592 0.116366
C66   C     C_1   0.274294 0.327342 0.916696 0.082340
C67   C     C_1   0.225211 0.826815 0.083529 0.071538
C68   C     C_1   0.746012 0.924959 0.895253 0.134101
C69   C     C_R   0.738952 0.361332 0.361817 0.548118
C70   C     C_R   0.260576 0.365283 0.639116 0.567560
C71   C     C_R   0.238952 0.861332 0.361815 0.564006
C72   C     C_R   0.760576 0.865284 0.639114 0.551791
C73   C     C_R   0.704526 0.000714 0.155014 0.541499
C74   C     C_R   0.276325 0.947256 0.833773 0.561021
C75   C     C_R   0.223758 0.447388 0.166310 0.558457
C76   C     C_R   0.795777 0.500760 0.844699 0.545512
C77   C     C_R   0.561301 0.182462 0.135379 0.571670
C78   C     C_R   0.436937 0.182192 0.864198 0.553802
C79   C     C_R   0.063102 0.682955 0.135805 0.554994
C80   C     C_R   0.938652 0.681740 0.864631 0.569250
C81   C     C_R   0.737864 0.365925 0.166998 0.560409
C82   C     C_R   0.277597 0.308355 0.843482 0.547237
C83   C     C_R   0.222182 0.808320 0.156816 0.548682
C84   C     C_R   0.762140 0.865737 0.832951 0.562966
C85   C     C_1   0.483884 0.174356 0.593884 0.020996
C86   C     C_1   0.510932 0.171765 0.403459 0.012209
C87   C     C_1   0.983908 0.674355 0.593897 0.020861
C88   C     C_1   0.010951 0.671759 0.403471 0.011741
C89   C     C_1   0.500036 0.170060 0.462925 -0.023615
C90   C     C_1   0.492288 0.171662 0.533714 -0.020473
C91   C     C_1   0.000064 0.670054 0.462940 -0.023698
C92   C     C_1   0.992318 0.671657 0.533729 -0.020771
C93   C     C_3   0.704694 0.488955 0.515001 -0.117726
C94   C     C_3   0.308781 0.410007 0.477072 -0.116981
C95   C     C_3   0.204696 0.988953 0.515004 -0.117192
C96   C     C_3   0.808775 0.909991 0.477072 -0.116887
Cr1   Cr    Cr6+3 0.765830 0.160660 0.268180 1.088207
Cr2   Cr    Cr6+3 0.234170 0.160660 0.731820 1.071699
Cr3   Cr    Cr6+3 0.265830 0.660660 0.268180 1.071809
Cr4   Cr    Cr6+3 0.734170 0.660660 0.731820 1.083311
Cr5   Cr    Cr6+3 0.612110 0.009150 0.248770 1.085366
Cr6   Cr    Cr6+3 0.387890 0.009150 0.751230 1.104386
Cr7   Cr    Cr6+3 0.112110 0.509150 0.248770 1.100396
Cr8   Cr    Cr6+3 0.887890 0.509150 0.751230 1.076187
Cr9   Cr    Cr6+3 0.615930 0.324050 0.248450 1.086163
Cr10  Cr    Cr6+3 0.384070 0.324050 0.751550 1.085731
Cr11  Cr    Cr6+3 0.115930 0.824050 0.248450 1.083548
Cr12  Cr    Cr6+3 0.884070 0.824050 0.751550 1.087773
H1    H     H_    0.644511 0.317872 0.465050 0.128630
H2    H     H_    0.306310 0.220436 0.535407 0.114218
H3    H     H_    0.144501 0.817882 0.465051 0.128354
H4    H     H_    0.806284 0.720431 0.535413 0.114491
H5    H     H_    0.664128 0.549866 0.529590 0.159587
H6    H     H_    0.358641 0.408446 0.456750 0.148474
H7    H     H_    0.164134 0.049873 0.529592 0.159287
H8    H     H_    0.858634 0.908406 0.456749 0.149535
H9    H     H_    0.762857 0.601942 0.431305 0.116691
H10   H     H_    0.317290 0.573426 0.557080 0.154001
H11   H     H_    0.262875 0.101925 0.431312 0.117483
H12   H     H_    0.817310 0.073418 0.557076 0.153551
H13   H     H_    0.363775 0.010778 0.534835 0.138937
H14   H     H_    0.688950 0.101390 0.465687 0.117183
H15   H     H_    0.863773 0.510817 0.534827 0.138912
H16   H     H_    0.188933 0.601359 0.465686 0.117264
H17   H     H_    0.745084 0.225767 0.568405 0.116965
H18   H     H_    0.177834 0.241719 0.445423 0.140678
H19   H     H_    0.245061 0.725761 0.568411 0.116708
H20   H     H_    0.677807 0.741747 0.445440 0.140519
O1    O     O_R   0.783230 0.287800 0.346510 -0.482758
O2    O     O_R   0.216770 0.287800 0.653490 -0.479684
O3    O     O_R   0.283230 0.787800 0.346510 -0.476430
O4    O     O_R   0.716770 0.787800 0.653490 -0.484197
O5    O     O_R   0.554500 0.081650 0.170370 -0.477132
O6    O     O_R   0.445500 0.081650 0.829630 -0.448869
O7    O     O_R   0.054500 0.581650 0.170370 -0.452201
O8    O     O_R   0.945500 0.581650 0.829630 -0.498461
O9    O     O_R   0.545430 0.285140 0.163100 -0.441140
O10   O     O_R   0.454570 0.285140 0.836900 -0.455821
O11   O     O_R   0.045430 0.785140 0.163100 -0.457544
O12   O     O_R   0.954570 0.785140 0.836900 -0.442646
O13   O     O_R   0.677850 0.374730 0.185500 -0.466610
O14   O     O_R   0.322150 0.374730 0.814500 -0.492343
O15   O     O_R   0.177850 0.874730 0.185500 -0.488089
O16   O     O_R   0.822150 0.874730 0.814500 -0.462327
O17   O     O_3   0.664630 0.164620 0.255130 -0.335071
O18   O     O_3   0.335370 0.164620 0.744870 -0.339298
O19   O     O_3   0.164630 0.664620 0.255130 -0.335641
O20   O     O_3   0.835370 0.664620 0.744870 -0.336002
O21   O     O_R   0.760130 0.037060 0.338610 -0.483749
O22   O     O_R   0.239870 0.037060 0.661390 -0.506226
O23   O     O_R   0.260130 0.537060 0.338610 -0.490726
O24   O     O_R   0.739870 0.537060 0.661390 -0.498024
O25   O     O_R   0.666620 0.921370 0.332440 -0.504529
O26   O     O_R   0.333380 0.921370 0.667560 -0.505770
O27   O     O_R   0.166620 0.421370 0.332440 -0.509837
O28   O     O_R   0.833380 0.421370 0.667560 -0.499357
O29   O     O_R   0.557170 0.082420 0.312350 -0.476283
O30   O     O_R   0.442830 0.082420 0.687650 -0.480624
O31   O     O_R   0.057170 0.582420 0.312350 -0.478305
O32   O     O_R   0.942830 0.582420 0.687650 -0.480051
O33   O     O_R   0.548310 0.285980 0.316250 -0.503472
O34   O     O_R   0.451690 0.285980 0.683750 -0.495037
O35   O     O_R   0.048310 0.785980 0.316250 -0.499614
O36   O     O_R   0.951690 0.785980 0.683750 -0.497563
O37   O     O_R   0.680520 0.375500 0.327470 -0.511928
O38   O     O_R   0.319480 0.375500 0.672530 -0.503035
O39   O     O_R   0.180520 0.875500 0.327470 -0.503589
O40   O     O_R   0.819480 0.875500 0.672530 -0.510994
O41   O     O_R   0.780350 0.286970 0.193350 -0.504234
O42   O     O_R   0.219650 0.286970 0.806650 -0.451358
O43   O     O_R   0.280350 0.786970 0.193350 -0.463235
O44   O     O_R   0.719650 0.786970 0.806650 -0.507917
O45   O     O_R   0.757460 0.036290 0.196640 -0.463719
O46   O     O_R   0.242540 0.036290 0.803360 -0.518303
O47   O     O_R   0.257460 0.536290 0.196640 -0.522638
O48   O     O_R   0.742540 0.536290 0.803360 -0.461900
O49   O     O_R   0.663740 0.920540 0.179290 -0.484741
O50   O     O_R   0.336260 0.920540 0.820710 -0.456081
O51   O     O_R   0.163740 0.420540 0.179290 -0.458002
O52   O     O_R   0.836260 0.420540 0.820710 -0.480142
I1    I     I_    0.893730 0.238919 0.470337 -0.313834
I2    I     I_    0.087785 0.402109 0.555162 -0.317874
I3    I     I_    0.393720 0.738882 0.470341 -0.312818
I4    I     I_    0.587808 0.902227 0.555234 -0.320820
S1    S     S_3+6 0.612510 0.359513 0.996868 0.021624
O53   O     O_2   0.675238 0.282645 0.006003 -0.338873
O54   O     O_2   0.605561 0.419505 0.926221 -0.236341
O55   O     O_3   0.611687 0.466363 0.059084 -0.506349
H21   H     H_    0.620729 0.545402 0.036286 0.372774
S2    S     S_3+6 0.383519 0.986999 0.005925 0.015329
O56   O     O_2   0.319524 0.058978 0.989840 -0.340111
O57   O     O_2   0.388346 0.884182 0.955480 -0.275489
O58   O     O_3   0.387913 0.930531 0.087477 -0.466901
H22   H     H_    0.406524 0.846698 0.085121 0.374822
S3    S     S_3+6 0.116870 0.488868 0.995487 0.022164
O59   O     O_2   0.180246 0.562239 0.013560 -0.343718
O60   O     O_2   0.111137 0.383750 0.044943 -0.239303
O61   O     O_3   0.115566 0.434552 0.914127 -0.457874
H23   H     H_    0.067259 0.429345 0.895544 0.363646
S4    S     S_3+6 0.887300 0.858096 0.001844 0.018514
O62   O     O_2   0.824774 0.779968 0.993140 -0.336115
O63   O     O_2   0.893470 0.918380 0.071967 -0.232939
O64   O     O_3   0.887248 0.965292 0.938989 -0.512845
H24   H     H_    0.915503 0.033282 0.960081 0.382365
I5    I     I_    0.434566 0.470849 0.971339 -0.165498
I6    I     I_    0.394197 0.229892 0.130530 -0.194334
I7    I     I_    0.105474 0.731527 0.868839 -0.218310
I8    I     I_    0.066363 0.971101 0.027100 -0.182690
I9    I     I_    0.556602 0.874033 0.030048 -0.220369
I10   I     I_    0.602133 0.110088 0.872793 -0.182277
I11   I     I_    0.898099 0.609998 0.128097 -0.190487
I12   I     I_    0.942711 0.373486 0.973467 -0.224124

loop_
_geom_bond_atom_site_label_1
_geom_bond_atom_site_label_2
_ccdc_geom_bond_type
C58   C62   S    
C79   O11   A    
O64   H24   S    
C82   O42   A    
C67   C83   S    
S2    O56   D    
Cr4   O44   S    
C17   C29   S    
C14   C18   S    
C19   C23   S    
C35   C36   S    
C8    C96   S    
C82   O14   A    
C19   C31   S    
Cr6   O30   S    
C94   H6    S    
Cr7   O19   S    
C38   C49   S    
C47   O31   A    
C34   I6    S    
C21   I1    S    
Cr12  O36   S    
Cr5   O17   S    
C77   O5    A    
C2    O22   A    
C33   C42   S    
Cr10  O38   S    
C9    C69   S    
C74   O46   A    
C16   H12   S    
C15   C95   S    
Cr2   O46   S    
C11   C71   S    
C13   H9    S    
S1    O54   D    
Cr3   O43   S    
C83   O43   A    
C84   O16   A    
C43   C79   S    
C46   O30   A    
C76   O52   A    
C70   O2    A    
C7    C27   S    
C96   H8    S    
C26   H18   S    
C11   C23   S    
C57   C61   S    
C49   C50   S    
Cr3   O19   S    
C9    C13   S    
C7    C11   S    
C45   O33   A    
S2    O58   S    
C59   C67   T    
C43   C51   S    
C15   C19   S    
C55   C74   S    
C53   C61   T    
C58   C66   T    
C37   S1    S    
C20   C24   S    
C7    H3    S    
S4    O62   D    
C6    C94   S    
C55   C63   T    
Cr4   O48   S    
C56   C64   T    
Cr10  O14   S    
O61   H23   S    
C18   C30   S    
C23   C27   S    
Cr1   O1    S    
C75   O51   A    
Cr6   O26   S    
C20   H14   S    
C4    C29   S    
C16   C20   S    
Cr9   O17   S    
S3    O61   S    
C47   O35   A    
C44   C52   S    
C81   O13   A    
C39   C52   S    
Cr12  O40   S    
Cr5   O29   S    
C2    O26   A    
C18   C22   S    
C87   C92   T    
C73   O45   A    
C72   O40   A    
Cr1   O21   S    
C34   C41   S    
C27   H19   S    
Cr8   O32   S    
C20   C32   S    
C78   O10   A    
C28   C32   S    
C41   C49   S    
C54   C62   T    
C29   C93   S    
C17   H15   S    
C72   O4    A    
C69   O37   A    
C25   C29   S    
C4    O24   A    
Cr11  O39   S    
C16   C96   S    
Cr1   O45   S    
C27   C31   S    
C51   C52   S    
C68   C84   S    
C12   C16   S    
C44   C80   S    
C76   O48   A    
C45   O29   A    
S4    O63   D    
C10   C14   S    
C95   H7    S    
C91   C92   S    
Cr12  O12   S    
S1    O55   S    
C39   C43   S    
Cr2   O18   S    
C38   S2    S    
Cr5   O25   S    
C80   O12   A    
C39   S3    S    
Cr3   O3    S    
C1    C32   S    
C10   C22   S    
C54   C75   S    
C13   C93   S    
C2    C31   S    
C6    H2    S    
C3    C30   S    
C35   C39   S    
S3    O60   D    
Cr6   O6    S    
C5    C9    S    
C66   C82   S    
Cr11  O11   S    
Cr11  O19   S    
C65   C81   S    
C74   O50   A    
C88   C91   T    
C36   C40   S    
C8    C12   S    
C33   I5    S    
Cr2   O2    S    
C3    O27   A    
C33   C34   S    
C36   C43   S    
C48   C87   S    
Cr4   O24   S    
C93   H5    S    
Cr8   O28   S    
C1    O25   A    
C35   C44   S    
C78   O6    A    
C60   C68   T    
C23   I3    S    
C22   I2    S    
C40   S4    S    
C42   C50   S    
C46   C85   S    
C5    C25   S    
C10   C70   S    
C35   I7    S    
C32   C96   S    
Cr11  O35   S    
C26   C30   S    
C11   C15   S    
C46   O34   A    
Cr6   O50   S    
Cr9   O33   S    
C59   C63   S    
C53   C76   S    
Cr11  O15   S    
C9    C21   S    
Cr12  O16   S    
C7    C95   S    
C14   H10   S    
Cr2   O22   S    
C36   I8    S    
Cr7   O27   S    
C75   O47   A    
C21   C25   S    
C19   H13   S    
S2    O57   D    
C56   C73   S    
Cr8   O8    S    
C4    O28   A    
C34   C38   S    
Cr1   O17   S    
Cr3   O23   S    
Cr8   O52   S    
C24   C28   S    
C77   O9    A    
C1    O21   A    
C84   O44   A    
C86   C89   T    
C80   O8    A    
C6    C10   S    
C5    C93   S    
C85   C90   T    
Cr4   O4    S    
C42   C78   S    
C48   O36   A    
Cr5   O5    S    
C24   I4    S    
C40   C51   S    
C79   O7    A    
C12   C24   S    
C3    O23   A    
C81   O41   A    
Cr10  O18   S    
C13   C17   S    
Cr7   O7    S    
C60   C64   S    
C47   C88   S    
C48   O32   A    
C8    H4    S    
C45   C86   S    
Cr1   O41   S    
C73   O49   A    
Cr8   O20   S    
C30   C94   S    
Cr6   O18   S    
C41   C77   S    
C37   C50   S    
Cr7   O31   S    
S1    O53   D    
C6    C26   S    
C5    H1    S    
Cr4   O20   S    
S4    O64   S    
C8    C28   S    
C25   H17   S    
C15   H11   S    
Cr7   O51   S    
Cr10  O34   S    
C37   C41   S    
C12   C72   S    
Cr9   O13   S    
C33   C37   S    
C70   O38   A    
Cr10  O10   S    
C31   C95   S    
Cr9   O9    S    
S3    O59   D    
Cr2   O42   S    
C38   C42   S    
C51   I11   S    
C40   C44   S    
Cr3   O47   S    
C50   I10   S    
C71   O3    A    
C69   O1    A    
O58   H22   S    
C22   C26   S    
C49   I9    S    
C52   I12   S    
Cr9   O37   S    
O55   H21   S    
C83   O15   A    
C71   O39   A    
Cr12  O20   S    
C89   C90   S    
C14   C94   S    
Cr5   O49   S    
C28   H20   S    
C18   H16   S    
C57   C65   T    
C17   C21   S    
