data_mof_unit_58386.cif
_audit_creation_date              2012-12-11T15:55:50-0500
_audit_creation_method            fapswitch 2.2
_symmetry_space_group_name_H-M    P1
_symmetry_Int_Tables_number       1
_space_group_crystal_system       triclinic
_cell_length_a                    6.937099
_cell_length_b                    14.540697
_cell_length_c                    16.0983
_cell_angle_alpha                 89.980414
_cell_angle_beta                  90.055879
_cell_angle_gamma                 89.891937
_cell_volume                      1623.83586359

loop_
_atom_site_label
_atom_site_type_symbol
_atom_type_description
_atom_site_fract_x
_atom_site_fract_y
_atom_site_fract_z
_atom_type_partial_charge
O1    O     O_R   0.505680 0.583900 0.413320 -0.536615
O2    O     O_R   0.176010 0.594950 0.586080 -0.544611
O3    O     O_R   0.005680 0.416100 0.586680 -0.536065
C1    C     C_R   0.344953 0.617102 0.615003 0.718305
O4    O     O_R   0.175960 0.594930 0.413930 -0.550000
O5    O     O_R   0.005640 0.416080 0.413300 -0.539706
C2    C     C_R   0.344361 0.619415 0.386660 0.679404
O6    O     O_R   0.505720 0.583920 0.586700 -0.539560
O7    O     O_3   0.339190 0.441320 0.500000 -0.369375
V1    V     V_3+5 0.064350 0.510890 0.500000 1.389128
O8    O     O_R   0.675920 0.405050 0.413920 -0.543759
C3    C     C_R   0.845007 0.382762 0.385015 0.683812
O9    O     O_R   0.675960 0.405070 0.586070 -0.542999
C4    C     C_R   0.844903 0.382956 0.614834 0.702175
V2    V     V_3+5 0.564340 0.489110 0.500000 1.395066
O10   O     O_3   0.839370 0.558680 0.500000 -0.371657
C5    C     C_R   0.006836 0.317535 0.741853 0.110230
C6    C     C_R   0.852951 0.317419 0.685400 -0.113963
C7    C     C_R   0.701573 0.255177 0.700480 -0.176773
H1    H     H_    0.579546 0.252594 0.658817 0.132469
C8    C     C_R   0.712554 0.191082 0.766029 -0.173521
H2    H     H_    0.598175 0.141280 0.773024 0.125824
C9    C     C_R   0.875554 0.187054 0.818304 -0.113187
C10   C     C_R   0.018172 0.253828 0.806473 0.105717
C11   C     C_3   0.229868 0.241877 0.795250 -0.410622
C12   C     C_3   0.217622 0.311667 0.725194 -0.397699
H3    H     H_    0.267031 0.171474 0.773656 0.165569
H4    H     H_    0.313269 0.266861 0.849719 0.178418
H5    H     H_    0.248502 0.282017 0.662974 0.169709
H6    H     H_    0.293119 0.377207 0.739303 0.173344
C13   C     C_R   0.046794 0.224407 0.217714 -0.157789
H7    H     H_    0.187470 0.205860 0.193864 0.115959
C14   C     C_R   0.035692 0.287984 0.282905 -0.151704
H8    H     H_    0.168367 0.316590 0.307073 0.119358
C15   C     C_R   0.856214 0.314334 0.316238 -0.046739
C16   C     C_R   0.688164 0.275247 0.282507 -0.157418
H9    H     H_    0.547490 0.293783 0.306365 0.116606
C17   C     C_R   0.699268 0.211667 0.217318 -0.151161
H10   H     H_    0.566596 0.183049 0.193158 0.116923
C18   C     C_R   0.878735 0.185391 0.183928 -0.042935
C19   C     C_R   0.191528 0.733120 0.710748 -0.140044
H11   H     H_    0.053208 0.721968 0.681202 0.149471
C20   C     C_R   0.203539 0.796817 0.775795 -0.199469
H12   H     H_    0.074152 0.833270 0.793983 0.206937
C21   C     C_R   0.379980 0.813892 0.816301 -0.185816
C22   C     C_R   0.544851 0.765245 0.789582 0.614816
C23   C     C_R   0.532611 0.702157 0.724142 -0.228827
H13   H     H_    0.662162 0.665957 0.705539 0.146854
C24   C     C_R   0.356142 0.685145 0.683891 -0.143896
C25   C     C_R   0.202518 0.756641 0.306108 0.126358
C26   C     C_R   0.217780 0.817294 0.237788 -0.136075
H14   H     H_    0.104901 0.866569 0.225075 0.131792
C27   C     C_R   0.379471 0.817121 0.185487 -0.087535
C28   C     C_R   0.529191 0.754938 0.201579 -0.163803
H15   H     H_    0.656180 0.753567 0.162505 0.133925
C29   C     C_R   0.515197 0.692266 0.267128 -0.163521
H16   H     H_    0.631927 0.643689 0.276083 0.126438
C30   C     C_R   0.352584 0.690656 0.319525 -0.102143
O11   O     O_R   0.229200 0.915950 0.913350 -0.542093
O12   O     O_R   0.559090 0.905000 0.086080 -0.542757
O13   O     O_R   0.729280 0.083880 0.086680 -0.545282
C31   C     C_R   0.390422 0.883236 0.115236 0.690878
O14   O     O_R   0.558920 0.904980 0.913920 -0.498767
O15   O     O_R   0.729110 0.083860 0.913300 -0.542333
C32   C     C_R   0.390146 0.882488 0.885108 0.741397
O16   O     O_R   0.229360 0.915970 0.086730 -0.542993
O17   O     O_3   0.395680 0.058580 0.000030 -0.380868
V3    V     V_3+5 0.670570 0.989070 0.999990 1.473040
O18   O     O_R   0.058820 0.094950 0.913870 -0.543163
C33   C     C_R   0.889591 0.116865 0.884969 0.697931
O19   O     O_R   0.058990 0.094970 0.086020 -0.547595
C34   C     C_R   0.889922 0.117125 0.115025 0.670919
V4    V     V_3+5 0.170560 0.010930 0.999930 1.418246
O20   O     O_3   0.895590 0.941310 0.999960 -0.351089
F1    F     F_    0.718256 0.777377 0.827009 -0.706492
C35   C     C_3   0.030322 0.762918 0.365017 -0.322785
C36   C     C_3   0.904534 0.849191 0.357512 -0.799379
H17   H     H_    0.993686 0.912189 0.363915 0.227496
H18   H     H_    0.826264 0.850024 0.297351 0.230056
H19   H     H_    0.795125 0.849113 0.407841 0.225701
H20   H     H_    0.936006 0.702256 0.355168 0.195847
H21   H     H_    0.084810 0.761643 0.429978 0.178464

loop_
_geom_bond_atom_site_label_1
_geom_bond_atom_site_label_2
_ccdc_geom_bond_type
O14   C32   A    
V4    O20   S    
C4    C6    S    
C15   C16   A    
C1    O6    A    
C23   C24   A    
C36   H17   S    
C29   H16   S    
C11   H4    S    
C5    C12   S    
O15   V3    S    
C16   H9    S    
C7    C8    A    
O5    C3    A    
C17   H10   S    
V3    O20   S    
V2    O10   S    
C13   C18   A    
O12   C31   A    
C6    C7    A    
C19   H11   S    
C28   H15   S    
O8    V2    S    
C13   H7    S    
C9    C10   A    
C13   C14   A    
O18   V4    S    
O17   V4    S    
O15   C33   A    
O7    V1    S    
O11   V4    S    
C2    C30   S    
C8    H2    S    
C19   C20   A    
C9    C33   S    
C19   C24   A    
C22   F1    S    
C14   H8    S    
C36   H18   S    
C28   C29   A    
C5    C10   A    
C31   O16   A    
C26   H14   S    
C25   C30   A    
C10   C11   S    
C35   H21   S    
O19   V4    S    
C25   C26   A    
C11   C12   S    
C27   C28   A    
O16   V4    S    
O17   V3    S    
C26   C27   A    
O2    C1    A    
C20   H12   S    
C25   C35   S    
C27   C31   S    
C23   H13   S    
C5    C6    A    
C35   C36   S    
C3    C15   S    
C20   C21   A    
O3    C4    A    
O1    V2    S    
O13   C34   A    
C12   H6    S    
O6    V2    S    
O9    V2    S    
C21   C32   S    
O2    V1    S    
O4    C2    A    
C36   H19   S    
C22   C23   A    
C18   C34   S    
O1    C2    A    
C35   H20   S    
O5    V1    S    
O8    C3    A    
C11   H3    S    
O14   V3    S    
C1    C24   S    
C7    H1    S    
C8    C9    A    
O7    V2    S    
O4    V1    S    
O3    V1    S    
V1    O10   S    
O11   C32   A    
C17   C18   A    
O13   V3    S    
C16   C17   A    
C14   C15   A    
C29   C30   A    
O18   C33   A    
C21   C22   A    
O19   C34   A    
O12   V3    S    
C12   H5    S    
O9    C4    A    
