data_mof_unit_42151.cif
_audit_creation_date              2012-12-10T16:54:02-0500
_audit_creation_method            fapswitch 2.2
_symmetry_space_group_name_H-M    P1
_symmetry_Int_Tables_number       1
_space_group_crystal_system       triclinic
_cell_length_a                    9.704485
_cell_length_b                    10.955373
_cell_length_c                    13.378028
_cell_angle_alpha                 90.416188
_cell_angle_beta                  71.946066
_cell_angle_gamma                 90.670077
_cell_volume                      1352.17269176

loop_
_atom_site_label
_atom_site_type_symbol
_atom_type_description
_atom_site_fract_x
_atom_site_fract_y
_atom_site_fract_z
_atom_type_partial_charge
C1    C     C_R   0.501742 0.734637 0.499166 0.882952
C2    C     C_R   0.427519 0.515566 0.982059 0.110746
C3    C     C_R   0.458005 0.548492 0.875396 0.064659
C4    C     C_R   0.532269 0.543780 0.033643 0.077474
C5    C     C_R   0.655216 0.617178 0.982216 0.030367
C6    C     C_R   0.665298 0.671907 0.884813 -0.048792
C7    C     C_R   0.569950 0.633119 0.831164 -0.220914
C8    C     C_R   0.520409 0.497787 0.133726 -0.194871
C9    C     C_R   0.755360 0.582957 0.126939 0.018190
C10   C     C_R   0.371814 0.500199 0.816337 -0.095728
C11   C     C_2   0.607336 0.068920 0.497433 -0.260818
C12   C     C_R   0.421562 0.502761 0.700543 0.797841
C13   C     C_2   0.509347 0.135574 0.469792 -0.179946
C14   C     C_2   0.623244 0.937265 0.479285 0.048540
C15   C     C_2   0.502165 0.866692 0.505719 -0.348754
C16   C     C_2   0.058966 0.587199 0.541328 0.051027
C17   C     C_2   0.912256 0.594004 0.525718 -0.114081
C18   C     C_R   0.501402 0.265562 0.494188 0.800420
C19   C     C_R   0.578802 0.503408 0.299085 0.805415
C20   C     C_R   0.767877 0.629878 0.027221 -0.055069
C21   C     C_R   0.624348 0.523494 0.183991 -0.130146
C22   C     C_R   0.242993 0.437273 0.867513 -0.168180
C23   C     C_R   0.201998 0.415983 0.975659 -0.051247
C24   C     C_R   0.294471 0.454707 0.032262 -0.231594
Cu1   Cu    Cu3+1 0.361370 0.499980 0.499980 1.018560
Cu2   Cu    Cu3+1 0.638630 0.500020 0.500020 0.986046
H1    H     H_    0.396488 0.908302 0.538635 0.153441
H2    H     H_    0.126183 0.439006 0.452082 0.201593
H3    H     H_    0.854449 0.679456 0.543913 0.191809
H4    H     H_    0.896720 0.418149 0.493080 0.214387
H5    H     H_    0.869289 0.672484 0.982912 0.207725
H6    H     H_    0.429763 0.441110 0.175536 0.152864
H7    H     H_    0.176074 0.401314 0.822368 0.187168
H8    H     H_    0.257154 0.441822 0.116076 0.126809
H9    H     H_    0.579057 0.674545 0.756137 0.181180
H10   H     H_    0.678540 0.112149 0.536244 0.202161
N1    N     N_2   0.152660 0.501340 0.501130 -0.288308
N2    N     N_2   0.846520 0.501370 0.501160 -0.284286
O1    O     O_R   0.382960 0.678040 0.499980 -0.572714
O2    O     O_R   0.617100 0.678080 0.500020 -0.572320
O3    O     O_R   0.325800 0.499940 0.650950 -0.521834
O4    O     O_R   0.559930 0.499980 0.650990 -0.574273
O5    O     O_R   0.382900 0.321920 0.499980 -0.544032
O6    O     O_R   0.617040 0.321960 0.500020 -0.574439
O7    O     O_R   0.440070 0.500020 0.349010 -0.577479
O8    O     O_R   0.674200 0.500060 0.349050 -0.580713
C25   C     C_2   0.882248 0.595417 0.166359 0.414242
H11   H     H_    0.898415 0.533029 0.223873 0.109437
O9    O     O_2   0.975023 0.673691 0.131251 -0.532579
C26   C     C_2   0.423628 0.086775 0.402524 0.854360
O10   O     O_2   0.299481 0.120923 0.416644 -0.565363
O11   O     O_R   0.486493 0.004271 0.321298 -0.722768
H12   H     H_    0.417720 0.978175 0.281315 0.346476
C27   C     C_2   0.772925 0.891310 0.432103 0.915354
O12   O     O_2   0.871435 0.933321 0.461250 -0.594148
O13   O     O_R   0.802988 0.805252 0.350757 -0.719788
H13   H     H_    0.908983 0.781822 0.325792 0.346328
C28   C     C_2   0.091860 0.688154 0.604006 0.510334
H14   H     H_    0.070209 0.781348 0.586797 0.083219
O14   O     O_2   0.132960 0.668607 0.679650 -0.522858
C29   C     C_2   0.767724 0.774174 0.839291 0.858260
O15   O     O_2   0.806431 0.792325 0.744518 -0.623196
O16   O     O_R   0.812760 0.854687 0.904883 -0.732651
H15   H     H_    0.880255 0.921168 0.864339 0.356540
C30   C     C_2   0.062646 0.351461 0.028300 0.862123
O17   O     O_2   0.962927 0.358032 0.991013 -0.548560
O18   O     O_R   0.041748 0.282049 0.119343 -0.716331
H16   H     H_    0.133678 0.266809 0.137657 0.300730

loop_
_geom_bond_atom_site_label_1
_geom_bond_atom_site_label_2
_ccdc_geom_bond_type
Cu1   N1    S    
C26   O11   S    
C23   C24   A    
C19   O7    A    
C6    C7    A    
C1    C15   S    
C18   O6    A    
C5    C20   A    
C17   H3    S    
C9    C20   A    
C15   H1    S    
C25   H11   S    
C14   C15   D    
C16   N1    D    
C4    C8    A    
C24   H8    S    
Cu2   O2    S    
Cu1   O5    S    
C2    C3    A    
C28   H14   S    
C19   O8    A    
Cu2   O6    S    
C25   O9    D    
C3    C10   A    
C16   C28   S    
C18   O5    A    
Cu1   O1    S    
C11   C13   D    
C9    C21   A    
C23   C30   S    
C12   O3    A    
C10   C12   S    
C13   C18   S    
O18   H16   S    
C5    C6    A    
C2    C4    A    
H2    N1    S    
C6    C29   S    
C11   H10   S    
C14   C27   S    
C9    C25   S    
C3    C7    A    
C17   N2    D    
C2    C24   A    
C29   O15   D    
C11   C14   S    
C27   O13   S    
H4    N2    S    
C1    O1    A    
C28   O14   D    
C13   C26   S    
C8    H6    S    
Cu1   O7    S    
O13   H13   S    
Cu2   O4    S    
C30   O17   D    
Cu1   O3    S    
C29   O16   S    
C22   H7    S    
Cu2   O8    S    
C22   C23   A    
Cu2   N2    S    
C12   O4    A    
C26   O10   D    
C1    O2    A    
C19   C21   S    
Cu1   Cu2   S    
C27   O12   D    
C7    H9    S    
C10   C22   A    
O16   H15   S    
C16   C17   S    
O11   H12   S    
C4    C5    A    
C30   O18   S    
C20   H5    S    
C8    C21   A    
