data_mof_unit_10905.cif
_audit_creation_date              2012-12-11T13:59:55-0500
_audit_creation_method            fapswitch 2.2
_symmetry_space_group_name_H-M    P1
_symmetry_Int_Tables_number       1
_space_group_crystal_system       triclinic
_cell_length_a                    11.272592
_cell_length_b                    11.280776
_cell_length_c                    18.866073
_cell_angle_alpha                 89.860002
_cell_angle_beta                  90.28119
_cell_angle_gamma                 120.064147
_cell_volume                      2076.29276414

loop_
_atom_site_label
_atom_site_type_symbol
_atom_type_description
_atom_site_fract_x
_atom_site_fract_y
_atom_site_fract_z
_atom_type_partial_charge
C1    C     C_R   0.543582 0.477568 0.852918 0.548667
C2    C     C_R   0.478161 0.546525 0.353414 0.554713
C3    C     C_R   0.068709 0.521989 0.353377 0.556823
C4    C     C_R   0.458166 0.938278 0.350847 0.557944
C5    C     C_2   0.013393 0.509012 0.583542 -0.105054
C6    C     C_2   0.490015 0.504734 0.583623 -0.108946
C7    C     C_2   0.506278 0.026016 0.573172 -0.092273
C8    C     C_2   0.509211 0.013201 0.416693 -0.108339
C9    C     C_2   0.492786 0.520081 0.427220 -0.100868
C10   C     C_2   0.027039 0.507106 0.426971 -0.094205
C11   C     C_2   0.079881 0.451878 0.471601 -0.150000
C12   C     C_R   0.522478 0.065771 0.852857 0.550270
C13   C     C_2   0.546749 0.628307 0.471555 -0.151202
C14   C     C_2   0.430046 0.047161 0.453520 -0.163299
C15   C     C_2   0.451528 0.079288 0.528533 -0.150035
C16   C     C_2   0.568761 0.618029 0.546604 -0.162623
C17   C     C_2   0.047261 0.429929 0.546531 -0.162702
C18   C     C_2   0.004832 0.505912 0.919484 -0.104771
C19   C     C_2   0.494440 0.498643 0.919439 -0.105316
C20   C     C_2   0.501796 0.995627 0.919473 -0.104926
C21   C     C_2   0.505594 0.004565 0.080542 -0.105105
C22   C     C_2   0.498264 0.494173 0.080548 -0.105258
C23   C     C_R   0.934296 0.456539 0.852867 0.548415
C24   C     C_2   0.995252 0.501454 0.080511 -0.104705
C25   C     C_2   0.033998 0.604439 0.033634 -0.033023
C26   C     C_2   0.395062 0.428979 0.033595 -0.032764
C27   C     C_2   0.571494 0.967385 0.034100 -0.032341
C28   C     C_2   0.604903 0.034420 0.966548 -0.032940
C29   C     C_2   0.428468 0.395466 0.966075 -0.032286
C30   C     C_2   0.966831 0.570896 0.966053 -0.032537
C31   C     C_3   0.149665 0.749581 0.043424 -0.344414
C32   C     C_3   0.249419 0.397708 0.043388 -0.344886
C33   C     C_3   0.602713 0.853041 0.044176 -0.343880
C34   C     C_R   0.477472 0.543442 0.147102 0.550719
C35   C     C_3   0.750241 0.149692 0.956856 -0.344778
C36   C     C_3   0.396637 0.249727 0.956090 -0.344268
C37   C     C_3   0.851517 0.600825 0.956087 -0.343778
C38   C     C_R   0.065635 0.522333 0.147160 0.550436
C39   C     C_R   0.456408 0.934119 0.147095 0.548826
C40   C     C_R   0.541699 0.480367 0.649239 0.558519
C41   C     C_R   0.521623 0.068144 0.646737 0.556819
C42   C     C_R   0.938234 0.458020 0.649208 0.560512
Cr1   Cr    Cr6+3 0.464030 0.233680 0.750360 1.008634
Cr2   Cr    Cr6+3 0.766320 0.230350 0.750360 1.012095
Cr3   Cr    Cr6+3 0.769650 0.535970 0.750360 1.012293
Cr4   Cr    Cr6+3 0.233680 0.464030 0.249640 1.009988
Cr5   Cr    Cr6+3 0.230350 0.766320 0.249640 1.013935
Cr6   Cr    Cr6+3 0.535970 0.769650 0.249640 1.010415
H1    H     H_    0.143515 0.411949 0.451904 0.155316
H2    H     H_    0.547708 0.962845 0.555116 0.089413
H3    H     H_    0.396068 0.421704 0.561242 0.096537
H4    H     H_    0.024441 0.602873 0.561211 0.109108
H5    H     H_    0.167232 0.810472 0.994231 0.109808
H6    H     H_    0.124274 0.801110 0.085797 0.170985
H7    H     H_    0.245611 0.748830 0.055607 0.140574
H8    H     H_    0.187982 0.353385 0.994341 0.110076
H9    H     H_    0.198989 0.321006 0.086135 0.170177
H10   H     H_    0.249166 0.493860 0.055113 0.140979
H11   H     H_    0.647058 0.836352 0.995305 0.109670
H12   H     H_    0.585866 0.731736 0.451520 0.153936
H13   H     H_    0.679458 0.879120 0.087113 0.170637
H14   H     H_    0.506413 0.756389 0.055685 0.141299
H15   H     H_    0.811467 0.167266 0.006059 0.110099
H16   H     H_    0.801354 0.123973 0.914417 0.170383
H17   H     H_    0.749745 0.245690 0.944759 0.140786
H18   H     H_    0.351982 0.188397 0.004972 0.109966
H19   H     H_    0.319966 0.199509 0.913100 0.170009
H20   H     H_    0.492702 0.249061 0.944655 0.141550
H21   H     H_    0.834302 0.644414 0.005128 0.109679
H22   H     H_    0.877037 0.677730 0.913480 0.170877
H23   H     H_    0.340461 0.043602 0.429539 0.154432
H24   H     H_    0.755298 0.504177 0.944180 0.141103
H25   H     H_    0.917574 0.397594 0.066286 0.083692
H26   H     H_    0.602329 0.521419 0.066419 0.084022
H27   H     H_    0.478108 0.081131 0.066037 0.083926
H28   H     H_    0.397862 0.918142 0.933538 0.083713
H29   H     H_    0.522193 0.602757 0.933786 0.083958
H30   H     H_    0.082114 0.479270 0.933919 0.083615
H31   H     H_    0.411894 0.143185 0.548219 0.152027
H32   H     H_    0.658602 0.704072 0.570334 0.154219
H33   H     H_    0.043255 0.340116 0.570256 0.153493
H34   H     H_    0.964203 0.548892 0.445039 0.096584
H35   H     H_    0.451845 0.415549 0.445605 0.086964
H36   H     H_    0.602871 0.023769 0.439297 0.103312
O1    O     O_R   0.434100 0.092480 0.829780 -0.532209
O2    O     O_R   0.362730 0.477510 0.175360 -0.500649
O3    O     O_R   0.114780 0.637270 0.175360 -0.500945
O4    O     O_R   0.522490 0.885220 0.175360 -0.501424
O5    O     O_R   0.432250 0.092620 0.670380 -0.516436
O6    O     O_R   0.907380 0.339630 0.670380 -0.514684
O7    O     O_R   0.660370 0.567750 0.670380 -0.512780
O8    O     O_R   0.092620 0.432250 0.329620 -0.516709
O9    O     O_R   0.339630 0.907380 0.329620 -0.512692
O10   O     O_R   0.567750 0.660370 0.329620 -0.513762
O11   O     O_R   0.475790 0.362860 0.676880 -0.506559
O12   O     O_R   0.907520 0.341620 0.829780 -0.533921
O13   O     O_R   0.637140 0.112930 0.676880 -0.496260
O14   O     O_R   0.887070 0.524210 0.676880 -0.498897
O15   O     O_R   0.362860 0.475790 0.323120 -0.503012
O16   O     O_R   0.112930 0.637140 0.323120 -0.494909
O17   O     O_R   0.524210 0.887070 0.323120 -0.505880
O18   O     O_3   0.666667 0.333333 0.749450 -0.252448
O19   O     O_3   0.333333 0.666667 0.250550 -0.254316
O20   O     O_R   0.658380 0.565900 0.829780 -0.534064
O21   O     O_R   0.092480 0.434100 0.170220 -0.531919
O22   O     O_R   0.341620 0.907520 0.170220 -0.533794
O23   O     O_R   0.565900 0.658380 0.170220 -0.532056
O24   O     O_R   0.477510 0.362730 0.824640 -0.501788
O25   O     O_R   0.637270 0.114780 0.824640 -0.501286
O26   O     O_R   0.885220 0.522490 0.824640 -0.502021

loop_
_geom_bond_atom_site_label_1
_geom_bond_atom_site_label_2
_ccdc_geom_bond_type
C25   C31   S    
C39   O22   A    
C41   O5    A    
C5    C42   S    
C26   C32   S    
C37   H21   S    
C14   H23   S    
C32   H10   S    
C4    C8    S    
C36   H19   S    
C13   H12   S    
C27   C33   S    
C29   C36   S    
Cr1   O5    S    
Cr6   O10   S    
C12   O1    A    
Cr2   O12   S    
C34   O23   A    
C39   O4    A    
Cr3   O14   S    
C42   O14   A    
C36   H18   S    
C24   H25   S    
Cr6   O23   S    
C5    C17   D    
C35   H17   S    
Cr4   O21   S    
C40   O7    A    
C23   O12   A    
C20   H28   S    
C34   O2    A    
C19   H29   S    
C9    C13   D    
C16   H32   S    
C3    O16   A    
C15   H31   S    
C28   C35   S    
C33   H14   S    
Cr1   O11   S    
Cr6   O4    S    
C5    H4    S    
C35   H16   S    
C18   C30   D    
C6    H3    S    
C17   H33   S    
Cr2   O25   S    
C7    C15   D    
C21   C27   D    
C33   H11   S    
C37   H22   S    
C32   H9    S    
C12   O25   A    
C22   C34   S    
C1    C19   S    
Cr5   O19   S    
C18   C23   S    
Cr1   O1    S    
C2    O10   A    
C24   C25   D    
Cr3   O18   S    
Cr2   O18   S    
Cr3   O26   S    
C20   C28   D    
Cr6   O19   S    
C10   H34   S    
Cr5   O16   S    
C30   C37   S    
C3    O8    A    
C42   O6    A    
Cr5   O3    S    
C11   H1    S    
Cr3   O20   S    
Cr2   O13   S    
C24   C38   S    
C21   C39   S    
C18   H30   S    
Cr5   O22   S    
C4    O17   A    
C12   C20   S    
Cr5   O9    S    
C31   H5    S    
C1    O20   A    
C9    H35   S    
C2    O15   A    
C6    C40   S    
C13   C16   S    
C22   H26   S    
C40   O11   A    
C19   C29   D    
Cr2   O6    S    
C25   C30   S    
C23   O26   A    
C11   C17   S    
C8    C14   D    
C8    H36   S    
C7    H2    S    
C36   H20   S    
Cr4   O19   S    
C21   H27   S    
C38   O3    A    
Cr4   O15   S    
Cr1   O18   S    
C3    C10   S    
C38   O21   A    
Cr6   O17   S    
C41   O13   A    
Cr1   O24   S    
C7    C41   S    
C31   H6    S    
Cr3   O7    S    
C10   C11   D    
C1    O24   A    
C6    C16   D    
C4    O9    A    
Cr4   O8    S    
C26   C29   S    
C33   H13   S    
C22   C26   D    
C37   H24   S    
C27   C28   S    
C14   C15   S    
C35   H15   S    
C31   H7    S    
C2    C9    S    
C32   H8    S    
Cr4   O2    S    
