data_mof_unit_9959.cif
_audit_creation_date              2012-12-11T17:01:35-0500
_audit_creation_method            fapswitch 2.2
_symmetry_space_group_name_H-M    P1
_symmetry_Int_Tables_number       1
_space_group_crystal_system       triclinic
_cell_length_a                    14.969626
_cell_length_b                    14.769584
_cell_length_c                    14.881493
_cell_angle_alpha                 109.280839
_cell_angle_beta                  108.551325
_cell_angle_gamma                 109.813271
_cell_volume                      2556.31362601

loop_
_atom_site_label
_atom_site_type_symbol
_atom_type_description
_atom_site_fract_x
_atom_site_fract_y
_atom_site_fract_z
_atom_type_partial_charge
C1    C     C_R   0.011385 0.807397 0.106567 0.188917
C2    C     C_R   0.695681 0.138220 0.699373 0.105150
C3    C     C_R   0.948215 0.505284 0.678242 0.095448
C4    C     C_R   0.672908 0.498239 0.961000 0.067032
C5    C     C_R   0.995805 0.591262 0.299704 -0.092522
C6    C     C_R   0.199992 0.412801 0.887070 0.127850
C7    C     C_R   0.313676 0.752973 0.220962 -0.042623
C8    C     C_R   0.972261 0.246496 0.062221 -0.114536
C9    C     C_R   0.061148 0.243721 0.966522 -0.068058
C10   C     C_R   0.220656 0.748762 0.313189 -0.055651
C11   C     C_R   0.909487 0.408807 0.212754 -0.116448
C12   C     C_R   0.788151 0.197690 0.698002 -0.070098
C13   C     C_R   0.287592 0.595560 0.978316 0.169023
C14   C     C_R   0.936392 0.500722 0.305152 0.133270
C15   C     C_R   0.287618 0.506924 0.906797 0.008582
C16   C     C_R   0.322913 0.780264 0.322663 0.080440
C17   C     C_R   0.046952 0.217203 0.043795 0.105339
C18   C     C_3   0.469472 0.383119 0.857097 -0.363086
C19   C     C_3   0.367044 0.392767 0.835052 -0.351987
C20   C     C_3   0.568352 0.539758 0.049440 0.101494
C21   C     C_3   0.561097 0.575824 0.890169 -0.031613
C22   C     C_3   0.569836 0.498556 0.938809 0.062524
C23   C     C_R   0.024928 0.594593 0.780448 -0.048448
C24   C     C_3   0.392690 0.509844 0.915497 0.098337
C25   C     C_3   0.459016 0.531992 0.031590 -0.460763
C26   C     C_3   0.467419 0.599251 0.895443 0.311758
C27   C     C_R   0.579483 0.940539 0.580888 0.062548
C28   C     C_R   0.597610 0.046902 0.609004 -0.071491
C29   C     C_R   0.515743 0.065003 0.553655 0.180887
C30   C     C_R   0.425765 0.976584 0.455883 0.204278
C31   C     C_R   0.417157 0.871140 0.419358 -0.095146
C32   C     C_R   0.490649 0.853181 0.485751 0.022037
C33   C     C_3   0.554323 0.796380 0.465717 0.375319
C34   C     C_R   0.684948 0.406365 0.940529 -0.023821
C35   C     C_3   0.651480 0.892656 0.573718 -0.511232
C36   C     C_R   0.970572 0.607739 0.490996 -0.043137
C37   C     C_R   0.906030 0.507387 0.391354 -0.058693
C38   C     C_R   0.822417 0.416709 0.383086 0.173491
C39   C     C_R   0.821035 0.421569 0.479050 0.155223
C40   C     C_R   0.903125 0.514540 0.580595 -0.072758
C41   C     C_R   0.965821 0.611729 0.584219 0.020161
C42   C     C_3   0.946817 0.708704 0.606418 -0.025135
C43   C     C_3   0.967685 0.714026 0.514814 0.292245
C44   C     C_R   0.062030 0.039808 0.169080 0.138065
C45   C     C_R   0.935728 0.410743 0.686459 -0.050915
C46   C     C_R   0.120633 0.997230 0.129717 -0.058600
C47   C     C_R   0.194487 0.062526 0.106726 0.191489
C48   C     C_R   0.180294 0.145569 0.087194 0.156224
C49   C     C_R   0.092422 0.160089 0.091414 -0.083636
C50   C     C_R   0.046098 0.119620 0.147024 0.109283
C51   C     C_3   0.076975 0.193167 0.260891 -0.501558
C52   C     C_3   0.100654 0.112532 0.287869 -0.324143
C53   C     C_R   0.774919 0.591447 0.031564 -0.091338
C54   C     C_R   0.700226 0.198197 0.793802 -0.098594
C55   C     C_R   0.097623 0.808659 0.010261 -0.112674
C56   C     C_R   0.076947 0.876103 0.082101 0.051933
H1    H     H_    0.639474 0.654165 0.939177 0.125137
H2    H     H_    0.860498 0.681504 0.585833 0.156869
H3    H     H_    0.188569 0.146307 0.340870 0.232681
H4    H     H_    0.886964 0.326126 0.622055 0.136884
N1    N     N_R   0.995640 0.706130 0.053910 -0.070443
N2    N     N_R   0.153680 0.443190 0.946090 -0.074880
N3    N     N_R   0.208920 0.706140 0.152110 -0.047995
N4    N     N_R   0.947120 0.293870 0.002870 -0.054772
N5    N     N_R   0.004360 0.293870 0.946090 -0.049750
N6    N     N_R   0.151690 0.706140 0.208890 -0.045930
N7    N     N_R   0.945990 0.443210 0.152110 -0.054549
N8    N     N_R   0.210060 0.556810 0.002870 -0.086475
N9    N     N_R   0.848310 0.293860 0.791110 -0.046317
N10   N     N_R   0.054010 0.556790 0.847890 -0.050103
N11   N     N_R   0.789940 0.443190 0.997130 -0.049438
N12   N     N_R   0.997630 0.443170 0.791110 -0.047678
N13   N     N_R   0.846320 0.556810 0.053910 -0.036053
N14   N     N_R   0.791080 0.293860 0.847890 -0.050168
N15   N     N_R   0.052880 0.706130 0.997130 -0.063334
N16   N     N_R   0.002370 0.556830 0.208890 -0.052977
Ni1   Ni    Ni4+2 0.999010 0.630300 0.130220 0.272421
Ni2   Ni    Ni4+2 0.000990 0.369700 0.869780 0.258119
Ni3   Ni    Ni4+2 0.130280 0.630280 0.000000 0.269582
Ni4   Ni    Ni4+2 0.869720 0.369720 0.000000 0.242826
I1    I     I_    0.995564 0.852087 0.249469 -0.374920
I2    I     I_    0.098008 0.264704 0.733376 -0.398988
H5    H     H_    0.377853 0.773316 0.200147 0.164788
H6    H     H_    0.940554 0.235096 0.115700 0.115690
H7    H     H_    0.107235 0.227418 0.927026 0.162898
H8    H     H_    0.200799 0.766237 0.378418 0.144919
H9    H     H_    0.859313 0.323259 0.185633 0.132686
I3    I     I_    0.307812 0.739877 0.965484 -0.293282
H10   H     H_    0.467832 0.325767 0.890547 0.205475
H11   H     H_    0.470115 0.345565 0.779529 0.223488
H12   H     H_    0.324827 0.374226 0.749482 0.227439
H13   H     H_    0.812732 0.169259 0.638235 0.132573
H14   H     H_    0.315058 0.327747 0.845772 0.216222
I4    I     I_    0.600062 0.452025 0.135243 -0.259651
H15   H     H_    0.411461 0.464421 0.042822 0.232016
I5    I     I_    0.563457 0.523216 0.736269 -0.239818
I6    I     I_    0.369280 0.599710 0.752164 -0.218757
I7    I     I_    0.559988 0.770830 0.028964 -0.287470
H16   H     H_    0.633606 0.627384 0.105805 0.153545
H17   H     H_    0.473053 0.609086 0.094683 0.209758
I8    I     I_    0.529147 0.225119 0.615116 -0.289092
H18   H     H_    0.056171 0.680302 0.804311 0.150237
I9    I     I_    0.310918 0.006539 0.359781 -0.294466
I10   I     I_    0.494060 0.642292 0.465077 -0.219789
I11   I     I_    0.584360 0.785599 0.332023 -0.317855
H19   H     H_    0.675359 0.870650 0.638684 0.220173
H20   H     H_    0.720319 0.943875 0.566771 0.217682
I12   I     I_    0.692239 0.275533 0.230443 -0.214342
I13   I     I_    0.689873 0.296197 0.471873 -0.221406
I14   I     I_    0.050821 0.852740 0.766446 -0.313667
I15   I     I_    0.836624 0.708383 0.395089 -0.244850
H21   H     H_    0.622553 0.320672 0.893495 0.110719
I16   I     I_    0.122985 0.846618 0.561650 -0.240121
I17   I     I_    0.334379 0.047257 0.118066 -0.142860
I18   I     I_    0.300753 0.257590 0.070920 -0.276967
H22   H     H_    0.150446 0.275307 0.300636 0.230024
H23   H     H_    0.006343 0.196261 0.268357 0.209496
H24   H     H_    0.047761 0.076314 0.318678 0.233316
H25   H     H_    0.793287 0.676198 0.065527 0.135535
H26   H     H_    0.644456 0.171468 0.823300 0.123936
H27   H     H_    0.153246 0.835434 0.981267 0.176687
H28   H     H_    0.015561 0.674658 0.346708 0.155700

loop_
_geom_bond_atom_site_label_1
_geom_bond_atom_site_label_2
_ccdc_geom_bond_type
C47   I17   S    
C7    H5    S    
C21   C26   S    
C55   H27   S    
C45   H4    S    
C6    I2    S    
C54   H26   S    
C4    C53   A    
C33   I10   S    
C34   H21   S    
C41   C42   S    
C3    C23   A    
C12   N9    A    
C2    C12   A    
C42   H2    S    
C36   C41   A    
N3    Ni3   S    
N1    N15   A    
C16   C31   S    
C28   C29   A    
C29   C30   A    
C36   C37   A    
C1    C56   A    
C24   C26   S    
C38   C39   A    
C11   C14   A    
C23   H18   S    
C20   C25   S    
C1    I1    S    
C18   C19   S    
N12   Ni2   S    
C9    H7    S    
C6    C15   A    
C54   N14   A    
C10   H8    S    
C31   C32   A    
N1    Ni1   S    
C30   I9    S    
C19   H14   S    
C12   H13   S    
C55   N15   A    
C44   C52   S    
N8    Ni3   S    
C27   C32   A    
N3    N6    A    
C8    H6    S    
C21   C22   S    
C45   N12   A    
N4    Ni4   S    
C23   N10   A    
N9    Ni2   S    
C43   I15   S    
N11   Ni4   S    
C11   N7    A    
C10   N6    A    
C4    C34   A    
N10   N12   A    
C51   C52   S    
C18   H11   S    
C35   H20   S    
C33   I11   S    
C24   C25   S    
C2    C54   A    
C17   C49   S    
C39   C40   A    
N11   N13   A    
C2    C28   S    
C44   C46   A    
C27   C35   S    
C5    H28   S    
C3    C45   A    
C21   H1    S    
C37   C38   A    
C52   H3    S    
C4    C22   S    
C25   H17   S    
C47   C48   A    
C55   C56   A    
C50   C51   S    
C29   I8    S    
N9    N14   A    
N16   Ni1   S    
C7    N3    A    
C5    C14   A    
C26   I7    S    
C48   I18   S    
C9    C17   A    
C40   C41   A    
C8    N4    A    
C3    C40   S    
C25   H15   S    
C13   C15   A    
C51   H23   S    
C42   C43   S    
C44   C50   A    
N6    Ni1   S    
C20   I4    S    
C46   C47   A    
C15   C24   S    
N5    Ni2   S    
N10   Ni3   S    
C18   C22   S    
C18   H10   S    
C53   N13   A    
N2    Ni2   S    
C7    C16   A    
N7    Ni4   S    
C8    C17   A    
C20   C22   S    
C1    N1    A    
C11   H9    S    
C53   H25   S    
C21   I5    S    
C51   H22   S    
N2    N8    A    
C32   C33   S    
C6    N2    A    
C5    N16   A    
C19   C24   S    
C42   I14   S    
C35   H19   S    
C10   C16   A    
N4    N5    A    
C14   C37   S    
C30   C31   A    
C20   H16   S    
C48   C49   A    
C13   I3    S    
C33   C35   S    
C38   I12   S    
C9    N5    A    
C19   H12   S    
C26   I6    S    
C39   I13   S    
C49   C50   A    
C46   C56   S    
C27   C28   A    
N13   Ni1   S    
C36   C43   S    
N14   Ni4   S    
N7    N16   A    
N15   Ni3   S    
C34   N11   A    
C43   I16   S    
C13   N8    A    
C52   H24   S    
