data_mof_unit_25336.cif
_audit_creation_date              2012-12-10T17:49:39-0500
_audit_creation_method            fapswitch 2.2
_symmetry_space_group_name_H-M    P1
_symmetry_Int_Tables_number       1
_space_group_crystal_system       triclinic
_cell_length_a                    10.50294
_cell_length_b                    10.65044
_cell_length_c                    9.937482
_cell_angle_alpha                 89.856193
_cell_angle_beta                  89.812893
_cell_angle_gamma                 91.414054
_cell_volume                      1111.26782065

loop_
_atom_site_label
_atom_site_type_symbol
_atom_type_description
_atom_site_fract_x
_atom_site_fract_y
_atom_site_fract_z
_atom_type_partial_charge
C1    C     C_R   0.504047 0.260724 0.500302 0.848871
C2    C     C_3   0.960354 0.501936 0.371507 -0.127771
C3    C     C_3   0.040520 0.397870 0.435039 -0.182791
C4    C     C_3   0.122704 0.500445 0.500892 0.034749
C5    C     C_R   0.703276 0.134577 0.648757 -0.186757
C6    C     C_R   0.796617 0.070939 0.719111 -0.142610
C7    C     C_R   0.798203 0.940527 0.716295 -0.146171
C8    C     C_R   0.706015 0.873340 0.643787 -0.195990
C9    C     C_R   0.608924 0.936292 0.574074 0.102820
C10   C     C_R   0.608005 0.067934 0.575734 0.103326
C11   C     C_R   0.513165 0.128492 0.500779 -0.092198
C12   C     C_R   0.257624 0.500134 0.500273 0.848228
C13   C     C_R   0.424389 0.062436 0.423097 -0.216844
C14   C     C_R   0.424598 0.934184 0.422578 -0.206743
C15   C     C_R   0.513929 0.871903 0.499287 -0.103219
C16   C     C_R   0.332397 0.336652 0.140625 -0.150742
C17   C     C_R   0.249394 0.256691 0.071007 -0.203394
C18   C     C_R   0.249369 0.256755 0.931705 -0.194713
C19   C     C_R   0.332441 0.336706 0.861156 -0.154854
C20   C     C_R   0.417446 0.419566 0.928221 0.165456
C21   C     C_R   0.417446 0.419589 0.072667 0.172858
C22   C     C_R   0.579091 0.576811 0.070925 -0.117691
C23   C     C_R   0.504228 0.739379 0.499817 0.866543
C24   C     C_R   0.579061 0.576788 0.927976 -0.111087
C25   C     C_R   0.742621 0.500164 0.499697 0.837941
C26   C     C_3   0.040581 0.498770 0.628103 -0.142615
C27   C     C_3   0.955697 0.396188 0.562156 -0.184024
C28   C     C_3   0.877994 0.500200 0.498873 0.036380
C29   C     C_3   0.960494 0.602843 0.564614 -0.183132
C30   C     C_3   0.045424 0.604565 0.437480 -0.171347
H1    H     H_    0.917486 0.310927 0.613480 0.126974
H2    H     H_    0.871735 0.891273 0.769449 0.127642
H3    H     H_    0.713114 0.772404 0.641506 0.140354
H4    H     H_    0.352889 0.883095 0.364821 0.152269
H5    H     H_    0.643803 0.639672 0.124030 0.145842
H6    H     H_    0.327141 0.330490 0.247327 0.195516
H7    H     H_    0.184774 0.194245 0.877767 0.143880
H8    H     H_    0.327328 0.330676 0.754458 0.203693
H9    H     H_    0.643729 0.639665 0.874031 0.143519
H10   H     H_    0.077058 0.497258 0.732845 0.148174
H11   H     H_    0.924734 0.686399 0.617729 0.124927
H12   H     H_    0.086863 0.689310 0.386970 0.130606
H13   H     H_    0.923947 0.503198 0.266749 0.143420
H14   H     H_    0.077946 0.314561 0.382428 0.122098
H15   H     H_    0.352683 0.110385 0.365440 0.140106
H16   H     H_    0.708023 0.235821 0.651096 0.156337
H17   H     H_    0.868839 0.123049 0.774697 0.127656
N1    N     N_R   0.498800 0.498800 0.142780 -0.121784
N2    N     N_R   0.498760 0.498720 0.857170 -0.121805
O1    O     O_R   0.500000 0.316780 0.614690 -0.642375
O2    O     O_R   0.499990 0.316750 0.385360 -0.628761
O3    O     O_R   0.313960 0.499980 0.614650 -0.641078
O4    O     O_R   0.313940 0.499960 0.385310 -0.638575
O5    O     O_R   0.500010 0.683250 0.614640 -0.615174
O6    O     O_R   0.500000 0.683220 0.385310 -0.612767
O7    O     O_R   0.686060 0.500040 0.614690 -0.632820
O8    O     O_R   0.686040 0.500020 0.385350 -0.620550
Zn1   Zn    Zn3+2 0.500010 0.500020 0.653130 0.926126
Zn2   Zn    Zn3+2 0.499990 0.499980 0.346870 0.934173
H18   H     H_    0.184874 0.194090 0.125701 0.139899

loop_
_geom_bond_atom_site_label_1
_geom_bond_atom_site_label_2
_ccdc_geom_bond_type
C14   H4    S    
C22   N1    A    
C23   O6    A    
C16   C21   A    
C19   H8    S    
O6    Zn2   S    
C26   C29   S    
C4    C12   S    
C20   N2    A    
C11   C13   A    
C5    H16   S    
C4    C26   S    
C19   C20   A    
C1    C11   S    
C25   O7    A    
C2    H13   S    
C2    C30   S    
C21   N1    A    
C3    C27   S    
C17   C18   A    
O4    Zn2   S    
C7    C8    A    
C13   C14   A    
C16   H6    S    
C25   C28   S    
C13   H15   S    
C22   H5    S    
C1    O2    A    
C26   H10   S    
C26   C27   S    
C29   C30   S    
O3    Zn1   S    
C23   O5    A    
C9    C10   A    
C15   C23   S    
C28   C29   S    
C12   O3    A    
C18   H7    S    
O7    Zn1   S    
C2    C3    S    
C6    C7    A    
C8    H3    S    
O5    Zn1   S    
C5    C6    A    
C22   C24   A    
C3    H14   S    
O8    Zn2   S    
O2    Zn2   S    
C10   C11   A    
C17   H18   S    
C27   H1    S    
C3    C4    S    
O1    Zn1   S    
C6    H17   S    
C25   O8    A    
C5    C10   A    
C24   H9    S    
C20   C21   A    
N1    Zn2   S    
C18   C19   A    
C1    O1    A    
C24   N2    A    
C14   C15   A    
C30   H12   S    
C2    C28   S    
C7    H2    S    
C29   H11   S    
C9    C15   A    
C4    C30   S    
N2    Zn1   S    
C12   O4    A    
C16   C17   A    
C8    C9    A    
C27   C28   S    
