data_mof_unit_44613.cif
_audit_creation_date              2012-10-26T19:21:10-0400
_audit_creation_method            fapswitch 2.2
_symmetry_space_group_name_H-M    P1
_symmetry_Int_Tables_number       1
_space_group_crystal_system       triclinic
_cell_length_a                    9.791996
_cell_length_b                    11.042907
_cell_length_c                    13.481513
_cell_angle_alpha                 93.681028
_cell_angle_beta                  81.805616
_cell_angle_gamma                 111.195472
_cell_volume                      1345.16506618

loop_
_atom_site_label
_atom_site_type_symbol
_atom_type_description
_atom_site_fract_x
_atom_site_fract_y
_atom_site_fract_z
_atom_type_partial_charge
C1    C     C_R   0.556687 0.745485 0.506637 0.563468
C2    C     C_R   0.369234 0.443739 0.797024 -0.037361
C3    C     C_2   0.589430 0.884620 0.508352 -0.115745
C4    C     C_R   0.420104 0.475086 0.689547 0.566191
C5    C     C_2   0.486158 0.930762 0.492870 -0.149879
C6    C     C_2   0.412552 0.115644 0.486507 -0.109447
C7    C     C_2   0.518717 0.069701 0.494686 -0.138560
C8    C     C_2   0.921236 0.488187 0.493118 0.017907
C9    C     C_2   0.076812 0.508188 0.509562 -0.006235
C10   C     C_R   0.443960 0.254607 0.491789 0.571704
C11   C     C_R   0.578812 0.515195 0.309374 0.559909
C12   C     C_R   0.428936 0.456416 0.969034 -0.027537
C13   C     C_R   0.801941 0.544301 0.051568 -0.087989
C14   C     C_R   0.624265 0.522990 0.199963 0.002504
C15   C     C_R   0.222821 0.427515 0.834726 -0.125957
C16   C     C_R   0.176044 0.417176 0.937784 0.273081
C17   C     C_R   0.280333 0.441195 0.004040 -0.077707
C18   C     C_3   0.937806 0.275877 0.946717 -0.121075
C19   C     C_R   0.467613 0.441109 0.864631 0.024474
C20   C     C_R   0.540835 0.485326 0.033540 0.018997
C21   C     C_R   0.687719 0.503590 0.991619 0.002500
C22   C     C_R   0.717179 0.469824 0.891957 -0.116077
C23   C     C_R   0.604048 0.424882 0.832532 0.111247
C24   C     C_R   0.511989 0.494900 0.138089 -0.143674
C25   C     C_R   0.772257 0.554190 0.155227 0.085957
Cu1   Cu    Cu3+1 0.362000 0.479240 0.482530 0.956960
Cu2   Cu    Cu3+1 0.638000 0.520760 0.517470 0.997962
H1    H     H_    0.376259 0.865832 0.479680 0.162104
H2    H     H_    0.400996 0.475892 0.173463 0.136163
H3    H     H_    0.144958 0.425589 0.784547 0.135968
H4    H     H_    0.239930 0.445325 0.082265 0.142523
H5    H     H_    0.630110 0.134737 0.504210 0.172786
H6    H     H_    0.825912 0.256758 0.988190 0.161354
H7    H     H_    0.927349 0.272443 0.865486 0.129824
H8    H     H_    0.975639 0.197404 0.965696 0.131729
H9    H     H_    0.301503 0.050327 0.476545 0.110220
H10   H     H_    0.698922 0.949852 0.521983 0.114855
H11   H     H_    0.125799 0.575368 0.568037 0.144594
H12   H     H_    0.870754 0.418182 0.436637 0.162010
H13   H     H_    0.105994 0.385629 0.400635 0.213177
H14   H     H_    0.896104 0.618429 0.596537 0.206070
H15   H     H_    0.824246 0.464671 0.863537 0.142085
H16   H     H_    0.915043 0.566248 0.017679 0.189784
I1    I     I_    0.960804 0.616464 0.233208 -0.374793
I2    I     I_    0.624274 0.279380 0.727003 -0.412647
N1    N     N_2   0.845330 0.551960 0.543750 -0.333508
N2    N     N_2   0.154690 0.448120 0.456210 -0.347649
O1    O     O_R   0.426290 0.668220 0.490680 -0.496361
O2    O     O_R   0.659360 0.703290 0.520190 -0.484053
O3    O     O_R   0.326580 0.473880 0.629020 -0.508228
O4    O     O_R   0.559660 0.508940 0.658530 -0.466159
O5    O     O_R   0.340640 0.296710 0.479810 -0.492804
O6    O     O_R   0.573710 0.331780 0.509320 -0.480880
O7    O     O_R   0.440340 0.491060 0.341470 -0.503450
O8    O     O_R   0.673420 0.526120 0.370980 -0.465201
O9    O     O_3   0.031624 0.399379 0.976180 -0.585130

loop_
_geom_bond_atom_site_label_1
_geom_bond_atom_site_label_2
_ccdc_geom_bond_type
C12   C17   A    
C6    C10   S    
H13   N2    S    
C2    C4    S    
H14   N1    S    
C16   O9    S    
C1    O1    A    
C6    C7    D    
C23   I2    S    
C8    H12   S    
Cu1   O5    S    
C5    H1    S    
C18   H8    S    
C19   C23   A    
Cu1   O1    S    
C18   O9    S    
C10   O5    A    
C12   C20   A    
C6    H9    S    
Cu2   O6    S    
C13   C21   A    
C21   C22   A    
C2    C15   A    
C18   H7    S    
C13   C25   A    
Cu1   Cu2   S    
C22   H15   S    
C11   O7    A    
Cu1   N2    S    
Cu1   O7    S    
C25   I1    S    
C9    H11   S    
C18   H6    S    
Cu2   O4    S    
C9    N2    D    
C8    N1    D    
Cu1   O3    S    
C14   C25   A    
C17   H4    S    
C11   C14   S    
Cu2   O8    S    
C4    O4    A    
C15   C16   A    
C20   C24   A    
C13   H16   S    
C11   O8    A    
C20   C21   A    
Cu2   N1    S    
C15   H3    S    
C14   C24   A    
C5    C7    S    
C10   O6    A    
C22   C23   A    
C16   C17   A    
C7    H5    S    
C12   C19   A    
C3    C5    D    
C2    C19   A    
C24   H2    S    
C1    O2    A    
Cu2   O2    S    
C3    H10   S    
C4    O3    A    
C8    C9    S    
C1    C3    S    
