data_mof_unit_18098.cif
_audit_creation_date              2012-12-11T15:55:50-0500
_audit_creation_method            fapswitch 2.2
_symmetry_space_group_name_H-M    P1
_symmetry_Int_Tables_number       1
_space_group_crystal_system       triclinic
_cell_length_a                    6.935118
_cell_length_b                    14.543297
_cell_length_c                    16.08966
_cell_angle_alpha                 89.920375
_cell_angle_beta                  89.789132
_cell_angle_gamma                 90.03212
_cell_volume                      1622.78193689

loop_
_atom_site_label
_atom_site_type_symbol
_atom_type_description
_atom_site_fract_x
_atom_site_fract_y
_atom_site_fract_z
_atom_type_partial_charge
O1    O     O_R   0.505680 0.583900 0.413320 -0.525856
O2    O     O_R   0.176010 0.594950 0.586080 -0.504334
O3    O     O_R   0.005680 0.416100 0.586680 -0.522564
C1    C     C_R   0.344686 0.617442 0.614899 0.792612
O4    O     O_R   0.175960 0.594930 0.413930 -0.539481
O5    O     O_R   0.005640 0.416080 0.413300 -0.554395
C2    C     C_R   0.345948 0.618882 0.386356 0.704938
O6    O     O_R   0.505720 0.583920 0.586700 -0.537735
O7    O     O_3   0.339190 0.441320 0.500000 -0.359768
V1    V     V_3+5 0.064350 0.510890 0.500000 1.637598
O8    O     O_R   0.675920 0.405050 0.413920 -0.556935
C3    C     C_R   0.845172 0.382816 0.385059 0.687400
O9    O     O_R   0.675960 0.405070 0.586070 -0.501652
C4    C     C_R   0.844461 0.383285 0.615114 0.791931
V2    V     V_3+5 0.564340 0.489110 0.500000 1.631875
O10   O     O_3   0.839370 0.558680 0.500000 -0.345090
C5    C     C_R   0.984604 0.241286 0.681151 -0.077508
C6    C     C_R   0.851524 0.313817 0.682580 -0.224313
C7    C     C_R   0.718440 0.315760 0.749281 0.683177
C8    C     C_R   0.728668 0.250406 0.814155 -0.265452
H1    H     H_    0.627128 0.255082 0.865288 0.149996
C9    C     C_R   0.876992 0.184080 0.816122 -0.133417
C10   C     C_R   0.998790 0.179069 0.746711 -0.056013
C11   C     C_3   0.213210 0.173519 0.740283 -0.450050
C12   C     C_3   0.197578 0.240945 0.668170 1.156446
H2    H     H_    0.262737 0.103959 0.721263 0.170858
H3    H     H_    0.286796 0.202514 0.795666 0.171026
C13   C     C_R   0.042708 0.232296 0.211065 -0.203720
H4    H     H_    0.180522 0.220669 0.181149 0.208381
C14   C     C_R   0.032687 0.295898 0.276229 -0.130232
H5    H     H_    0.163361 0.331126 0.294594 0.135491
C15   C     C_R   0.856389 0.314377 0.316477 -0.120999
C16   C     C_R   0.690790 0.267178 0.290123 -0.213800
H6    H     H_    0.552884 0.279305 0.319952 0.152593
C17   C     C_R   0.700474 0.203038 0.225438 0.627005
C18   C     C_R   0.877145 0.184916 0.184516 -0.177785
C19   C     C_R   0.190264 0.734988 0.710333 0.630051
C20   C     C_R   0.202620 0.798120 0.775714 -0.216019
H7    H     H_    0.073248 0.834491 0.794304 0.147293
C21   C     C_R   0.378952 0.814930 0.815956 -0.142122
C22   C     C_R   0.543351 0.766807 0.789029 -0.129184
H8    H     H_    0.681582 0.777847 0.818495 0.148983
C23   C     C_R   0.531208 0.703066 0.724051 -0.149160
H9    H     H_    0.660440 0.666479 0.705849 0.209144
C24   C     C_R   0.354859 0.686101 0.683639 -0.183847
C25   C     C_R   0.200467 0.702278 0.265570 -0.156549
H10   H     H_    0.069301 0.662937 0.274185 0.166070
C26   C     C_R   0.209719 0.765319 0.199819 -0.138834
H11   H     H_    0.084841 0.773662 0.160287 0.132081
C27   C     C_R   0.379161 0.815592 0.184309 -0.116239
C28   C     C_R   0.537408 0.803026 0.237139 -0.168857
H12   H     H_    0.667825 0.842790 0.227538 0.158816
C29   C     C_R   0.528093 0.741772 0.304329 0.377240
C30   C     C_R   0.358958 0.688855 0.318605 -0.115091
O11   O     O_R   0.229200 0.915950 0.913350 -0.547469
O12   O     O_R   0.559090 0.905000 0.086080 -0.544537
O13   O     O_R   0.729280 0.083880 0.086680 -0.499443
C31   C     C_R   0.389839 0.882868 0.114942 0.741627
O14   O     O_R   0.558920 0.904980 0.913920 -0.548720
O15   O     O_R   0.729110 0.083860 0.913300 -0.545207
C32   C     C_R   0.390085 0.882879 0.884934 0.707839
O16   O     O_R   0.229360 0.915970 0.086730 -0.539440
O17   O     O_3   0.395680 0.058580 0.000030 -0.356047
V3    V     V_3+5 0.670570 0.989070 0.999990 1.474392
O18   O     O_R   0.058820 0.094950 0.913870 -0.544027
C33   C     C_R   0.889948 0.117130 0.885274 0.730472
O19   O     O_R   0.058990 0.094970 0.086020 -0.537855
C34   C     C_R   0.889530 0.116888 0.115284 0.748544
V4    V     V_3+5 0.170560 0.010930 0.999930 1.474301
O20   O     O_3   0.895590 0.941310 0.999960 -0.385327
F1    F     F_    0.589709 0.385577 0.755740 -0.643866
F2    F     F_    0.536380 0.158183 0.204068 -0.695357
F3    F     F_    0.017046 0.723030 0.672942 -0.690121
Cl1   Cl    Cl    0.729358 0.739025 0.370939 -0.632764
F4    F     F_    0.250580 0.203655 0.592385 -0.676952
F5    F     F_    0.281277 0.325370 0.683586 -0.644052

loop_
_geom_bond_atom_site_label_1
_geom_bond_atom_site_label_2
_ccdc_geom_bond_type
C31   O16   A    
C20   C21   A    
C22   H8    S    
C4    C6    S    
C7    F1    S    
C7    C8    A    
C11   H3    S    
C1    O6    A    
C29   C30   A    
O14   V3    S    
C5    C10   A    
C13   H4    S    
C11   H2    S    
O5    C3    A    
C20   H7    S    
V2    O10   S    
C6    C7    A    
C9    C33   S    
O8    V2    S    
O17   V4    S    
C10   C11   S    
O12   V3    S    
O1    V2    S    
V3    O20   S    
O7    V1    S    
C26   C27   A    
O15   C33   A    
O9    C4    A    
C3    C15   S    
C22   C23   A    
C27   C28   A    
C1    C24   S    
C25   C26   A    
O14   C32   A    
C28   H12   S    
C27   C31   S    
C16   H6    S    
C11   C12   S    
O4    C2    A    
C21   C32   S    
O19   C34   A    
O16   V4    S    
O19   V4    S    
C17   C18   A    
O2    C1    A    
C23   H9    S    
C19   C20   A    
C25   C30   A    
C5    C6    A    
C23   C24   A    
O11   V4    S    
O3    C4    A    
C21   C22   A    
C8    C9    A    
C17   F2    S    
O6    V2    S    
O9    V2    S    
O13   C34   A    
C19   C24   A    
O2    V1    S    
O13   V3    S    
C19   F3    S    
C25   H10   S    
C26   H11   S    
O1    C2    A    
O5    V1    S    
O8    C3    A    
C18   C34   S    
O15   V3    S    
C12   F5    S    
C5    C12   S    
C15   C16   A    
C13   C14   A    
O7    V2    S    
O4    V1    S    
O3    V1    S    
V1    O10   S    
C14   C15   A    
C14   H5    S    
O18   V4    S    
O11   C32   A    
C16   C17   A    
O12   C31   A    
V4    O20   S    
C28   C29   A    
O17   V3    S    
C8    H1    S    
C13   C18   A    
O18   C33   A    
C9    C10   A    
C2    C30   S    
C12   F4    S    
C29   Cl1   S    
