data_mof_unit_29096.cif
_audit_creation_date              2012-12-10T20:49:27-0500
_audit_creation_method            fapswitch 2.2
_symmetry_space_group_name_H-M    P1
_symmetry_Int_Tables_number       1
_space_group_crystal_system       triclinic
_cell_length_a                    15.755539
_cell_length_b                    8.933696
_cell_length_c                    8.115022
_cell_angle_alpha                 89.991809
_cell_angle_beta                  89.904641
_cell_angle_gamma                 89.990241
_cell_volume                      1142.22989988

loop_
_atom_site_label
_atom_site_type_symbol
_atom_type_description
_atom_site_fract_x
_atom_site_fract_y
_atom_site_fract_z
_atom_type_partial_charge
C1    C     C_1   0.499976 0.065193 0.500012 -0.187307
C2    C     C_3   0.971448 0.647682 0.502294 -0.331712
C3    C     C_1   0.248711 0.500678 0.500448 -0.178689
C4    C     C_1   0.751307 0.501463 0.499646 -0.158448
C5    C     C_3   0.027441 0.572414 0.634262 0.643674
C6    C     C_3   0.972798 0.435929 0.366861 0.645958
C7    C     C_3   0.082899 0.502833 0.500436 0.030440
C8    C     C_3   0.917140 0.504671 0.500880 0.061429
C9    C     C_1   0.173572 0.501555 0.500625 -0.016520
C10   C     C_1   0.826455 0.502985 0.499870 0.028199
C11   C     C_3   0.002659 0.318015 0.121753 -0.291948
C12   C     C_1   0.499973 0.934806 0.499990 -0.187932
C13   C     C_3   0.089356 0.780650 0.751504 -0.317964
C14   C     C_R   0.499990 0.218011 0.500008 0.932895
C15   C     C_R   0.499982 0.781988 0.499993 0.931161
C16   C     C_R   0.337467 0.499980 0.500110 0.892709
C17   C     C_R   0.662538 0.500042 0.499896 0.897858
C18   C     C_3   0.971439 0.431174 0.635853 -0.273643
C19   C     C_3   0.028379 0.577699 0.365272 -0.323036
C20   C     C_3   0.027834 0.360311 0.499558 -0.335213
H1    H     H_    0.052177 0.243701 0.497204 0.156326
H2    H     H_    0.122107 0.821075 0.863903 0.193232
H3    H     H_    0.945974 0.763525 0.504173 0.163649
H4    H     H_    0.946065 0.374305 0.747034 0.164294
H5    H     H_    0.053495 0.635966 0.254626 0.177672
H6    H     H_    0.048724 0.243188 0.184978 0.149752
H7    H     H_    0.035840 0.415956 0.066910 0.197157
H8    H     H_    0.974200 0.253050 0.019386 0.187543
H9    H     H_    0.036280 0.859147 0.725772 0.162963
H10   H     H_    0.136338 0.782552 0.648995 0.162539
N1    N     N_1   0.500010 0.500000 0.073640 -0.028041
N2    N     N_1   0.499990 0.500000 0.926360 -0.028144
O1    O     O_R   0.500000 0.285340 0.636850 -0.615505
O2    O     O_3   0.058374 0.635368 0.781997 -0.613011
O3    O     O_R   0.500000 0.714660 0.363150 -0.615427
O4    O     O_R   0.500000 0.285340 0.363150 -0.614755
O5    O     O_R   0.500000 0.714660 0.636850 -0.615634
O6    O     O_R   0.376770 0.500000 0.636850 -0.613104
O7    O     O_R   0.623230 0.500000 0.363150 -0.606479
O8    O     O_R   0.376780 0.500000 0.363100 -0.617152
O9    O     O_R   0.623220 0.500000 0.636900 -0.613381
O10   O     O_3   0.937119 0.364301 0.228436 -0.598507
Zn1   Zn    Zn3+2 0.499990 0.500000 0.682780 1.000282
Zn2   Zn    Zn3+2 0.500010 0.500000 0.317220 1.001822

loop_
_geom_bond_atom_site_label_1
_geom_bond_atom_site_label_2
_ccdc_geom_bond_type
O5    Zn1   S    
C5    C7    S    
O7    Zn2   S    
C3    C9    T    
C6    C20   S    
O8    Zn2   S    
C18   C20   S    
N1    N2    T    
C12   C15   S    
C11   H7    S    
C5    C18   S    
C5    O2    S    
C14   O1    A    
O6    Zn1   S    
O3    Zn2   S    
O9    Zn1   S    
C1    C12   T    
C11   H8    S    
C16   O8    A    
C18   H4    S    
C4    C17   S    
C13   H9    S    
N2    Zn1   S    
C6    C19   S    
C13   H2    S    
C7    C19   S    
C14   O4    A    
C19   H5    S    
C17   O9    A    
O4    Zn2   S    
C2    C5    S    
N1    Zn2   S    
C4    C10   T    
O1    Zn1   S    
C13   H10   S    
C13   O2    S    
C20   H1    S    
C11   O10   S    
C8    C10   S    
C7    C20   S    
C6    O10   S    
C15   O3    A    
C2    H3    S    
C7    C9    S    
C17   O7    A    
C15   O5    A    
C6    C8    S    
C1    C14   S    
C11   H6    S    
C2    C8    S    
C2    C19   S    
C8    C18   S    
C3    C16   S    
C16   O6    A    
