data_mof_unit_6804.cif
_audit_creation_date              2012-12-10T18:47:09-0500
_audit_creation_method            fapswitch 2.2
_symmetry_space_group_name_H-M    P1
_symmetry_Int_Tables_number       1
_space_group_crystal_system       triclinic
_cell_length_a                    10.778764
_cell_length_b                    9.821726
_cell_length_c                    15.023341
_cell_angle_alpha                 89.598344
_cell_angle_beta                  88.988
_cell_angle_gamma                 91.619388
_cell_volume                      1589.53395149

loop_
_atom_site_label
_atom_site_type_symbol
_atom_type_description
_atom_site_fract_x
_atom_site_fract_y
_atom_site_fract_z
_atom_type_partial_charge
C1    C     C_R   0.259938 0.497445 0.497221 0.889571
C2    C     C_R   0.126961 0.491492 0.492229 -0.157687
C3    C     C_R   0.563779 0.073292 0.562658 -0.024266
C4    C     C_R   0.436221 0.926708 0.437342 -0.024269
C5    C     C_R   0.436082 0.070709 0.437402 0.018113
C6    C     C_R   0.563918 0.929291 0.562598 0.018124
C7    C     C_R   0.498653 0.500101 0.327257 0.916902
C8    C     C_R   0.501354 0.499900 0.672743 0.916930
C9    C     C_R   0.610156 0.541679 0.811623 -0.099481
C10   C     C_R   0.389831 0.458333 0.188381 -0.099461
C11   C     C_R   0.501102 0.500773 0.768127 -0.165360
C12   C     C_R   0.740063 0.502554 0.502776 0.889465
C13   C     C_R   0.498888 0.499239 0.231872 -0.165365
C14   C     C_R   0.392786 0.457199 0.814603 -0.043537
C15   C     C_R   0.607175 0.542886 0.185394 -0.043541
C16   C     C_R   0.393776 0.452140 0.907717 0.039765
C17   C     C_R   0.606169 0.547976 0.092282 0.039777
C18   C     C_R   0.500705 0.498972 0.953080 0.042999
C19   C     C_R   0.499246 0.501129 0.046919 0.042995
C20   C     C_R   0.608562 0.545075 0.905017 0.108226
C21   C     C_R   0.391396 0.455005 0.094985 0.108208
C22   C     C_R   0.289143 0.404394 0.956705 -0.225503
C23   C     C_R   0.288887 0.403489 0.048441 -0.129821
C24   C     C_R   0.710786 0.595769 0.043296 -0.225461
C25   C     C_2   0.724719 0.577297 0.757962 0.314748
C26   C     C_2   0.275302 0.422627 0.242050 0.314726
C27   C     C_2   0.278107 0.420222 0.765516 0.397246
C28   C     C_2   0.721846 0.579892 0.234475 0.397264
C29   C     C_2   0.118832 0.269547 0.581205 0.605128
C30   C     C_2   0.881170 0.730451 0.418789 0.605089
C31   C     C_2   0.858271 0.304832 0.611784 0.440916
C32   C     C_2   0.141731 0.695164 0.388212 0.440917
C33   C     C_R   0.711051 0.596644 0.951559 -0.129788
C34   C     C_R   0.058822 0.388327 0.539979 -0.007230
C35   C     C_R   0.941178 0.611671 0.460016 -0.007211
C36   C     C_R   0.931406 0.400779 0.551537 -0.064212
C37   C     C_R   0.068595 0.599218 0.448458 -0.064181
C38   C     C_R   0.873040 0.508506 0.507767 -0.157710
H1    H     H_    0.205747 0.366635 0.925265 0.154495
H2    H     H_    0.280847 0.360901 0.301899 0.095482
H3    H     H_    0.227224 0.325959 0.780792 0.045347
H4    H     H_    0.772638 0.674231 0.219246 0.045313
H5    H     H_    0.116181 0.256314 0.652844 0.054325
H6    H     H_    0.883843 0.743694 0.347150 0.054374
H7    H     H_    0.780957 0.342003 0.650886 0.080496
H8    H     H_    0.219047 0.657992 0.349111 0.080541
H9    H     H_    0.794162 0.633576 0.074742 0.154483
H10   H     H_    0.207248 0.360241 0.081815 0.203104
H11   H     H_    0.792681 0.639912 0.918181 0.203065
H12   H     H_    0.614516 0.128954 0.612807 0.149074
H13   H     H_    0.385483 0.871046 0.387194 0.149073
H14   H     H_    0.384824 0.124319 0.387493 0.140261
H15   H     H_    0.615175 0.875680 0.612507 0.140276
H16   H     H_    0.719209 0.638928 0.698069 0.095402
N1    N     N_R   0.500000 0.857200 0.500000 -0.101570
N2    N     N_R   0.500000 0.142800 0.500000 -0.101572
O1    O     O_R   0.316770 0.614620 0.499990 -0.603441
O2    O     O_2   0.174908 0.467659 0.222316 -0.570189
O3    O     O_2   0.238529 0.496896 0.709081 -0.574386
O4    O     O_2   0.761510 0.503169 0.290847 -0.574355
O5    O     O_2   0.162310 0.180525 0.534758 -0.522486
O6    O     O_2   0.837673 0.819464 0.465233 -0.522500
O7    O     O_2   0.879513 0.183466 0.615355 -0.550697
O8    O     O_2   0.120489 0.816530 0.384640 -0.550716
O9    O     O_R   0.683230 0.385380 0.500010 -0.603459
O10   O     O_R   0.683230 0.614620 0.500010 -0.603642
O11   O     O_R   0.316770 0.385380 0.499990 -0.603652
O12   O     O_R   0.499980 0.614680 0.367850 -0.642321
O13   O     O_R   0.500020 0.385320 0.632150 -0.642301
O14   O     O_R   0.500020 0.614680 0.632150 -0.616841
O15   O     O_R   0.499980 0.385320 0.367850 -0.616883
O16   O     O_2   0.825099 0.532277 0.777747 -0.570168
Zn1   Zn    Zn3+2 0.500000 0.653120 0.500000 1.006530
Zn2   Zn    Zn3+2 0.500000 0.346880 0.500000 1.006517

loop_
_geom_bond_atom_site_label_1
_geom_bond_atom_site_label_2
_ccdc_geom_bond_type
O15   Zn2   S    
C29   O5    D    
C5    H14   S    
C31   H7    S    
C1    O1    A    
C14   C27   S    
C9    C11   A    
C12   O9    A    
C27   H3    S    
C9    C20   A    
C8    O14   A    
C24   C33   A    
O10   Zn1   S    
C6    N1    A    
C4    H13   S    
C3    C6    A    
C26   H2    S    
C10   C26   S    
O14   Zn1   S    
C13   C15   A    
C8    O13   A    
C9    C25   S    
O13   Zn2   S    
C4    N1    A    
O11   Zn2   S    
C27   O3    D    
C32   C37   S    
C29   H5    S    
C12   C38   S    
C26   O2    D    
C2    C37   A    
C30   H6    S    
C15   C28   S    
C28   O4    D    
C25   O16   D    
C30   C35   S    
C8    C11   S    
C20   C33   A    
C28   H4    S    
C7    O12   A    
C35   C37   A    
C3    H12   S    
C1    C2    S    
C34   C36   A    
C21   C23   A    
C10   C21   A    
C7    O15   A    
C2    C34   A    
C11   C14   A    
C14   C16   A    
C6    H15   S    
C17   C24   A    
N2    Zn2   S    
C32   H8    S    
C22   H1    S    
C30   O6    D    
C33   H11   S    
C36   C38   A    
N1    Zn1   S    
C31   O7    D    
C7    C13   S    
C35   C38   A    
C25   H16   S    
C32   O8    D    
C18   C20   A    
C16   C18   A    
C18   C19   A    
C3    N2    A    
O1    Zn1   S    
C15   C17   A    
C31   C36   S    
C17   C19   A    
C16   C22   A    
C23   H10   S    
C5    N2    A    
C1    O11   A    
O12   Zn1   S    
C22   C23   A    
C24   H9    S    
C12   O10   A    
C29   C34   S    
O9    Zn2   S    
C4    C5    A    
C19   C21   A    
C10   C13   A    
