data_mof_unit_59744.cif
_audit_creation_date              2012-12-11T20:03:40-0500
_audit_creation_method            fapswitch 2.2
_symmetry_space_group_name_H-M    P1
_symmetry_Int_Tables_number       1
_space_group_crystal_system       triclinic
_cell_length_a                    8.352375
_cell_length_b                    16.250965
_cell_length_c                    19.069971
_cell_angle_alpha                 111.978928
_cell_angle_beta                  91.791252
_cell_angle_gamma                 83.289722
_cell_volume                      2383.6605381

loop_
_atom_site_label
_atom_site_type_symbol
_atom_type_description
_atom_site_fract_x
_atom_site_fract_y
_atom_site_fract_z
_atom_type_partial_charge
Ba1   Ba    Ba6+2 0.334020 0.539200 0.472300 1.687049
Ba2   Ba    Ba6+2 0.855780 0.460880 0.527720 1.695015
C1    C     C_3   0.050781 0.855519 0.331782 -0.333764
C2    C     C_R   0.502708 0.538640 0.735189 0.034052
C3    C     C_R   0.372466 0.438679 0.804148 -0.182140
C4    C     C_3   0.525629 0.736244 0.314012 0.336027
C5    C     C_R   0.303716 0.446763 0.739073 0.074312
C6    C     C_R   0.794875 0.584340 0.207694 -0.166718
C7    C     C_R   0.864708 0.576003 0.272525 -0.003996
C8    C     C_R   0.646866 0.460837 0.194476 -0.154339
C9    C     C_R   0.677696 0.474071 0.271404 0.068249
C10   C     C_R   0.481091 0.498107 0.847806 -0.015943
C11   C     C_R   0.379265 0.488701 0.700978 -0.241854
C12   C     C_3   0.045229 0.771737 0.349067 0.364998
C13   C     C_R   0.694621 0.521173 0.161811 -0.004226
C14   C     C_R   0.792670 0.529778 0.308654 -0.239557
C15   C     C_R   0.278127 0.456507 0.958664 -0.060115
C16   C     C_3   0.482249 0.764601 0.247651 -0.351867
C17   C     C_R   0.191909 0.424773 0.002359 -0.043584
C18   C     C_R   0.234699 0.442888 0.076388 -0.053370
C19   C     C_R   0.369564 0.486857 0.103666 -0.072921
C20   C     C_R   0.483957 0.495081 0.054680 0.013342
C21   C     C_R   0.433649 0.483823 0.979020 0.036165
C22   C     C_R   0.640075 0.518529 0.082082 -0.006633
C23   C     C_3   0.035406 0.340687 0.289625 0.345191
C24   C     C_R   0.741458 0.536822 0.031299 0.044324
C25   C     C_R   0.692679 0.523279 0.954923 0.013573
C26   C     C_R   0.535668 0.501163 0.927809 -0.005998
C27   C     C_R   0.894919 0.566982 0.052679 -0.084487
C28   C     C_3   0.619974 0.738260 0.661970 0.258445
C29   C     C_R   0.981746 0.596481 0.007502 -0.080756
C30   C     C_R   0.942949 0.573254 0.932308 -0.036670
C31   C     C_R   0.809423 0.528089 0.905320 -0.056497
C32   C     C_2   0.414307 0.236524 0.460338 -0.184387
C33   C     C_R   0.799410 0.752000 0.515890 -0.304259
C34   C     C_3   0.990265 0.322410 0.207351 -0.309295
C35   C     C_2   0.269248 0.112536 0.377942 -0.069149
C36   C     C_2   0.274216 0.200999 0.412711 0.000914
C37   C     C_2   0.529059 0.182298 0.477726 0.050575
C38   C     C_3   0.494024 0.087048 0.458943 0.015570
C39   C     C_3   0.409036 0.047701 0.383344 0.052494
C40   C     C_3   0.575918 0.839643 0.692756 -0.232341
C41   C     C_2   0.621968 0.021671 0.472128 -0.153684
C42   C     C_2   0.583964 0.968038 0.507403 -0.039031
C43   C     C_R   0.850068 0.930710 0.557064 0.080641
C44   C     C_R   0.708041 0.901557 0.519404 -0.076951
C45   C     C_3   0.674606 0.287652 0.686856 0.286700
C46   C     C_R   0.962319 0.872107 0.576388 -0.074554
C47   C     C_R   0.936074 0.782834 0.557066 0.045976
C48   C     C_R   0.681804 0.811007 0.499395 -0.032285
C49   C     C_3   0.550745 0.241771 0.296174 0.333191
C50   C     C_3   0.671126 0.163413 0.298839 -0.305155
C51   C     C_3   0.145058 0.671862 0.711177 0.267340
C52   C     C_3   0.170965 0.705743 0.796554 -0.211567
C53   C     C_2   0.691942 0.888090 0.751162 0.918477
C54   C     C_2   0.418499 0.208296 0.240396 0.840306
C55   C     C_2   0.737138 0.101184 0.221805 0.954547
C56   C     C_3   0.636988 0.266450 0.756196 -0.385894
C57   C     C_2   0.017473 0.747817 0.840139 0.950620
C58   C     C_2   0.278183 0.217629 0.646461 0.744106
C59   C     C_2   0.135486 0.159206 0.764540 0.949263
C60   C     C_2   0.418672 0.976457 0.538550 0.947122
C61   C     C_3   0.102916 0.238101 0.669800 0.242394
C62   C     C_3   0.052894 0.163794 0.693886 -0.185027
C63   C     C_R   0.536725 0.553726 0.812185 -0.141726
H1    H     H_    0.101361 0.781862 0.404830 0.087584
H2    H     H_    0.220133 0.649494 0.812969 -0.033703
H3    H     H_    0.916365 0.763073 0.352557 -0.092824
H4    H     H_    0.972202 0.912157 0.372650 0.073839
H5    H     H_    0.928897 0.374922 0.326098 -0.010511
H6    H     H_    0.132397 0.384984 0.305107 0.089288
H7    H     H_    0.873993 0.293257 0.194548 0.158489
H8    H     H_    0.978748 0.385658 0.196855 0.035742
H9    H     H_    0.082317 0.274660 0.167046 0.187695
H10   H     H_    0.008100 0.843868 0.273476 0.117584
H11   H     H_    0.559821 0.723501 0.197846 0.076638
H12   H     H_    0.577223 0.862902 0.645201 0.086726
H13   H     H_    0.780413 0.325215 0.698363 0.083941
H14   H     H_    0.678663 0.317876 0.808423 0.100034
H15   H     H_    0.506146 0.265504 0.761537 0.133408
H16   H     H_    0.691439 0.199594 0.752652 0.161339
H17   H     H_    0.030661 0.237335 0.619799 0.069485
H18   H     H_    0.074628 0.097811 0.645933 0.068182
H19   H     H_    0.503550 0.665396 0.297862 0.059851
H20   H     H_    0.923001 0.175203 0.705240 0.072290
H21   H     H_    0.610456 0.606059 0.842032 0.100076
H22   H     H_    0.338301 0.385488 0.819072 0.102664
H23   H     H_    0.451494 0.856747 0.717185 0.110102
H24   H     H_    0.822781 0.639817 0.194078 0.069936
H25   H     H_    0.580063 0.406094 0.162067 0.101384
H26   H     H_    0.336590 0.485631 0.645981 0.065162
H27   H     H_    0.836598 0.531118 0.362969 0.059854
H28   H     H_    0.211532 0.465220 0.913019 0.075078
H29   H     H_    0.079005 0.398009 0.982355 0.109734
H30   H     H_    0.155867 0.429230 0.113590 0.108814
H31   H     H_    0.654736 0.743572 0.326325 -0.052864
H32   H     H_    0.383989 0.515254 0.163456 0.129086
H33   H     H_    0.959426 0.562845 0.100630 0.074542
H34   H     H_    0.497264 0.278579 0.353118 -0.124810
H35   H     H_    0.093158 0.624976 0.027619 0.084948
H36   H     H_    0.024392 0.583415 0.894079 0.114429
H37   H     H_    0.797917 0.496605 0.845345 0.124860
H38   H     H_    0.171034 0.087119 0.340302 0.083553
H39   H     H_    0.066436 0.897042 0.608862 0.095433
H40   H     H_    0.424347 0.307649 0.480367 0.077337
H41   H     H_    0.779197 0.682958 0.501153 0.069948
H42   H     H_    0.354974 0.755390 0.231824 0.150999
H43   H     H_    0.499824 0.835888 0.262977 0.121067
H44   H     H_    0.750126 0.721241 0.647610 -0.016278
H45   H     H_    0.612419 0.126029 0.327378 -0.024732
H46   H     H_    0.548387 0.710164 0.610137 0.059843
H47   H     H_    0.851953 0.979524 0.781422 0.332552
H48   H     H_    0.274606 0.111454 0.189559 0.344019
H49   H     H_    0.655368 0.993285 0.231484 0.274890
H50   H     H_    0.775645 0.189796 0.333759 0.105581
H51   H     H_    0.792792 0.732652 0.864408 0.329359
H52   H     H_    0.571449 0.331802 0.678754 0.063971
H53   H     H_    0.489882 0.140478 0.642126 0.338881
H54   H     H_    0.268960 0.082483 0.812524 0.327831
H55   H     H_    0.743418 0.015449 0.450300 0.086357
H56   H     H_    0.264062 0.646485 0.682616 -0.014813
H57   H     H_    0.283999 0.974342 0.623611 0.337539
H58   H     H_    0.067672 0.616744 0.694789 0.082121
H59   H     H_    0.175332 0.874155 0.336976 0.164392
H60   H     H_    0.260293 0.754730 0.811560 0.098780
O1    O     O_2   0.405910 0.437000 0.315050 -0.458192
O2    O     O_2   0.861538 0.192835 0.501466 -0.488597
O3    O     O_3   0.705398 0.208521 0.622627 -0.618136
O4    O     O_3   0.650250 0.445090 0.405140 -0.490223
O5    O     O_3   0.024090 0.610190 0.555810 -0.501695
O6    O     O_2   0.949630 0.279650 0.426400 -0.456916
O7    O     O_3   0.087655 0.259908 0.298048 -0.620368
O8    O     O_2   0.980571 0.489655 0.751812 -0.494620
O9    O     O_3   0.066656 0.321258 0.730092 -0.622923
O10   O     O_3   0.110870 0.602570 0.387980 -0.475038
O11   O     O_2   0.191307 0.522678 0.249197 -0.502242
O12   O     O_3   0.072720 0.742293 0.691551 -0.624934
O13   O     O_3   0.636950 0.296368 0.272447 -0.638775
O14   O     O_3   0.129428 0.697988 0.292150 -0.593727
O15   O     O_2   0.240060 0.720390 0.573650 -0.458503
O16   O     O_3   0.508300 0.651290 0.432440 -0.490083
O17   O     O_2   0.350305 0.805406 0.510600 -0.460962
O18   O     O_2   0.709090 0.874115 0.809863 -0.540009
O19   O     O_R   0.775828 0.951485 0.739026 -0.755001
O20   O     O_2   0.352796 0.256026 0.208805 -0.606185
O21   O     O_R   0.370648 0.123375 0.224949 -0.780971
O22   O     O_2   0.812752 0.129317 0.182675 -0.537051
O23   O     O_3   0.429520 0.790872 0.376677 -0.585956
O24   O     O_R   0.715460 0.010984 0.194369 -0.691776
O25   O     O_2   0.006127 0.826021 0.882939 -0.543128
O26   O     O_R   0.888875 0.697371 0.831537 -0.743455
O27   O     O_2   0.335580 0.261261 0.615586 -0.686799
O28   O     O_R   0.372146 0.145733 0.656632 -0.748719
O29   O     O_2   0.134141 0.226021 0.822483 -0.596065
O30   O     O_R   0.212483 0.077480 0.763381 -0.731853
O31   O     O_2   0.298381 0.985780 0.502142 -0.621110
O32   O     O_R   0.401388 0.970137 0.608945 -0.714871
O33   O     O_2   0.783780 0.563030 0.685000 -0.428438
O34   O     O_3   0.539430 0.554980 0.594880 -0.507605
O35   O     O_3   0.078810 0.397510 0.612040 -0.450929
O36   O     O_3   0.582652 0.705371 0.716798 -0.603844
O37   O     O_3   0.165590 0.389880 0.444220 -0.493383
O38   O     O_3   0.681380 0.348790 0.567580 -0.489889
P1    P     P_3+3 0.586140 0.411610 0.321630 1.015197
P2    P     P_3+3 0.070040 0.709050 0.593050 0.995497
P3    P     P_3+3 0.494351 0.765748 0.455176 0.961450
P4    P     P_3+3 0.603540 0.588460 0.678390 1.009312
P5    P     P_3+3 0.695085 0.232642 0.540179 0.985185
P6    P     P_3+3 0.071893 0.600988 0.298532 0.933110
P7    P     P_3+3 0.120883 0.280242 0.393897 0.962219
P8    P     P_3+3 0.106428 0.412028 0.706900 0.974059

loop_
_geom_bond_atom_site_label_1
_geom_bond_atom_site_label_2
_ccdc_geom_bond_type
C6    C7    A    
O6    P7    D    
C38   C39   S    
C5    P8    S    
O23   P3    S    
C7    P6    S    
C17   C18   A    
C59   O29   D    
Ba2   O37   S    
O12   P2    S    
C63   H21   S    
C51   C52   S    
C25   C31   A    
C47   P2    S    
O16   P3    S    
C15   C21   A    
C27   H33   S    
C10   C26   S    
C58   C61   S    
C51   O12   S    
C1    H4    S    
C7    C14   A    
C22   C24   A    
C49   C54   S    
Ba1   O4    S    
C8    C13   A    
C2    C63   A    
C50   H50   S    
C46   H39   S    
C37   P5    S    
Ba2   O4    S    
C4    O23   S    
H53   O28   S    
Ba1   Ba2   S    
C58   O27   D    
C15   H28   S    
C54   O20   D    
C16   H42   S    
C15   C17   A    
C58   O28   S    
C45   H52   S    
C32   C37   D    
H57   O32   S    
C38   C41   S    
C2    C11   A    
Ba1   P1    S    
C60   O31   D    
Ba2   O34   S    
C55   O24   S    
C33   C47   A    
H54   O30   S    
C23   H6    S    
Ba1   P2    S    
O11   P6    D    
C1    H10   S    
C56   H15   S    
C41   H55   S    
C23   H5    S    
C19   C20   A    
C11   H26   S    
C54   O21   S    
O7    P7    S    
O1    P1    D    
C59   O30   S    
C42   C44   S    
O33   P4    D    
C36   P7    S    
C52   C57   S    
C20   C21   A    
C49   H34   S    
C4    C16   S    
C52   H60   S    
C53   O18   D    
C61   H17   S    
C49   C50   S    
C61   O9    S    
Ba1   O34   S    
C4    H19   S    
Ba1   O1    S    
C3    C10   A    
Ba1   O5    S    
C34   H8    S    
C56   H16   S    
C37   C38   S    
C3    C5    A    
O2    P5    D    
C17   H29   S    
C52   H2    S    
C28   H44   S    
C42   C60   S    
C43   C44   A    
C31   H37   S    
O4    P1    S    
C43   C46   A    
H48   O21   S    
C59   C62   S    
C41   C42   D    
C62   H18   S    
C48   P3    S    
C35   C36   D    
C40   C53   S    
O17   P3    D    
C19   H32   S    
C9    C14   A    
C29   C30   A    
O37   P7    S    
C50   H45   S    
Ba2   O33   S    
C33   C48   A    
Ba2   O6    S    
C12   H1    S    
C60   O32   S    
C29   H35   S    
C12   O14   S    
Ba1   O15   S    
O36   P4    S    
C1    C12   S    
C34   H9    S    
C56   H14   S    
C40   H12   S    
C13   C22   S    
C18   H30   S    
Ba1   O37   S    
C14   H27   S    
C6    C13   A    
C4    H31   S    
O9    P8    S    
C55   O22   D    
C24   C25   A    
C45   H13   S    
C20   C22   A    
C40   H23   S    
C21   C26   A    
C62   H20   S    
C1    H59   S    
C35   H38   S    
C57   O25   D    
O15   P2    D    
C46   C47   A    
C16   H11   S    
C53   O19   S    
C32   C36   S    
C32   H40   S    
Ba2   O38   S    
C6    H24   S    
C57   O26   S    
C10   C63   A    
C44   C48   A    
H49   O24   S    
C2    P4    S    
C28   H46   S    
C8    C9    A    
C30   C31   A    
H47   O19   S    
O38   P5    S    
O8    P8    D    
C27   C29   A    
C33   H41   S    
C51   H56   S    
C45   C56   S    
O5    P2    S    
C9    P1    S    
Ba2   O5    S    
O35   P8    S    
O34   P4    S    
O14   P6    S    
O10   P6    S    
C35   C39   S    
C16   H43   S    
Ba1   O16   S    
C50   C55   S    
C23   C34   S    
C61   C62   S    
C3    H22   S    
C49   O13   S    
C5    C11   A    
C51   H58   S    
C18   C19   A    
C8    H25   S    
C24   C27   A    
Ba2   O35   S    
C25   C26   A    
O3    P5    S    
C12   H3    S    
C30   H36   S    
C28   C40   S    
O13   P1    S    
C45   O3    S    
C28   O36   S    
Ba1   O10   S    
C23   O7    S    
Ba2   P4    S    
H51   O26   S    
C34   H7    S    
