data_mof_unit_29621.cif
_audit_creation_date              2012-12-10T20:43:23-0500
_audit_creation_method            fapswitch 2.2
_symmetry_space_group_name_H-M    P1
_symmetry_Int_Tables_number       1
_space_group_crystal_system       triclinic
_cell_length_a                    15.770595
_cell_length_b                    10.66432
_cell_length_c                    9.886687
_cell_angle_alpha                 89.663632
_cell_angle_beta                  90.051751
_cell_angle_gamma                 90.438125
_cell_volume                      1662.69155514

loop_
_atom_site_label
_atom_site_type_symbol
_atom_type_description
_atom_site_fract_x
_atom_site_fract_y
_atom_site_fract_z
_atom_type_partial_charge
C1    C     C_R   0.503205 0.260306 0.500392 0.947323
C2    C     C_R   0.566761 0.935737 0.408980 0.329034
C3    C     C_R   0.514106 0.871320 0.501766 -0.263632
C4    C     C_R   0.339151 0.502038 0.500166 0.907853
C5    C     C_R   0.476210 0.934876 0.607188 0.098622
C6    C     C_3   0.387675 0.925170 0.659732 -0.437215
C7    C     C_3   0.387896 0.067242 0.661788 -0.376776
C8    C     C_R   0.431239 0.541056 0.070913 0.197616
C9    C     C_R   0.570672 0.467588 0.072127 -0.043611
C10   C     C_R   0.570781 0.468158 0.928446 -0.097929
C11   C     C_R   0.430629 0.537911 0.928501 0.085329
C12   C     C_R   0.043637 0.489741 0.623103 -0.061073
C13   C     C_3   0.343620 0.480923 0.925394 -0.313931
C14   C     C_3   0.343214 0.489161 0.079037 0.123022
C15   C     C_R   0.503552 0.739604 0.499667 0.953517
C16   C     C_R   0.660809 0.500730 0.500100 0.920008
C17   C     C_R   0.955698 0.483505 0.615942 -0.177352
C18   C     C_R   0.912933 0.543223 0.511145 0.031194
C19   C     C_R   0.955753 0.617409 0.415438 0.313575
C20   C     C_R   0.044536 0.626222 0.421152 -0.105647
C21   C     C_R   0.087955 0.556165 0.521259 -0.011061
C22   C     C_2   0.088401 0.425870 0.736328 0.490902
C23   C     C_1   0.824096 0.526785 0.504249 0.076665
C24   C     C_2   0.342994 0.347469 0.877057 0.477746
C25   C     C_2   0.090541 0.707754 0.322490 0.569995
C26   C     C_1   0.176892 0.538209 0.509855 0.027950
C27   C     C_1   0.251033 0.520035 0.502452 -0.069911
C28   C     C_1   0.749372 0.512982 0.500858 -0.086923
C29   C     C_R   0.476483 0.062153 0.608456 0.071738
C30   C     C_R   0.514301 0.128693 0.503357 -0.265214
C31   C     C_R   0.566846 0.066923 0.409717 0.322841
Cl1   Cl    Cl    0.270821 0.603946 0.138468 -0.548627
Cl2   Cl    Cl    0.897292 0.699246 0.290280 -0.537197
Cl3   Cl    Cl    0.631604 0.151068 0.294004 -0.516178
Cl4   Cl    Cl    0.631391 0.854781 0.292734 -0.454024
H1    H     H_    0.385817 0.104972 0.765985 0.226951
H2    H     H_    0.155692 0.440838 0.751615 0.106682
H3    H     H_    0.388498 0.281043 0.917283 0.048378
H4    H     H_    0.063186 0.728200 0.224227 0.129193
H5    H     H_    0.627152 0.439563 0.126100 0.194518
H6    H     H_    0.627418 0.440849 0.874986 0.171105
H7    H     H_    0.296718 0.542335 0.873843 0.215524
H8    H     H_    0.339367 0.397968 0.134129 0.126569
H9    H     H_    0.920089 0.430279 0.690878 0.204349
H10   H     H_    0.342685 0.884574 0.584808 0.217803
H11   H     H_    0.385137 0.882024 0.762313 0.226135
H12   H     H_    0.342585 0.110034 0.588973 0.217883
N1    N     N_R   0.499440 0.499140 0.142800 -0.136828
N2    N     N_R   0.499440 0.499180 0.857150 -0.120787
O1    O     O_R   0.500010 0.316790 0.614690 -0.616647
O2    O     O_2   0.291254 0.312873 0.793196 -0.586202
O3    O     O_2   0.158387 0.756556 0.351548 -0.522824
O4    O     O_R   0.500000 0.316760 0.385350 -0.590859
O5    O     O_R   0.378030 0.499990 0.614640 -0.615077
O6    O     O_R   0.378020 0.499950 0.385300 -0.593204
O7    O     O_R   0.500000 0.683240 0.614650 -0.613627
O8    O     O_R   0.499990 0.683210 0.385310 -0.561943
O9    O     O_R   0.621980 0.500050 0.614700 -0.633580
O10   O     O_R   0.621970 0.500010 0.385360 -0.582675
O11   O     O_2   0.050397 0.356980 0.815031 -0.516333
Zn1   Zn    Zn3+2 0.500010 0.500020 0.653130 0.982599
Zn2   Zn    Zn3+2 0.499990 0.499980 0.346870 1.044266

loop_
_geom_bond_atom_site_label_1
_geom_bond_atom_site_label_2
_ccdc_geom_bond_type
C2    Cl4   S    
C12   C17   A    
C24   H3    S    
C21   C26   S    
C8    N1    A    
C16   C28   S    
C6    C7    S    
C7    C29   S    
C6    H10   S    
C11   C13   S    
C7    H1    S    
N1    Zn2   S    
C19   C20   A    
C30   C31   A    
C4    O5    A    
C15   O7    A    
O9    Zn1   S    
C22   H2    S    
C2    C3    A    
C25   O3    D    
O8    Zn2   S    
C16   O9    A    
C23   C28   T    
C25   H4    S    
C10   H6    S    
C15   O8    A    
C26   C27   T    
C29   C30   A    
C24   O2    D    
C8    C11   A    
C11   N2    A    
C9    C10   A    
C1    C30   S    
O5    Zn1   S    
C17   C18   A    
C5    C29   A    
C2    C31   A    
C4    O6    A    
C22   O11   D    
C5    C6    S    
C31   Cl3   S    
N2    Zn1   S    
C20   C25   S    
C18   C23   S    
O6    Zn2   S    
C12   C22   S    
C4    C27   S    
C3    C15   S    
C20   C21   A    
C9    N1    A    
O4    Zn2   S    
C18   C19   A    
C1    O1    A    
C14   Cl1   S    
O1    Zn1   S    
C1    O4    A    
O7    Zn1   S    
C13   H7    S    
O10   Zn2   S    
C8    C14   S    
C6    H11   S    
C17   H9    S    
C13   C14   S    
C10   N2    A    
C12   C21   A    
C9    H5    S    
C13   C24   S    
C19   Cl2   S    
C14   H8    S    
C3    C5    A    
C16   O10   A    
C7    H12   S    
