data_mof_unit_9452.cif
_audit_creation_date              2012-10-26T20:32:03-0400
_audit_creation_method            fapswitch 2.2
_symmetry_space_group_name_H-M    P1
_symmetry_Int_Tables_number       1
_space_group_crystal_system       triclinic
_cell_length_a                    10.628784
_cell_length_b                    10.8193
_cell_length_c                    9.54949
_cell_angle_alpha                 90.048499
_cell_angle_beta                  89.47992
_cell_angle_gamma                 90.16834
_cell_volume                      1098.10282921

loop_
_atom_site_label
_atom_site_type_symbol
_atom_type_description
_atom_site_fract_x
_atom_site_fract_y
_atom_site_fract_z
_atom_type_partial_charge
C1    C     C_R   0.497572 0.262345 0.499942 0.545363
C2    C     C_R   0.487017 0.936549 0.625706 0.024314
C3    C     C_3   0.577592 0.930851 0.744206 -0.271240
C4    C     C_R   0.259289 0.499994 0.500662 0.549479
C5    C     C_3   0.576646 0.071158 0.744522 -0.267121
C6    C     C_R   0.560025 0.591770 0.073098 0.157754
C7    C     C_R   0.430887 0.416501 0.075039 -0.013847
C8    C     C_R   0.430849 0.416512 0.926171 -0.017349
C9    C     C_R   0.560297 0.591581 0.925731 0.159679
C10   C     C_3   0.697175 0.621994 0.918892 -0.281014
C11   C     C_3   0.696654 0.622569 0.077704 -0.280554
C12   C     C_3   0.961335 0.496964 0.366958 -0.111789
C13   C     C_R   0.497964 0.737682 0.499992 0.545389
C14   C     C_R   0.740742 0.499875 0.499449 0.549943
C15   C     C_3   0.038932 0.502673 0.633961 -0.115755
C16   C     C_3   0.956920 0.399692 0.568925 -0.126819
C17   C     C_3   0.877696 0.499693 0.498598 0.044058
C18   C     C_3   0.957384 0.602669 0.563636 -0.128223
C19   C     C_3   0.043180 0.599998 0.431981 -0.121714
C20   C     C_3   0.042745 0.397002 0.437325 -0.124623
C21   C     C_3   0.122401 0.499998 0.502108 0.047704
C22   C     C_R   0.486522 0.063751 0.625688 0.017160
C23   C     C_R   0.485072 0.129230 0.499906 0.006371
C24   C     C_R   0.466189 0.064257 0.374210 -0.166890
C25   C     C_R   0.466542 0.935379 0.374241 -0.166952
C26   C     C_R   0.485744 0.870790 0.499972 0.006199
Cu1   Cu    Cu3+1 0.499990 0.499980 0.640670 0.929185
Cu2   Cu    Cu3+1 0.500010 0.500020 0.359330 0.926920
H1    H     H_    0.918440 0.317731 0.624767 0.103800
H2    H     H_    0.081528 0.681994 0.376105 0.108910
H3    H     H_    0.080813 0.312844 0.385803 0.103880
H4    H     H_    0.457185 0.112322 0.275367 0.127390
H5    H     H_    0.457744 0.887069 0.275400 0.133474
H6    H     H_    0.534445 0.889853 0.840015 0.136003
H7    H     H_    0.669957 0.891161 0.712479 0.126053
H8    H     H_    0.532476 0.111147 0.840258 0.132526
H9    H     H_    0.376791 0.347425 0.870873 0.113158
H10   H     H_    0.928796 0.493835 0.257101 0.106131
H11   H     H_    0.668532 0.112918 0.713635 0.135228
H12   H     H_    0.376855 0.347399 0.131298 0.109865
H13   H     H_    0.754932 0.546056 0.873699 0.155010
H14   H     H_    0.715357 0.714579 0.872814 0.113306
H15   H     H_    0.753623 0.546734 0.122398 0.146846
H16   H     H_    0.714059 0.715523 0.123390 0.122660
H17   H     H_    0.073278 0.505022 0.743385 0.116419
H18   H     H_    0.919175 0.686728 0.615267 0.100922
N1    N     N_R   0.500800 0.500930 0.147930 -0.229756
N2    N     N_R   0.500800 0.500890 0.852020 -0.230472
O1    O     O_R   0.500000 0.319640 0.618810 -0.505169
O2    O     O_R   0.500010 0.319680 0.381230 -0.512635
O3    O     O_R   0.316850 0.499950 0.618770 -0.506982
O4    O     O_R   0.316860 0.499990 0.381190 -0.504971
O5    O     O_R   0.499990 0.680320 0.618770 -0.496112
O6    O     O_R   0.500000 0.680360 0.381190 -0.506733
O7    O     O_R   0.683140 0.500010 0.618810 -0.508309
O8    O     O_R   0.683150 0.500050 0.381230 -0.506073

loop_
_geom_bond_atom_site_label_1
_geom_bond_atom_site_label_2
_ccdc_geom_bond_type
Cu1   N2    S    
C12   C17   S    
C15   C18   S    
C14   O8    A    
C23   C24   A    
Cu1   O5    S    
Cu2   N1    S    
C11   H15   S    
C1    O2    A    
C10   H14   S    
C9    C10   S    
C6    C11   S    
C3    H7    S    
C7    H12   S    
C12   C20   S    
C6    C9    A    
C24   H4    S    
C2    C3    S    
Cu2   O8    S    
C7    C8    A    
C2    C26   A    
C25   C26   A    
C2    C22   A    
C24   C25   A    
C10   H13   S    
C4    C21   S    
Cu2   O4    S    
C14   C17   S    
C15   C21   S    
C1    O1    A    
C4    O4    A    
C18   H18   S    
C12   C19   S    
C16   C20   S    
C19   C21   S    
Cu1   O3    S    
C14   O7    A    
C1    C23   S    
C13   O5    A    
C5    H11   S    
C12   H10   S    
Cu1   O7    S    
C13   C26   S    
C8    H9    S    
C15   H17   S    
C4    O3    A    
C15   C16   S    
C5    H8    S    
C6    N1    A    
C11   H16   S    
C20   C21   S    
C9    N2    A    
C17   C18   S    
C13   O6    A    
C10   C11   S    
Cu1   Cu2   S    
Cu2   O6    S    
C22   C23   A    
C18   C19   S    
C3    H6    S    
C3    C5    S    
C16   H1    S    
C19   H2    S    
Cu2   O2    S    
C5    C22   S    
Cu1   O1    S    
C25   H5    S    
C16   C17   S    
C8    N2    A    
C20   H3    S    
C7    N1    A    
