data_mof_unit_60337.cif
_audit_creation_date              2012-12-10T18:56:01-0500
_audit_creation_method            fapswitch 2.2
_symmetry_space_group_name_H-M    P1
_symmetry_Int_Tables_number       1
_space_group_crystal_system       triclinic
_cell_length_a                    17.048609
_cell_length_b                    18.221261
_cell_length_c                    19.442336
_cell_angle_alpha                 89.406799
_cell_angle_beta                  88.329031
_cell_angle_gamma                 95.275011
_cell_volume                      6011.05465354

loop_
_atom_site_label
_atom_site_type_symbol
_atom_type_description
_atom_site_fract_x
_atom_site_fract_y
_atom_site_fract_z
_atom_type_partial_charge
C1    C     C_R   0.497735 0.500293 0.367768 0.791753
C2    C     C_R   0.502265 0.499706 0.632232 0.791754
C3    C     C_R   0.541090 0.445891 0.816424 -0.197922
C4    C     C_R   0.458911 0.554104 0.183575 -0.197922
C5    C     C_R   0.502761 0.499384 0.852148 0.086547
C6    C     C_R   0.497242 0.500611 0.147852 0.086546
C7    C     C_R   0.466737 0.552917 0.815455 -0.168521
C8    C     C_R   0.533267 0.447080 0.184545 -0.168524
C9    C     C_R   0.468292 0.552730 0.743981 -0.183353
C10   C     C_R   0.531710 0.447268 0.256019 -0.183346
C11   C     C_R   0.505811 0.499039 0.707668 -0.058653
C12   C     C_R   0.494190 0.500960 0.292332 -0.058649
C13   C     C_R   0.515910 0.566192 0.963055 -0.167790
C14   C     C_R   0.484093 0.433801 0.036944 -0.167789
C15   C     C_R   0.514726 0.566457 0.034680 -0.182367
C16   C     C_R   0.485278 0.433536 0.965320 -0.182364
C17   C     C_R   0.498808 0.500265 0.072144 0.107110
C18   C     C_R   0.501195 0.499729 0.927856 0.107108
C19   C     C_R   0.557117 0.729022 0.464558 0.212471
C20   C     C_R   0.442884 0.270977 0.535442 0.212469
C21   C     C_R   0.554934 0.805857 0.464298 -0.309322
C22   C     C_R   0.445070 0.194143 0.535705 -0.309329
C23   C     C_R   0.650833 0.509868 0.500414 0.845912
C24   C     C_R   0.349167 0.490132 0.499586 0.845901
C25   C     C_R   0.495223 0.838604 0.499927 0.099932
C26   C     C_R   0.504784 0.161396 0.500079 0.099931
C27   C     C_R   0.437956 0.791674 0.536412 -0.288062
C28   C     C_R   0.562050 0.208327 0.463594 -0.288068
C29   C     C_R   0.441330 0.714592 0.535637 0.087462
C30   C     C_R   0.558674 0.285409 0.464367 0.087464
C31   C     C_R   0.475868 0.959134 0.559484 -0.172476
C32   C     C_R   0.524141 0.040867 0.440524 -0.172478
C33   C     C_R   0.480529 0.036561 0.559860 -0.182322
C34   C     C_R   0.519480 0.963440 0.440147 -0.182319
C35   C     C_R   0.504527 0.078762 0.500330 0.123800
C36   C     C_R   0.495482 0.921239 0.499677 0.123801
C37   C     C_R   0.736578 0.516330 0.503137 -0.093214
C38   C     C_R   0.263422 0.483670 0.496862 -0.093209
C39   C     C_R   0.778532 0.471904 0.459944 -0.316029
C40   C     C_R   0.221467 0.528094 0.540056 -0.316030
C41   C     C_R   0.859990 0.473827 0.463154 -0.163227
C42   C     C_R   0.140010 0.526171 0.536847 -0.163229
C43   C     C_R   0.900872 0.520163 0.510473 0.316074
C44   C     C_R   0.099128 0.479837 0.489526 0.316076
C45   C     C_R   0.858833 0.564864 0.553177 -0.239010
C46   C     C_R   0.141167 0.435138 0.446821 -0.239012
C47   C     C_R   0.777022 0.563073 0.550280 0.310378
C48   C     C_R   0.222978 0.436929 0.449717 0.310386
C49   C     C_R   0.543922 0.445284 0.744382 -0.003455
C50   C     C_R   0.456078 0.554713 0.255617 -0.003451
Cu1   Cu    Cu3+1 0.500020 0.573360 0.500000 0.976123
Cu2   Cu    Cu3+1 0.499980 0.426640 0.500000 0.976123
H1    H     H_    0.251953 0.564499 0.576310 0.158298
H2    H     H_    0.748046 0.435498 0.423692 0.158298
H3    H     H_    0.527294 0.618231 0.060817 0.127000
H4    H     H_    0.472712 0.381763 0.939183 0.127000
H5    H     H_    0.601580 0.840146 0.437325 0.134061
H6    H     H_    0.398424 0.159852 0.562677 0.134061
H7    H     H_    0.390385 0.814205 0.564839 0.129270
H8    H     H_    0.609623 0.185797 0.435170 0.129270
H9    H     H_    0.396683 0.679611 0.564014 0.115884
H10   H     H_    0.603321 0.320390 0.435990 0.115885
H11   H     H_    0.458575 0.928993 0.606607 0.130541
H12   H     H_    0.541433 0.071007 0.393400 0.130542
H13   H     H_    0.466017 0.063503 0.607318 0.127369
H14   H     H_    0.533991 0.936498 0.392689 0.127371
H15   H     H_    0.109493 0.561268 0.571053 0.164023
H16   H     H_    0.890506 0.438729 0.428949 0.164022
H17   H     H_    0.889927 0.600215 0.589874 0.175708
H18   H     H_    0.110074 0.399788 0.410122 0.175706
H19   H     H_    0.571045 0.405806 0.844806 0.134619
H20   H     H_    0.428955 0.594187 0.155191 0.134621
H21   H     H_    0.436172 0.594268 0.842149 0.130196
H22   H     H_    0.563833 0.405728 0.157853 0.130195
H23   H     H_    0.438632 0.593993 0.716960 0.144128
H24   H     H_    0.561371 0.406005 0.283042 0.144127
H25   H     H_    0.529461 0.617761 0.935144 0.134297
H26   H     H_    0.470542 0.382233 0.064856 0.134297
N1    N     N_2   0.983673 0.523032 0.517521 -0.250202
N2    N     N_2   0.016327 0.476968 0.482478 -0.250202
N3    N     N_R   0.500010 0.683620 0.500020 -0.175484
N4    N     N_R   0.499990 0.316380 0.499980 -0.175480
O1    O     O_R   0.500030 0.561980 0.400180 -0.588705
O2    O     O_R   0.499970 0.438020 0.599820 -0.588706
O3    O     O_R   0.500000 0.438070 0.400190 -0.566463
O4    O     O_R   0.500000 0.561930 0.599810 -0.566462
O5    O     O_R   0.613940 0.568730 0.499360 -0.533460
O6    O     O_R   0.386060 0.431270 0.500640 -0.533457
O7    O     O_R   0.613910 0.444830 0.499370 -0.608898
O8    O     O_R   0.386090 0.555170 0.500630 -0.608901
C51   C     C_R   0.625315 0.701142 0.428263 0.126966
C52   C     C_R   0.619308 0.675006 0.360893 -0.130651
C53   C     C_R   0.685156 0.651667 0.325862 -0.170538
C54   C     C_R   0.758359 0.657336 0.356827 -0.119314
C55   C     C_R   0.765911 0.687473 0.422344 -0.127464
C56   C     C_R   0.699811 0.709935 0.457741 -0.107620
H27   H     H_    0.563988 0.673180 0.335341 0.143968
H28   H     H_    0.679568 0.630040 0.274415 0.136694
H29   H     H_    0.809417 0.639489 0.329663 0.135227
H30   H     H_    0.822915 0.693275 0.445787 0.145367
H31   H     H_    0.706488 0.733975 0.508165 0.171722
C57   C     C_R   0.374678 0.298854 0.571726 0.126965
C58   C     C_R   0.300188 0.290050 0.542240 -0.107606
C59   C     C_R   0.234079 0.312508 0.577625 -0.127451
C60   C     C_R   0.241617 0.342655 0.643138 -0.119313
C61   C     C_R   0.314814 0.348338 0.674112 -0.170546
C62   C     C_R   0.380670 0.325001 0.639093 -0.130651
H32   H     H_    0.293522 0.266004 0.491818 0.171710
H33   H     H_    0.177078 0.306697 0.554176 0.145368
H34   H     H_    0.190551 0.360500 0.670294 0.135230
H35   H     H_    0.320391 0.369972 0.725556 0.136693
H36   H     H_    0.435986 0.326836 0.664653 0.143966
Cl1   Cl    Cl    0.727422 0.616545 0.609471 -0.670885
Cl2   Cl    Cl    0.272578 0.383456 0.390527 -0.670885
C63   C     C_R   0.589667 0.389859 0.709792 0.104976
C64   C     C_R   0.572731 0.314345 0.724991 -0.187135
C65   C     C_R   0.614090 0.262055 0.690828 -0.125694
C66   C     C_R   0.673910 0.284729 0.642510 -0.108827
C67   C     C_R   0.692989 0.359751 0.628799 -0.116911
C68   C     C_R   0.651340 0.412141 0.662493 -0.080488
H37   H     H_    0.526187 0.295908 0.762011 0.119108
H38   H     H_    0.599644 0.203935 0.701723 0.128745
H39   H     H_    0.705782 0.244201 0.616014 0.126084
H40   H     H_    0.739942 0.377301 0.591955 0.140419
H41   H     H_    0.666722 0.470000 0.651542 0.152228
C69   C     C_R   0.410328 0.610138 0.290204 0.104961
C70   C     C_R   0.348661 0.587856 0.337510 -0.080464
C71   C     C_R   0.307007 0.640247 0.371200 -0.116907
C72   C     C_R   0.326073 0.715269 0.357477 -0.108834
C73   C     C_R   0.385886 0.737942 0.309152 -0.125695
C74   C     C_R   0.427250 0.685651 0.274993 -0.187146
H42   H     H_    0.333288 0.529998 0.348470 0.152222
H43   H     H_    0.260059 0.622698 0.408051 0.140419
H44   H     H_    0.294197 0.755798 0.383970 0.126082
H45   H     H_    0.400322 0.796062 0.298247 0.128745
H46   H     H_    0.473789 0.704088 0.237967 0.119111

loop_
_geom_bond_atom_site_label_1
_geom_bond_atom_site_label_2
_ccdc_geom_bond_type
C60   H34   S    
C53   C54   A    
C20   N4    A    
C27   C29   A    
C62   H36   S    
C2    O2    A    
C73   H45   S    
C71   C72   A    
C34   H14   S    
C3    C49   A    
C33   H13   S    
C39   C41   A    
C67   H40   S    
C29   N3    A    
C69   C70   A    
C13   C18   A    
C69   C74   A    
Cu2   O3    S    
C19   C21   A    
Cu1   O8    S    
C59   H33   S    
C39   H2    S    
C20   C57   S    
C61   C62   A    
C43   N1    S    
C63   C64   A    
C64   C65   A    
C47   Cl1   S    
Cu2   O2    S    
C70   H42   S    
C51   C56   A    
C66   C67   A    
C10   H24   S    
C55   C56   A    
C24   C38   S    
C23   O7    A    
C58   H32   S    
C50   C69   S    
C37   C47   A    
Cu1   N3    S    
C38   C48   A    
C40   C42   A    
C23   O5    A    
C56   H31   S    
C41   C43   A    
C14   C17   A    
Cu2   O7    S    
C57   C58   A    
C1    C12   S    
C42   C44   A    
C2    C11   S    
Cu1   O4    S    
C8    H22   S    
C59   C60   A    
C44   C46   A    
C52   H27   S    
C41   H16   S    
C13   H25   S    
C61   H35   S    
C45   C47   A    
C1    O3    A    
C29   H9    S    
C64   H37   S    
C45   H17   S    
Cu1   Cu2   S    
C32   C35   A    
C31   H11   S    
Cu2   O6    S    
C32   H12   S    
C4    C6    A    
C74   H46   S    
Cu1   O5    S    
C51   C52   A    
C5    C7    A    
C68   H41   S    
C6    C8    A    
C5    C18   S    
C23   C37   S    
C72   H44   S    
C4    C50   A    
C32   C34   A    
C30   N4    A    
C3    H19   S    
C65   H38   S    
C16   H4    S    
C21   H5    S    
C11   C49   A    
C43   C45   A    
C71   H43   S    
C44   N2    S    
C7    H21   S    
C31   C33   A    
C57   C62   A    
Cu2   N4    S    
C9    C11   A    
C28   H8    S    
C10   C12   A    
C16   C18   A    
C49   C63   S    
C20   C22   A    
C40   H1    S    
C30   H10   S    
C42   H15   S    
C14   C16   A    
C1    O1    A    
C70   C71   A    
Cu1   O1    S    
C4    H20   S    
C48   Cl2   S    
C72   C73   A    
C15   C17   A    
C6    C17   S    
C21   C25   A    
C55   H30   S    
C24   O6    A    
C3    C5    A    
C24   O8    A    
C22   H6    S    
C12   C50   A    
C67   C68   A    
C25   C27   A    
C60   C61   A    
C26   C28   A    
C13   C15   A    
C73   C74   A    
C37   C39   A    
C27   H7    S    
C65   C66   A    
C38   C40   A    
C54   H29   S    
C28   C30   A    
C52   C53   A    
C33   C35   A    
C2    O4    A    
C34   C36   A    
C66   H39   S    
C14   H26   S    
C54   C55   A    
C46   H18   S    
C19   C51   S    
C25   C36   S    
N1    N2    D    
C46   C48   A    
C7    C9    A    
C26   C35   S    
C8    C10   A    
C63   C68   A    
C22   C26   A    
C58   C59   A    
C31   C36   A    
C9    H23   S    
C19   N3    A    
C53   H28   S    
C15   H3    S    
