data_mof_unit_57727.cif
_audit_creation_date              2013-03-05T15:45:14-0500
_audit_creation_method            fapswitch 2.2
_symmetry_space_group_name_H-M    P1
_symmetry_Int_Tables_number       1
_space_group_crystal_system       triclinic
_cell_length_a                    16.91525
_cell_length_b                    7.304303
_cell_length_c                    17.223445
_cell_angle_alpha                 89.725829
_cell_angle_beta                  99.850415
_cell_angle_gamma                 89.44825
_cell_volume                      2096.51362166

loop_
_atom_site_label
_atom_site_type_symbol
_atom_site_description
_atom_site_fract_x
_atom_site_fract_y
_atom_site_fract_z
_atom_type_partial_charge
O1    O     O_R   0.579510 0.506290 0.439030 -0.593470
O2    O     O_R   0.420490 0.006290 0.560970 -0.595189
O3    O     O_R   0.412540 0.170090 0.405290 -0.511679
O4    O     O_R   0.587460 0.670090 0.594710 -0.520397
C1    C     C_R   0.388873 0.348787 0.379597 0.927754
C2    C     C_R   0.613355 0.846279 0.619237 0.869799
O5    O     O_R   0.578390 0.176230 0.429330 -0.576432
O6    O     O_R   0.421610 0.676230 0.570670 -0.582474
O7    O     O_R   0.587530 0.011250 0.585190 -0.529116
O8    O     O_R   0.412470 0.511250 0.414810 -0.531088
C3    C     C_R   0.605434 0.345870 0.415592 0.973585
C4    C     C_R   0.395134 0.846428 0.584655 0.961347
O9    O     O_3   0.502800 0.340940 0.551110 -0.227927
O10   O     O_3   0.497200 0.840940 0.448890 -0.218615
V1    V     V_3+5 0.499480 0.064020 0.490520 1.334037
V2    V     V_3+5 0.500520 0.564020 0.509480 1.325390
C5    C     C_R   0.168933 0.906605 0.861713 -0.222757
C6    C     C_R   0.832163 0.407918 0.138957 -0.231118
C7    C     C_R   0.331226 0.868311 0.634132 -0.166943
C8    C     C_R   0.670840 0.368389 0.367258 -0.161956
C9    C     C_R   0.220145 0.056530 0.664533 0.011261
C10   C     C_R   0.775965 0.567336 0.333072 0.002142
C11   C     C_R   0.274668 0.009417 0.615399 -0.123273
C12   C     C_R   0.721305 0.519773 0.381877 -0.109159
C13   C     C_R   0.331781 0.766609 0.703320 -0.049000
C14   C     C_R   0.678273 0.256533 0.302993 -0.053806
C15   C     C_R   0.280036 0.818956 0.758040 0.120965
C16   C     C_R   0.726311 0.314413 0.246030 0.115521
C17   C     C_R   0.222666 0.965461 0.738568 -0.036001
C18   C     C_R   0.778534 0.468427 0.262071 -0.034267
C19   C     C_R   0.170096 0.014107 0.793239 0.236411
C20   C     C_R   0.830421 0.516304 0.206717 0.238103
C21   C     C_R   0.233287 0.784794 0.884242 0.040988
C22   C     C_R   0.769728 0.283787 0.118051 0.045177
C23   C     C_R   0.287274 0.737480 0.833548 -0.019983
C24   C     C_R   0.718932 0.231932 0.171051 -0.030069
H1    H     H_    0.272637 0.085568 0.560859 0.146077
H2    H     H_    0.718836 0.603541 0.433214 0.137569
C25   C     C_3   0.749626 0.755556 0.839061 0.489618
C26   C     C_3   0.255240 0.253216 0.161691 0.475180
C27   C     C_3   0.670038 0.756737 0.770573 0.076112
C28   C     C_3   0.337857 0.270985 0.226704 0.045199
H3    H     H_    0.765683 0.655867 0.661385 0.270663
H4    H     H_    0.246192 0.155138 0.333029 0.284709
C29   C     C_3   0.844194 0.850337 0.734215 0.232258
C30   C     C_3   0.160167 0.346124 0.266240 0.223933
C31   C     C_3   0.764036 0.088458 0.797132 -0.317340
C32   C     C_3   0.233964 0.589108 0.200779 -0.306760
C33   C     C_3   0.812042 0.903306 0.815416 -0.502449
C34   C     C_3   0.189716 0.400331 0.184316 -0.466884
H5    H     H_    0.811403 0.180900 0.788021 0.271373
H6    H     H_    0.185568 0.681330 0.210569 0.273103
C35   C     C_3   0.684994 0.869883 0.692448 -0.407435
C36   C     C_3   0.319765 0.377826 0.305159 -0.411106
C37   C     C_3   0.767900 0.804648 0.668631 -0.193653
C38   C     C_3   0.238983 0.303583 0.329442 -0.218270
C39   C     C_3   0.696649 0.082788 0.718476 0.560508
C40   C     C_3   0.304598 0.591122 0.278020 0.553268
O11   O     O_R   0.087500 0.266000 0.085220 -0.501667
O12   O     O_R   0.912500 0.766000 0.914780 -0.505273
O13   O     O_R   0.921600 0.589950 0.070670 -0.528016
O14   O     O_R   0.078400 0.089950 0.929330 -0.529425
C41   C     C_R   0.896013 0.422169 0.086967 1.040050
C42   C     C_R   0.104378 0.921664 0.913278 1.035489
O15   O     O_R   0.087460 0.596020 0.094710 -0.617138
O16   O     O_R   0.912540 0.096020 0.905290 -0.611285
O17   O     O_R   0.079520 0.760970 0.939020 -0.568489
O18   O     O_R   0.920480 0.260970 0.060980 -0.567783
C43   C     C_R   0.115191 0.424317 0.117049 1.010259
C44   C     C_R   0.885233 0.926085 0.882948 1.022405
O19   O     O_3   0.997180 0.425140 0.948910 -0.233059
O20   O     O_3   0.002820 0.925140 0.051090 -0.235282
V3    V     V_3+5 0.000520 0.702080 0.009480 1.403330
V4    V     V_3+5 0.999480 0.202080 0.990520 1.408144
N1    N     N_R   0.129956 0.188114 0.787905 0.227278
O21   O     O_R   0.053306 0.200586 0.762630 -0.403534
O22   O     O_R   0.168239 0.330701 0.819135 -0.376006
N2    N     N_R   0.871676 0.686955 0.211862 0.224350
O23   O     O_R   0.946555 0.695157 0.244648 -0.409815
O24   O     O_R   0.837964 0.828045 0.172695 -0.373579
N3    N     N_R   0.648543 0.569487 0.754721 0.260695
O25   O     O_R   0.625906 0.475948 0.811016 -0.324329
O26   O     O_R   0.668753 0.486774 0.695510 -0.312108
N4    N     N_R   0.374316 0.091542 0.247327 0.286837
O27   O     O_R   0.445623 0.051274 0.233251 -0.371790
O28   O     O_R   0.345877 0.990610 0.296726 -0.291867
N5    N     N_R   0.904111 0.697617 0.742293 0.270024
O29   O     O_R   0.902686 0.580058 0.685422 -0.314495
O30   O     O_R   0.972540 0.715665 0.789058 -0.400118
N6    N     N_R   0.103724 0.189668 0.259967 0.273312
O31   O     O_R   0.034923 0.202196 0.213052 -0.392958
O32   O     O_R   0.107455 0.075423 0.318791 -0.311365
N7    N     N_3   0.736153 0.169890 0.865329 -0.102636
H7    H     H_    0.697614 0.087028 0.889716 0.185954
H8    H     H_    0.784536 0.187904 0.909979 0.197761
N8    N     N_3   0.258010 0.664412 0.129745 -0.117319
H9    H     H_    0.298757 0.581324 0.107729 0.166363
H10   H     H_    0.209621 0.681727 0.085147 0.201776
N9    N     N_R   0.617316 0.162465 0.733108 0.251461
O33   O     O_R   0.567839 0.242513 0.678007 -0.280551
O34   O     O_R   0.591869 0.158445 0.800161 -0.392340
N10   N     N_R   0.381629 0.675297 0.260094 0.253183
O35   O     O_R   0.445287 0.691868 0.313184 -0.319628
O36   O     O_R   0.390664 0.737345 0.191389 -0.351426
N11   N     N_R   0.726679 0.193173 0.654071 0.258246
O37   O     O_R   0.795798 0.273523 0.665012 -0.338291
O38   O     O_R   0.681324 0.240123 0.588258 -0.340305
N12   N     N_R   0.276814 0.702563 0.342398 0.240140
O39   O     O_R   0.203986 0.765048 0.336896 -0.362221
O40   O     O_R   0.326481 0.766478 0.401802 -0.331591
N13   N     N_3   0.886744 0.007487 0.708036 -0.152004
H11   H     H_    0.919307 0.969139 0.664142 0.158915
H12   H     H_    0.928973 0.052780 0.754928 0.177966
N14   N     N_3   0.115390 0.499990 0.292749 -0.163073
H13   H     H_    0.086568 0.458739 0.338986 0.154411
H14   H     H_    0.070125 0.540176 0.246899 0.178544
N15   N     N_3   0.777625 0.875828 0.590615 -0.170792
H15   H     H_    0.829351 0.817102 0.575209 0.150542
H16   H     H_    0.731398 0.827865 0.547695 0.106040
N16   N     N_3   0.231453 0.350704 0.411133 -0.220610
H17   H     H_    0.213608 0.485426 0.417414 0.178477
H18   H     H_    0.188009 0.268076 0.429690 0.153035
N17   N     N_3   0.250826 0.728887 0.964276 -0.200115
H19   H     H_    0.302465 0.797145 0.990746 0.167676
H20   H     H_    0.263761 0.589876 0.965974 0.174565
N18   N     N_3   0.750710 0.230639 0.037768 -0.193209
H21   H     H_    0.698588 0.301572 0.012429 0.165682
H22   H     H_    0.737443 0.092517 0.036016 0.178287
N19   N     N_3   0.161910 0.194535 0.634837 -0.205535
H23   H     H_    0.104295 0.144135 0.634604 0.175253
H24   H     H_    0.172257 0.312916 0.668598 0.177093
N20   N     N_3   0.827513 0.717216 0.359256 -0.208156
H25   H     H_    0.887281 0.673765 0.365955 0.184051
H26   H     H_    0.815416 0.827120 0.319932 0.167837
N21   N     N_3   0.351792 0.611576 0.861329 -0.223406
H27   H     H_    0.386951 0.662210 0.912387 0.133097
H28   H     H_    0.328306 0.484449 0.872954 0.173492
N22   N     N_3   0.655854 0.104309 0.145639 -0.220681
H29   H     H_    0.618582 0.154709 0.095212 0.137053
H30   H     H_    0.680843 0.978436 0.133477 0.175242
N23   N     N_3   0.385948 0.612562 0.715989 -0.185285
H31   H     H_    0.354856 0.494476 0.726479 0.152003
H32   H     H_    0.433532 0.639701 0.761504 0.142040
N24   N     N_3   0.638500 0.083480 0.298518 -0.180238
H33   H     H_    0.678131 0.979678 0.287728 0.132257
H34   H     H_    0.588131 0.089352 0.254486 0.194114
N25   N     N_R   0.789603 0.574043 0.846932 0.263378
O41   O     O_R   0.805804 0.487141 0.786663 -0.355316
O42   O     O_R   0.812863 0.500343 0.916131 -0.378531
N26   N     N_R   0.220171 0.069047 0.158887 0.259848
O43   O     O_R   0.209659 0.983175 0.221408 -0.362281
O44   O     O_R   0.188072 0.999404 0.091533 -0.375431
N27   N     N_R   0.727713 0.788106 0.918350 0.192176
O45   O     O_R   0.672732 0.687406 0.941016 -0.382143
O46   O     O_R   0.781982 0.846383 0.975166 -0.440618
N28   N     N_R   0.273852 0.277956 0.080729 0.187247
O47   O     O_R   0.326809 0.168019 0.058598 -0.391800
O48   O     O_R   0.218828 0.339126 0.024398 -0.440539
N29   N     N_3   0.598974 0.835215 0.797145 -0.171301
H35   H     H_    0.575471 0.758926 0.838845 0.207394
H36   H     H_    0.551475 0.839706 0.749385 0.089607
N30   N     N_3   0.398566 0.375325 0.192814 -0.197291
H37   H     H_    0.419804 0.308929 0.147067 0.202689
H38   H     H_    0.450077 0.387568 0.235840 0.133546

loop_
_geom_bond_atom_site_label_1
_geom_bond_atom_site_label_2
_geom_bond_distance
_ccdc_geom_bond_type
C39   N11   1.526673 S    
N5    O29   1.302969 A    
N7    H7    1.032741 S    
C15   C17   1.436867 A    
N13   H11   1.046386 S    
O1    C3    1.335464 A    
O2    C4    1.333716 A    
C2    O7    1.371929 A    
N3    O25   1.295867 A    
N17   H19   1.045810 S    
C25   C27   1.631034 S    
O5    C3    1.358589 A    
N11   O38   1.297980 A    
N18   H21   1.045751 S    
C25   N27   1.494473 S    
N28   O47   1.303245 A    
C29   N5    1.489771 S    
C34   C43   1.567222 S    
N4    O28   1.280507 A    
N19   H23   1.044472 S    
C32   H6    1.090892 S    
N15   H16   1.044324 S    
C5    C42   1.524379 S    
C36   C40   1.629693 S    
N2    O24   1.301053 A    
C6    C41   1.520311 S    
N17   H20   1.035844 S    
O18   V4    1.998067 S    
C39   N9    1.518245 S    
C26   C34   1.632130 S    
O12   V3    2.059982 S    
O15   V3    2.036240 S    
N12   O39   1.297581 A    
O13   C41   1.347780 A    
O14   C42   1.347183 A    
N25   O41   1.286802 A    
C27   N29   1.469865 S    
C19   N1    1.430318 S    
N28   O48   1.298497 A    
C8    C12   1.400742 A    
N20   H25   1.043900 S    
C26   N28   1.491690 S    
N8    H10   1.028561 S    
C12   H2    1.084095 S    
N29   H36   1.047078 S    
O17   V3    2.001107 S    
O12   C44   1.333253 A    
N27   O46   1.298318 A    
C32   N8    1.460468 S    
C22   C24   1.409387 A    
C22   N18   1.421804 S    
C10   N20   1.432043 S    
C32   C34   1.578905 S    
C27   C35   1.633237 S    
O6    V2    2.008143 S    
C38   N16   1.476297 S    
C5    C21   1.400237 A    
C14   N24   1.433839 S    
N3    O26   1.281840 A    
N16   H18   1.045693 S    
N14   H13   1.046911 S    
N30   H38   1.047658 S    
C35   C37   1.596200 S    
C36   C38   1.594923 S    
C3    C8    1.503805 S    
C30   N14   1.467001 S    
C42   O17   1.348845 A    
C1    C36   1.592189 S    
N21   H27   1.045099 S    
C16   C24   1.414213 A    
C28   N4    1.459273 S    
N4    O27   1.301550 A    
O20   V4    2.267351 S    
C23   N21   1.436497 S    
O19   V3    2.277208 S    
C35   C39   1.624986 S    
N2    O23   1.297613 A    
O20   V3    1.781177 S    
C31   H5    1.083954 S    
O5    V1    2.014508 S    
C15   C23   1.413233 A    
C11   H1    1.084699 S    
C9    C17   1.429331 A    
O4    V2    2.052326 S    
C7    C11   1.397805 A    
N1    O21   1.297329 A    
N26   O44   1.301842 A    
C31   C39   1.615368 S    
C6    C22   1.399484 A    
H4    C38   1.090228 S    
N6    O32   1.302246 A    
N29   H35   1.040446 S    
C29   C33   1.631810 S    
O6    C4    1.353928 A    
C27   N3    1.434089 S    
N8    H9    1.034767 S    
C29   N13   1.470023 S    
C31   N7    1.465183 S    
C26   N26   1.473108 S    
N13   H12   1.040053 S    
O1    V2    1.996036 S    
N10   O36   1.298887 A    
O2    V1    1.999014 S    
N1    O22   1.300985 A    
O11   V4    2.069996 S    
C9    N19   1.432354 S    
N22   H30   1.045237 S    
O11   C43   1.336348 A    
N20   H26   1.043672 S    
C40   N10   1.523952 S    
N24   H34   1.039609 S    
N9    O34   1.299967 A    
C33   C44   1.557688 S    
C9    C11   1.396031 A    
C13   C15   1.442148 A    
C5    C19   1.416766 A    
C10   C12   1.396957 A    
O4    C2    1.406870 A    
C6    C20   1.417672 A    
C2    C35   1.603558 S    
C25   N25   1.477535 S    
C25   C33   1.615570 S    
O3    V1    2.036268 S    
N16   H17   1.038095 S    
N30   H37   1.040290 S    
C37   N15   1.474281 S    
H3    C37   1.094747 S    
N21   H28   1.045330 S    
C41   O18   1.347972 A    
N18   H22   1.035111 S    
C10   C18   1.430142 A    
N25   O42   1.301706 A    
O10   V1    1.781464 S    
C13   N23   1.436173 S    
N24   H33   1.045464 S    
O3    C1    1.408397 A    
O19   V4    1.774205 S    
N14   H14   1.040476 S    
C28   N30   1.480530 S    
C32   C40   1.629188 S    
C30   N6    1.488663 S    
C31   C33   1.573168 S    
N11   O37   1.298377 A    
C30   C34   1.623985 S    
C14   C16   1.441166 A    
N9    O33   1.287043 A    
O13   V3    2.014395 S    
N23   H32   1.044203 S    
O7    V1    2.043900 S    
C16   C18   1.435552 A    
C17   C19   1.444738 A    
O8    V2    2.052236 S    
N15   H15   1.045599 S    
C28   C36   1.635736 S    
C18   C20   1.445890 A    
N6    O31   1.300450 A    
O16   C44   1.362702 A    
C8    C14   1.401000 A    
O15   C43   1.365030 A    
C4    C7    1.494491 S    
C26   C28   1.641074 S    
C21   C23   1.409016 A    
N12   O40   1.299468 A    
C40   N12   1.514096 S    
N10   O35   1.294959 A    
C7    C13   1.399847 A    
N22   H29   1.045219 S    
C20   N2    1.430108 S    
C1    O8    1.366941 A    
C29   C37   1.601846 S    
N7    H8    1.032577 S    
O9    V2    1.774494 S    
C30   C38   1.597244 S    
C21   N17   1.416791 S    
N5    O30   1.300340 A    
N26   O43   1.282881 A    
O14   V4    2.008034 S    
N27   O45   1.301156 A    
N23   H31   1.045454 S    
C24   N22   1.436056 S    
N19   H24   1.043717 S    
O16   V4    2.052299 S    
