data_mof_unit_12394.cif
_audit_creation_date              2013-03-05T16:00:13-0500
_audit_creation_method            fapswitch 2.2
_symmetry_space_group_name_H-M    P1
_symmetry_Int_Tables_number       1
_space_group_crystal_system       triclinic
_cell_length_a                    12.671838
_cell_length_b                    13.489941
_cell_length_c                    23.230986
_cell_angle_alpha                 93.396849
_cell_angle_beta                  100.013307
_cell_angle_gamma                 83.805667
_cell_volume                      3884.50986665

loop_
_atom_site_label
_atom_site_type_symbol
_atom_site_description
_atom_site_fract_x
_atom_site_fract_y
_atom_site_fract_z
_atom_type_partial_charge
O1    O     O_R   0.366740 0.627150 0.485570 -0.571332
O2    O     O_R   0.544830 0.662520 0.504870 -0.645550
C1    C     C_R   0.440924 0.689512 0.490041 0.878356
O3    O     O_R   0.410930 0.482340 0.574190 -0.577943
O4    O     O_R   0.589010 0.517710 0.593490 -0.634755
C2    C     C_R   0.499384 0.500429 0.610268 0.918229
Zn1   Zn    Zn3+2 0.381090 0.476380 0.487110 1.054204
Zn2   Zn    Zn3+2 0.618910 0.523620 0.512890 0.989746
O5    O     O_R   0.455170 0.337480 0.495130 -0.565431
O6    O     O_R   0.633260 0.372850 0.514430 -0.615928
O7    O     O_R   0.410990 0.482290 0.406510 -0.630733
O8    O     O_R   0.589070 0.517660 0.425810 -0.550771
C3    C     C_R   0.558691 0.310540 0.508526 0.938070
C4    C     C_R   0.499422 0.502120 0.389857 0.893877
C5    C     C_R   0.413531 0.468143 0.111800 0.506936
N1    N     N_R   0.445229 0.549000 0.146130 -0.357754
C6    C     C_R   0.472770 0.631706 0.123109 0.533468
C7    C     C_R   0.474137 0.633459 0.062758 -0.145875
C8    C     C_R   0.451682 0.546235 0.027944 -0.073299
C9    C     C_R   0.419152 0.463717 0.052385 0.016342
C10   C     C_R   0.501984 0.717116 0.036557 0.515748
C11   C     C_R   0.514903 0.709829 0.977893 -0.236164
C12   C     C_R   0.496829 0.622008 0.943966 -0.113272
C13   C     C_R   0.464558 0.540110 0.968903 -0.017891
C14   C     C_R   0.447659 0.450984 0.935242 -0.001892
C15   C     C_R   0.413036 0.370331 0.959785 -0.156207
C16   C     C_R   0.397853 0.377006 0.017732 -0.150665
C17   C     C_R   0.509976 0.613732 0.885293 0.667505
N2    N     N_R   0.494352 0.526233 0.853745 -0.319586
C18   C     C_R   0.465601 0.445053 0.877535 0.534973
O9    O     O_2   0.379694 0.391007 0.135745 -0.555111
O10   O     O_2   0.502750 0.709728 0.158991 -0.512085
H1    H     H_    0.540438 0.773131 0.959270 0.203825
O11   O     O_2   0.538114 0.692003 0.859801 -0.530792
O12   O     O_2   0.452912 0.359565 0.844943 -0.550757
H2    H     H_    0.398189 0.301687 0.934465 0.193779
H3    H     H_    0.372483 0.312949 0.035703 0.190462
C19   C     C_R   0.592434 0.477472 0.771826 0.317474
C20   C     C_R   0.590299 0.469615 0.711348 -0.270623
H4    H     H_    0.660949 0.437017 0.694109 0.208145
C21   C     C_R   0.497923 0.504158 0.672751 -0.151446
C22   C     C_R   0.406526 0.547532 0.694080 -0.224144
H5    H     H_    0.336603 0.577666 0.664317 0.233684
C23   C     C_R   0.406415 0.555792 0.754066 0.465318
C24   C     C_R   0.499319 0.521562 0.792877 0.091277
C25   C     C_R   0.402724 0.605890 0.242598 -0.077763
H6    H     H_    0.344058 0.663774 0.222792 0.154716
C26   C     C_R   0.417817 0.594288 0.302658 -0.218853
H7    H     H_    0.370710 0.643742 0.329201 0.172030
C27   C     C_R   0.492010 0.517892 0.328146 -0.021112
C28   C     C_R   0.550853 0.453188 0.293571 -0.122509
H8    H     H_    0.604208 0.391001 0.311842 0.215528
C29   C     C_R   0.537315 0.465849 0.233911 -0.104345
H9    H     H_    0.583165 0.415427 0.207267 0.156426
C30   C     C_R   0.462145 0.541139 0.208113 0.288213
C31   C     C_R   0.715671 0.066943 0.490676 -0.190840
H10   H     H_    0.751150 0.217183 0.495503 0.200624
H11   H     H_    0.790120 0.042764 0.475259 0.193647
C32   C     C_R   0.591569 0.203971 0.513450 -0.143984
C33   C     C_R   0.298793 0.832752 0.489077 0.194983
C34   C     C_R   0.278806 0.928712 0.513724 0.412301
C35   C     C_R   0.365061 0.984255 0.533772 -0.199618
C36   C     C_R   0.463119 0.962798 0.512049 -0.001409
C37   C     C_R   0.483611 0.865616 0.487449 -0.034760
C38   C     C_R   0.539431 0.033789 0.511619 -0.054003
C39   C     C_R   0.640302 0.000002 0.494058 0.025665
C40   C     C_R   0.662767 0.900590 0.476047 0.463589
C41   C     C_R   0.581280 0.838249 0.466931 -0.219702
C42   C     C_R   0.516720 0.138193 0.522171 0.277279
C43   C     C_R   0.692645 0.167468 0.501438 -0.214520
C44   C     C_R   0.406046 0.796741 0.484868 -0.244113
H12   H     H_    0.350126 0.044801 0.564266 0.234583
H13   H     H_    0.596355 0.767932 0.443463 0.198413
C45   C     C_R   0.102623 0.325544 0.432453 -0.240503
H14   H     H_    0.260636 0.325223 0.411754 0.149616
H15   H     H_    0.907650 0.284941 0.423818 0.192979
H16   H     H_    0.084468 0.261258 0.403629 0.149618
N3    N     N_R   0.222200 0.444670 0.469780 -0.130730
C46   C     C_R   0.799149 0.617475 0.577223 -0.073111
C47   C     C_R   0.904767 0.624175 0.605034 -0.347125
C48   C     C_R   0.990710 0.570127 0.582835 0.351837
C49   C     C_R   0.968961 0.509599 0.531026 -0.125974
C50   C     C_R   0.859344 0.495627 0.508076 0.075212
C51   C     C_R   0.050839 0.459472 0.501305 0.027389
C52   C     C_R   0.027624 0.374531 0.464792 0.106162
C53   C     C_R   0.925378 0.345810 0.455165 -0.320434
C54   C     C_R   0.841012 0.413887 0.466637 0.345883
C55   C     C_R   0.151838 0.493922 0.502217 0.110436
C56   C     C_R   0.200419 0.362760 0.435414 0.118297
N4    N     N_R   0.776960 0.554790 0.529910 -0.124591
H17   H     H_    0.175422 0.559942 0.527669 0.175860
H18   H     H_    0.733683 0.656868 0.596229 0.166641
H19   H     H_    0.919129 0.667996 0.645675 0.194031
O13   O     O_3   0.524165 0.804443 0.068544 -0.589058
C57   C     C_3   0.428018 0.868915 0.067935 0.142705
H20   H     H_    0.433335 0.908769 0.111435 0.200896
H21   H     H_    0.353683 0.829121 0.061977 0.111460
C58   C     C_3   0.417755 0.946240 0.021042 -0.401483
H22   H     H_    0.493473 0.982964 0.026309 0.254912
H23   H     H_    0.404432 0.908641 0.976925 0.226164
C59   C     C_3   0.323886 0.025729 0.025434 -0.884533
H24   H     H_    0.247035 0.990825 0.019598 0.269546
H25   H     H_    0.318299 0.080103 0.990700 0.271937
H26   H     H_    0.336332 0.066510 0.068659 0.271112
O14   O     O_3   0.763448 0.864719 0.463940 -0.636812
C60   C     C_3   0.826872 0.822849 0.514907 0.089083
H27   H     H_    0.864485 0.748657 0.501774 0.198914
H28   H     H_    0.780295 0.811034 0.550165 0.120872
C61   C     C_3   0.916525 0.888453 0.539947 -0.396526
H29   H     H_    0.966319 0.894430 0.505820 0.282404
H30   H     H_    0.881503 0.963381 0.552952 0.213831
C62   C     C_3   0.988354 0.846742 0.594244 -0.741093
H31   H     H_    0.940602 0.841626 0.629567 0.235001
H32   H     H_    0.052302 0.896817 0.610075 0.289682
H33   H     H_    0.027265 0.772376 0.583506 0.310431
N5    N     N_R   0.415263 0.180181 0.536427 0.188347
O15   O     O_R   0.411553 0.227354 0.586678 -0.370278
O16   O     O_R   0.329598 0.184365 0.496190 -0.425623
N6    N     N_R   0.211859 0.772119 0.470181 0.213888
O17   O     O_R   0.141751 0.763110 0.503744 -0.418241
O18   O     O_R   0.199225 0.730213 0.417841 -0.400983
O19   O     O_3   0.175732 0.971166 0.517538 -0.607765
C63   C     C_3   0.123338 0.997241 0.460662 0.142915
H34   H     H_    0.094741 0.929475 0.435895 0.189568
H35   H     H_    0.177462 0.030503 0.435490 0.140389
C64   C     C_3   0.026661 0.074106 0.464448 -0.367768
H36   H     H_    0.984570 0.057636 0.500148 0.231649
H37   H     H_    0.055201 0.148819 0.475377 0.243351
C65   C     C_3   0.947643 0.075454 0.406592 -0.951216
H38   H     H_    0.985786 0.100855 0.371224 0.271658
H39   H     H_    0.874424 0.126219 0.410811 0.272658
H40   H     H_    0.921677 0.999858 0.394366 0.293545
N7    N     N_R   0.095772 0.564732 0.618385 0.168108
O20   O     O_R   0.153222 0.478942 0.625223 -0.425191
O21   O     O_R   0.126441 0.641039 0.651533 -0.445938
N8    N     N_R   0.754496 0.416868 0.419519 0.224137
O22   O     O_R   0.758435 0.476321 0.377907 -0.395267
O23   O     O_R   0.703587 0.337541 0.406415 -0.476029
N9    N     N_R   0.688647 0.440987 0.810680 0.232769
O24   O     O_R   0.707223 0.472443 0.865173 -0.368544
O25   O     O_R   0.762128 0.380198 0.790735 -0.368108
O26   O     O_3   0.319227 0.606039 0.775364 -0.617117
C66   C     C_3   0.241386 0.539067 0.776395 0.123269
H41   H     H_    0.272997 0.479585 0.807752 0.144937
H42   H     H_    0.217345 0.503384 0.732453 0.224232
C67   C     C_3   0.142016 0.596214 0.795977 -0.333921
H43   H     H_    0.164083 0.626270 0.841593 0.222224
H44   H     H_    0.112756 0.660048 0.767340 0.272288
C68   C     C_3   0.051489 0.529182 0.793268 -0.834247
H45   H     H_    0.026120 0.500736 0.747623 0.283296
H46   H     H_    0.981089 0.572573 0.808350 0.278404
H47   H     H_    0.078516 0.465136 0.821996 0.271793

loop_
_geom_bond_atom_site_label_1
_geom_bond_atom_site_label_2
_geom_bond_distance
_ccdc_geom_bond_type
C66   C67   1.528077 S    
C50   C54   1.431183 A    
C36   C38   1.434115 A    
C42   N5    1.432513 S    
C64   H36   1.105851 S    
C7    C10   1.417962 A    
C21   C22   1.395766 A    
C8    C9    1.409511 A    
C62   H32   1.110519 S    
C48   C49   1.417041 A    
C57   C58   1.532261 S    
C63   H34   1.111170 S    
C20   C21   1.399335 A    
C29   H9    1.083154 S    
Zn1   O7    1.981610 S    
C15   C16   1.388963 A    
C59   H24   1.110826 S    
C18   O12   1.350291 S    
O4    C2    1.310720 A    
C37   C41   1.407469 A    
C45   C56   1.375880 A    
C17   N2    1.366391 A    
C65   H38   1.110566 S    
C61   H30   1.106139 S    
C19   C20   1.398457 A    
O7    C4    1.305628 A    
C38   C42   1.422204 A    
C63   H35   1.118332 S    
C60   H27   1.110580 S    
C66   H41   1.110586 S    
N5    O15   1.301765 A    
C33   N6    1.434918 S    
C66   H42   1.109884 S    
C7    C8    1.413877 A    
C37   C44   1.415239 A    
C11   H1    1.083122 S    
O5    C3    1.310845 A    
C19   C24   1.414177 A    
C57   H20   1.111095 S    
N5    O16   1.302096 A    
N1    C6    1.368293 A    
C46   N4    1.354956 A    
C2    C21   1.452708 S    
C25   C30   1.398796 A    
C19   N9    1.443545 S    
H10   C43   1.082692 S    
C65   H40   1.111064 S    
N6    O18   1.301552 A    
C39   C40   1.395385 A    
C17   O11   1.349621 S    
C59   H25   1.110502 S    
C10   C11   1.397138 A    
C34   C35   1.389724 A    
C22   C23   1.391639 A    
O3    Zn1   1.990745 S    
C62   H31   1.110249 S    
C6    C7    1.406753 A    
C67   H44   1.111212 S    
O19   C63   1.417730 S    
C29   C30   1.401042 A    
N3    C56   1.348757 A    
C5    C9    1.391866 A    
N9    O24   1.300892 A    
C25   C26   1.390847 A    
O26   C66   1.411687 S    
C28   H8    1.077507 S    
C23   O26   1.383347 S    
C51   C52   1.410592 A    
N8    O23   1.302334 A    
C68   H47   1.110909 S    
C20   H4    1.083569 S    
C53   C54   1.384015 A    
C40   O14   1.384339 S    
C63   C64   1.528475 S    
C32   C43   1.390230 A    
C33   C44   1.410966 A    
C14   C15   1.401735 A    
C52   C53   1.369716 A    
C45   H16   1.083528 S    
C40   C41   1.381514 A    
N2    C24   1.423714 S    
C34   O19   1.383703 S    
C28   C29   1.385112 A    
C1    C44   1.471850 S    
N2    C18   1.365752 A    
C67   C68   1.526301 S    
C55   H17   1.079654 S    
Zn2   O8    1.990745 S    
C35   C36   1.416172 A    
C27   C28   1.395626 A    
C35   H12   1.072135 S    
C12   C17   1.398210 A    
C13   C14   1.410237 A    
C48   N7    1.436530 S    
C46   H18   1.081648 S    
C32   C42   1.413430 A    
Zn1   N3    2.069426 S    
C15   H2    1.083263 S    
C26   H7    1.083941 S    
O8    C4    1.316337 A    
C58   H22   1.111563 S    
C59   H26   1.110875 S    
C49   C51   1.432783 A    
N7    O20   1.301660 A    
C46   C47   1.391156 A    
C61   C62   1.520021 S    
O3    C2    1.313952 A    
Zn2   N4    2.056925 S    
C22   H5    1.082093 S    
H15   C53   1.080309 S    
C23   C24   1.405329 A    
C67   H43   1.111782 S    
N3    C55   1.360422 A    
C14   C18   1.394488 A    
Zn1   O5    2.006947 S    
C50   N4    1.393007 A    
C25   H6    1.082796 S    
C64   H37   1.107918 S    
O1    Zn1   2.024243 S    
C54   N8    1.407143 S    
O2    Zn2   2.006947 S    
C51   C55   1.404344 A    
C47   C48   1.401067 A    
O6    C3    1.315634 A    
O4    Zn2   1.981609 S    
N6    O17   1.298994 A    
C57   H21   1.117850 S    
C5    O9    1.350518 S    
C3    C32   1.458435 S    
C9    C16   1.403616 A    
C58   C59   1.526144 S    
O14   C60   1.420285 S    
C31   C43   1.373453 A    
C64   C65   1.529821 S    
C68   H46   1.110374 S    
O2    C1    1.318547 A    
C41   H13   1.081349 S    
N1    C30   1.427043 S    
C61   H29   1.107118 S    
N9    O25   1.301689 A    
C4    C27   1.447174 S    
C60   H28   1.117384 S    
C16   H3    1.083389 S    
C31   C39   1.398006 A    
C26   C27   1.402219 A    
C31   H11   1.077923 S    
C8    C13   1.405778 A    
C38   C39   1.428836 A    
C45   C52   1.399371 A    
O13   C57   1.416976 S    
C58   H23   1.110329 S    
H14   C56   1.081788 S    
C12   C13   1.406815 A    
C36   C37   1.414937 A    
Zn2   O6    2.024242 S    
C49   C50   1.426982 A    
C10   O13   1.383494 S    
N7    O21   1.300764 A    
C6    O10   1.348751 S    
C11   C12   1.400816 A    
C33   C34   1.399842 A    
O1    C1    1.314742 A    
C47   H19   1.082266 S    
C68   H45   1.111242 S    
C62   H33   1.103695 S    
N8    O22   1.302879 A    
C5    N1    1.366451 A    
C65   H39   1.107243 S    
C60   C61   1.529186 S    
