data_mof_unit_64535.cif
_audit_creation_date              2012-12-10T16:49:21-0500
_audit_creation_method            fapswitch 2.2
_symmetry_space_group_name_H-M    P1
_symmetry_Int_Tables_number       1
_space_group_crystal_system       triclinic
_cell_length_a                    18.868986
_cell_length_b                    18.787234
_cell_length_c                    18.674571
_cell_angle_alpha                 109.182903
_cell_angle_beta                  109.160014
_cell_angle_gamma                 109.421065
_cell_volume                      5136.55529713

loop_
_atom_site_label
_atom_site_type_symbol
_atom_type_description
_atom_site_fract_x
_atom_site_fract_y
_atom_site_fract_z
_atom_type_partial_charge
C1    C     C_R   0.381264 0.383884 0.503641 0.962533
C2    C     C_2   0.315514 0.326977 0.512997 -0.526372
C3    C     C_2   0.424980 0.166989 0.189511 -0.152862
C4    C     C_R   0.497607 0.616715 0.619744 0.898197
C5    C     C_2   0.477633 0.183823 0.156264 0.371469
C6    C     C_2   0.424111 0.239041 0.250999 -0.147848
C7    C     C_2   0.499081 0.308744 0.317333 0.376991
C8    C     C_2   0.818584 0.736536 0.488960 0.198384
C9    C     C_2   0.832149 0.818617 0.520610 0.263185
C10   C     C_2   0.758108 0.674394 0.501393 0.366188
C11   C     C_2   0.681011 0.669489 0.481599 -0.316725
C12   C     C_R   0.498490 0.672756 0.760074 -0.048270
C13   C     C_R   0.381526 0.993041 0.873760 0.967332
C14   C     C_R   0.502499 0.877816 0.879628 0.897128
C15   C     C_R   0.618484 0.997822 0.117482 0.931754
C16   C     C_R   0.618401 0.615250 0.495614 0.970889
C17   C     C_R   0.493736 0.116605 0.109782 0.793488
C18   C     C_R   0.882958 0.002290 0.381223 0.923509
C19   C     C_R   0.120731 0.118450 0.501150 0.989636
C20   C     C_R   0.120914 0.001529 0.619028 0.854930
C21   C     C_R   0.884947 0.881343 0.504568 0.892477
C22   C     C_2   0.257192 0.001181 0.674000 0.256545
C23   C     C_R   0.497172 0.680923 0.686891 -0.177299
C24   C     C_2   0.195365 0.012967 0.688395 0.172932
C25   C     C_2   0.332015 0.014578 0.747116 0.395023
C26   C     C_2   0.315734 0.978662 0.795269 -0.297184
C27   C     C_2   0.815660 0.076240 0.324837 -0.154993
C28   C     C_R   0.499022 0.378796 0.380467 0.762239
C29   C     C_2   0.822889 0.005406 0.312742 -0.325002
C30   C     C_2   0.754645 0.075310 0.251418 -0.135688
C31   C     C_2   0.680935 0.001845 0.190275 -0.332814
C32   C     C_R   0.489870 0.597594 0.766290 -0.315582
C33   C     C_R   0.497952 0.594423 0.842212 0.490310
C34   C     C_R   0.503404 0.755266 0.681276 0.514146
C35   C     C_R   0.516105 0.666732 0.914359 0.482334
C36   C     C_R   0.522172 0.740675 0.907484 -0.358180
C37   C     C_R   0.508842 0.742260 0.829121 0.042863
C38   C     C_3   0.589449 0.811377 0.631019 -0.260514
C39   C     C_3   0.853636 0.876373 0.658948 -0.313254
C40   C     C_3   0.409120 0.469958 0.829640 -0.151541
C41   C     C_3   0.492947 0.699471 0.032761 -0.305909
C42   C     C_3   0.290872 0.228609 0.698837 -0.245776
C43   C     C_3   0.448821 0.293185 0.635025 -0.244660
C44   C     C_R   0.505599 0.819512 0.746032 -0.303726
C45   C     C_R   0.507496 0.812785 0.818546 -0.128051
C46   C     C_2   0.260262 0.250904 0.581849 0.460874
C47   C     C_2   0.194851 0.180556 0.506575 -0.516425
C48   C     C_2   0.332842 0.309834 0.579516 0.455734
H1    H     H_    0.249122 0.300366 0.464382 0.136295
H2    H     H_    0.661942 0.944540 0.197719 0.152822
H3    H     H_    0.540218 0.797793 0.964343 0.173865
H4    H     H_    0.505228 0.874589 0.739275 0.184555
H5    H     H_    0.200613 0.162831 0.447968 0.123100
H6    H     H_    0.627128 0.778878 0.647403 0.143878
H7    H     H_    0.621378 0.878651 0.685304 0.158152
H8    H     H_    0.589590 0.815658 0.573213 0.208533
H9    H     H_    0.547350 0.267604 0.132608 0.351656
H10   H     H_    0.624754 0.365982 0.380788 0.349918
H11   H     H_    0.838039 0.648100 0.423381 0.350425
H12   H     H_    0.387089 0.101909 0.176832 0.117442
H13   H     H_    0.917661 0.931754 0.683592 0.173150
H14   H     H_    0.861633 0.823334 0.667971 0.169369
H15   H     H_    0.825559 0.899490 0.699076 0.193499
H16   H     H_    0.841082 0.640654 0.548332 0.336355
H17   H     H_    0.299930 0.968383 0.594422 0.341451
H18   H     H_    0.154109 0.043807 0.771064 0.345391
H19   H     H_    0.413602 0.090203 0.728199 0.327778
H20   H     H_    0.360445 0.447135 0.762153 0.180464
H21   H     H_    0.393147 0.504968 0.877302 0.144829
H22   H     H_    0.405570 0.412307 0.835662 0.200493
H23   H     H_    0.362764 0.232934 0.244733 0.100607
H24   H     H_    0.426533 0.680264 0.985579 0.146684
H25   H     H_    0.533304 0.771097 0.072868 0.171720
H26   H     H_    0.487037 0.674097 0.077632 0.199864
H27   H     H_    0.362420 0.264658 0.734088 0.176871
H28   H     H_    0.266781 0.160083 0.651869 0.149492
H29   H     H_    0.269839 0.227637 0.747597 0.201885
H30   H     H_    0.455574 0.278576 0.575635 0.166551
H31   H     H_    0.408100 0.231559 0.630376 0.126115
H32   H     H_    0.513955 0.324456 0.691526 0.197103
H33   H     H_    0.661614 0.704449 0.450092 0.136074
H34   H     H_    0.475943 0.540113 0.712542 0.215609
H35   H     H_    0.249510 0.934597 0.774901 0.134631
H36   H     H_    0.857001 0.135715 0.387101 0.172682
H37   H     H_    0.788698 0.949450 0.248134 0.165929
H38   H     H_    0.768779 0.135309 0.249255 0.171867
O1    O     O_R   0.460610 0.409240 0.550770 -0.584713
O2    O     O_R   0.909530 0.949160 0.358700 -0.622706
O3    O     O_R   0.090460 0.141840 0.551380 -0.574782
O4    O     O_R   0.358470 0.409870 0.449260 -0.631646
O5    O     O_R   0.090460 0.039050 0.448590 -0.623473
O6    O     O_R   0.090470 0.050840 0.641300 -0.650154
O7    O     O_R   0.090460 0.948050 0.538510 -0.558320
O8    O     O_R   0.909540 0.960950 0.551410 -0.612130
O9    O     O_R   0.909540 0.858160 0.448620 -0.571961
O10   O     O_R   0.551070 0.590720 0.641790 -0.635342
O11   O     O_R   0.448930 0.591350 0.540280 -0.573586
O12   O     O_R   0.358520 0.946380 0.906940 -0.641180
O13   O     O_R   0.641530 0.590130 0.550740 -0.555323
O14   O     O_R   0.539390 0.590760 0.449230 -0.626560
O15   O     O_R   0.551070 0.408650 0.459720 -0.617462
O16   O     O_R   0.448930 0.409280 0.358210 -0.623502
O17   O     O_R   0.460650 0.048500 0.906910 -0.550596
O18   O     O_3   0.503234 0.763413 0.610220 -0.589944
O19   O     O_3   0.514387 0.265532 0.164275 -0.720433
O20   O     O_3   0.575966 0.308071 0.333082 -0.726616
O21   O     O_3   0.861020 0.711337 0.446588 -0.757524
O22   O     O_3   0.796942 0.846785 0.571248 -0.635593
O23   O     O_R   0.551120 0.956920 0.905770 -0.621060
O24   O     O_3   0.779867 0.622726 0.531949 -0.747892
O25   O     O_3   0.251907 0.979531 0.593389 -0.779407
O26   O     O_3   0.208165 0.047098 0.772631 -0.808505
O27   O     O_3   0.415619 0.064069 0.766607 -0.746309
O28   O     O_3   0.493152 0.521448 0.847286 -0.565512
O29   O     O_3   0.533385 0.664318 0.991633 -0.574943
O30   O     O_3   0.258140 0.271369 0.659290 -0.599047
O31   O     O_3   0.415862 0.350840 0.647999 -0.567708
O32   O     O_R   0.449000 0.854790 0.905800 -0.629638
O33   O     O_R   0.641600 0.047410 0.086710 -0.610320
O34   O     O_R   0.539480 0.945290 0.086740 -0.634633
O35   O     O_R   0.551130 0.138990 0.087850 -0.622836
O36   O     O_R   0.449000 0.036870 0.087880 -0.632541
O37   O     O_R   0.909540 0.051950 0.461490 -0.616894
Zn1   Zn    Zn3+2 0.568200 0.499580 0.567780 1.020281
Zn2   Zn    Zn3+2 0.431800 0.500420 0.432220 1.000992
Zn3   Zn    Zn3+2 0.568250 0.065080 0.996810 1.009891
Zn4   Zn    Zn3+2 0.431870 0.928710 0.996840 0.951224
Zn5   Zn    Zn3+2 1.000000 0.068630 0.568630 0.986882
Zn6   Zn    Zn3+2 1.000000 0.931370 0.431370 1.042002

loop_
_geom_bond_atom_site_label_1
_geom_bond_atom_site_label_2
_ccdc_geom_bond_type
C1    O1    A    
C14   O23   A    
H9    O19   S    
C20   O7    A    
C26   H35   S    
C27   C29   D    
C35   C36   A    
C24   O26   S    
C3    C6    S    
O34   Zn4   S    
C5    O19   S    
C11   H33   S    
C43   H30   S    
C20   O6    A    
C12   C23   A    
C33   O28   S    
C1    O4    A    
C40   H22   S    
C27   H36   S    
O1    Zn1   S    
C19   C47   S    
C5    C17   S    
C21   O8    A    
C43   H31   S    
O36   Zn4   S    
C15   O34   A    
C1    C2    S    
C12   C37   A    
O17   Zn3   S    
H17   O25   S    
C38   O18   S    
C41   H26   S    
C4    O10   A    
C28   O15   A    
C40   O28   S    
C38   H7    S    
C20   C24   S    
C8    C9    D    
C14   O32   A    
C22   C25   S    
C35   O29   S    
C30   H38   S    
C29   H37   S    
C18   O37   A    
C47   H5    S    
C3    H12   S    
C44   H4    S    
C4    O11   A    
C12   C32   A    
C27   C30   S    
C6    H23   S    
O2    Zn6   S    
C41   O29   S    
O7    Zn6   S    
O6    Zn5   S    
C14   C45   S    
C39   O22   S    
C39   H13   S    
C46   C48   S    
O15   Zn1   S    
C40   H21   S    
O10   Zn1   S    
O14   Zn2   S    
C34   C44   A    
O11   Zn2   S    
C4    C23   S    
C16   O14   A    
C21   O9    A    
C2    C48   D    
C25   C26   D    
H11   O21   S    
C7    C28   S    
C9    O22   S    
C19   O3    A    
C2    H1    S    
C25   O27   S    
C11   C16   S    
C17   O36   A    
H16   O24   S    
C38   H6    S    
C30   C31   D    
C23   C34   A    
C42   H27   S    
C7    O20   S    
C18   C29   S    
C34   O18   S    
C6    C7    D    
C36   H3    S    
C43   O31   S    
C41   H24   S    
C42   O30   S    
O12   Zn4   S    
C22   C24   D    
C13   C26   S    
C13   O17   A    
O32   Zn4   S    
C31   H2    S    
C37   C45   A    
C8    O21   S    
C32   H34   S    
C44   C45   A    
C17   O35   A    
C39   H14   S    
C46   C47   D    
C36   C37   A    
C3    C5    D    
C16   O13   A    
C15   C31   S    
C48   O31   S    
O5    Zn6   S    
O8    Zn5   S    
C39   H15   S    
O16   Zn2   S    
C42   H28   S    
C46   O30   S    
H18   O26   S    
C32   C33   A    
C43   H32   S    
O35   Zn3   S    
C9    C21   S    
O37   Zn5   S    
C13   O12   A    
C33   C35   A    
O4    Zn2   S    
C15   O33   A    
C10   O24   S    
H19   O27   S    
C18   O2    A    
C19   O5    A    
C10   C11   D    
C41   H25   S    
O33   Zn3   S    
C28   O16   A    
O23   Zn3   S    
C38   H8    S    
C42   H29   S    
C8    C10   S    
C22   O25   S    
C40   H20   S    
O9    Zn6   S    
H10   O20   S    
O13   Zn1   S    
O3    Zn5   S    
