data_mof_unit_11372.cif
_audit_creation_date              2012-12-11T17:07:29-0500
_audit_creation_method            fapswitch 2.2
_symmetry_space_group_name_H-M    P1
_symmetry_Int_Tables_number       1
_space_group_crystal_system       triclinic
_cell_length_a                    6.948737
_cell_length_b                    14.543858
_cell_length_c                    16.067188
_cell_angle_alpha                 90.02844
_cell_angle_beta                  90.233249
_cell_angle_gamma                 90.133369
_cell_volume                      1623.75516169

loop_
_atom_site_label
_atom_site_type_symbol
_atom_type_description
_atom_site_fract_x
_atom_site_fract_y
_atom_site_fract_z
_atom_type_partial_charge
O1    O     O_R   0.505720 0.583900 0.413310 -0.548660
O2    O     O_R   0.175940 0.594920 0.586080 -0.519833
O3    O     O_R   0.005640 0.416100 0.586690 -0.500671
C1    C     C_R   0.344892 0.617139 0.614706 0.745204
O4    O     O_R   0.176000 0.594930 0.413930 -0.556738
O5    O     O_R   0.005700 0.416110 0.413310 -0.520250
C2    C     C_R   0.344685 0.616874 0.385074 0.704284
O6    O     O_R   0.505660 0.583890 0.586690 -0.558255
O7    O     O_3   0.339200 0.441330 0.500000 -0.337632
V1    V     V_3+5 0.064350 0.510880 0.500000 1.563175
O8    O     O_R   0.675980 0.405080 0.413920 -0.517564
C3    C     C_R   0.845002 0.381983 0.386000 0.870039
O9    O     O_R   0.675920 0.405070 0.586070 -0.529724
C4    C     C_R   0.845359 0.383780 0.615333 0.932427
V2    V     V_3+5 0.564340 0.489120 0.500000 1.573261
O10   O     O_3   0.839360 0.558670 0.500000 -0.403262
H1    H     H_    0.644131 0.074458 0.517148 0.157381
C5    C     C_R   0.996380 0.433303 0.781381 0.544783
C6    C     C_R   0.058502 0.458393 0.860800 -0.179746
C7    C     C_R   0.057772 0.395094 0.925122 -0.147243
C8    C     C_R   0.997488 0.305453 0.910451 -0.101361
C9    C     C_R   0.936346 0.276775 0.830263 0.003502
C10   C     C_R   0.930839 0.342148 0.764054 -0.047340
C11   C     C_R   0.878434 0.184676 0.816415 -0.109869
C12   C     C_R   0.811636 0.157188 0.736730 0.005984
C13   C     C_R   0.803187 0.221755 0.669903 -0.067854
C14   C     C_R   0.859092 0.315112 0.683977 -0.182111
C15   C     C_R   0.756690 0.064704 0.721853 -0.097047
C16   C     C_R   0.694572 0.036033 0.643772 -0.206709
C17   C     C_R   0.689092 0.097819 0.578221 -0.128319
C18   C     C_R   0.744034 0.189152 0.590002 0.629738
H2    H     H_    0.107243 0.528010 0.872548 0.149247
H3    H     H_    0.104680 0.415482 0.986789 0.192221
H4    H     H_    0.998376 0.259268 0.963177 0.136506
H5    H     H_    0.762533 0.012892 0.770024 0.153318
H6    H     H_    0.653105 0.965038 0.633822 0.149160
C19   C     C_R   0.747139 0.256951 0.182783 0.024576
C20   C     C_R   0.883951 0.186489 0.182014 -0.190358
C21   C     C_R   0.020394 0.185305 0.247134 -0.207746
H7    H     H_    0.130694 0.132780 0.248050 0.141279
C22   C     C_R   0.006217 0.246544 0.315159 0.397796
C23   C     C_R   0.858371 0.313787 0.317534 -0.163673
C24   C     C_R   0.736206 0.319621 0.248109 -0.075488
C25   C     C_3   0.521759 0.322923 0.243240 0.189892
C26   C     C_3   0.534031 0.254107 0.171667 0.518368
H8    H     H_    0.452457 0.294906 0.299814 0.116117
H9    H     H_    0.469417 0.185856 0.185592 -0.003450
C27   C     C_R   0.493710 0.678631 0.746570 0.087069
C28   C     C_R   0.351935 0.683606 0.684617 -0.153848
C29   C     C_R   0.208269 0.751095 0.694317 -0.235894
H10   H     H_    0.092575 0.756393 0.649255 0.143615
C30   C     C_R   0.219968 0.816767 0.758886 0.586881
C31   C     C_R   0.373951 0.815175 0.816783 -0.219638
C32   C     C_R   0.504250 0.742442 0.810868 0.005580
C33   C     C_3   0.718532 0.743431 0.809707 -0.372281
C34   C     C_3   0.706925 0.672923 0.740044 -0.350130
H11   H     H_    0.782002 0.715674 0.868103 0.177366
H12   H     H_    0.776259 0.810919 0.789352 0.229565
H13   H     H_    0.758609 0.604372 0.759576 0.225431
H14   H     H_    0.762083 0.698407 0.679435 0.176746
C35   C     C_R   0.505235 0.681627 0.257653 0.206994
C36   C     C_R   0.352404 0.682203 0.314315 -0.105172
C37   C     C_R   0.201863 0.744794 0.299227 -0.183510
H15   H     H_    0.080199 0.747543 0.340805 0.130911
C38   C     C_R   0.213354 0.809073 0.233798 -0.167804
H16   H     H_    0.099592 0.859126 0.226824 0.127180
C39   C     C_R   0.375953 0.812873 0.181616 -0.115351
C40   C     C_R   0.516989 0.745387 0.193118 0.114395
C41   C     C_3   0.729035 0.755694 0.203788 -0.423756
C42   C     C_3   0.716290 0.685694 0.273764 -0.404068
H17   H     H_    0.769186 0.825695 0.225585 0.165505
H18   H     H_    0.809936 0.730286 0.148881 0.191330
H19   H     H_    0.750006 0.714798 0.336124 0.154607
H20   H     H_    0.788747 0.619599 0.259100 0.200675
O11   O     O_R   0.229140 0.916090 0.913340 -0.508524
O12   O     O_R   0.558860 0.905090 0.086080 -0.546795
O13   O     O_R   0.729100 0.083920 0.086690 -0.539470
C43   C     C_R   0.389899 0.883101 0.114962 0.678197
O14   O     O_R   0.558860 0.905090 0.913930 -0.551137
O15   O     O_R   0.729100 0.083920 0.913310 -0.537991
C44   C     C_R   0.389356 0.884215 0.884308 0.758100
O16   O     O_R   0.229140 0.916080 0.086720 -0.549029
O17   O     O_3   0.395570 0.058660 0.000020 -0.355806
V3    V     V_3+5 0.670450 0.989140 0.000000 1.457981
O18   O     O_R   0.058810 0.094980 0.913910 -0.529665
C45   C     C_R   0.889698 0.116457 0.885187 0.716182
O19   O     O_R   0.058810 0.094980 0.086060 -0.539157
C46   C     C_R   0.890420 0.117149 0.114646 0.720424
V4    V     V_3+5 0.170450 0.010950 0.999970 1.511904
O20   O     O_3   0.895460 0.941370 0.999990 -0.375909
Cl1   Cl    Cl    0.160466 0.228324 0.400929 -0.633316
Cl2   Cl    Cl    0.438409 0.434480 0.213964 -0.592578
F1    F     F_    0.479574 0.289825 0.095253 -0.622564
F2    F     F_    0.089353 0.885933 0.760536 -0.718039
F3    F     F_    0.004807 0.499797 0.722776 -0.735423
F4    F     F_    0.744107 0.243048 0.521314 -0.697132

loop_
_geom_bond_atom_site_label_1
_geom_bond_atom_site_label_2
_ccdc_geom_bond_type
C35   C42   S    
O19   C46   A    
C37   C38   A    
H1    C17   S    
C22   C23   A    
C6    C7    A    
O15   V3    S    
C26   F1    S    
O12   V3    S    
C21   C22   A    
O18   C45   A    
C30   C31   A    
C12   C15   A    
C27   C32   A    
C16   H6    S    
C13   C14   A    
C16   C17   A    
O16   V4    S    
C15   C16   A    
C19   C20   A    
O12   C43   A    
O5    C3    A    
O14   V3    S    
C18   F4    S    
C31   C44   S    
C5    C6    A    
C41   H17   S    
C3    C23   S    
O8    V2    S    
O13   C46   A    
C40   C41   S    
C38   C39   A    
C42   H20   S    
C29   C30   A    
C30   F2    S    
O1    V2    S    
C10   C14   A    
C4    C14   S    
O7    V1    S    
C25   Cl2   S    
C1    O6    A    
C13   C18   A    
C8    C9    A    
C5    F3    S    
C41   C42   S    
C39   C43   S    
V3    O20   S    
C42   H19   S    
C6    H2    S    
C25   H8    S    
C26   H9    S    
C20   C21   A    
O17   V4    S    
C5    C10   A    
C11   C12   A    
C15   H5    S    
C21   H7    S    
O4    C2    A    
O18   V4    S    
O11   C44   A    
C8    H4    S    
O13   V3    S    
C12   C13   A    
C31   C32   A    
C39   C40   A    
C20   C46   S    
C19   C24   A    
C41   H18   S    
O2    C1    A    
C24   C25   S    
C2    C36   S    
C36   C37   A    
C43   O16   A    
O17   V3    S    
C33   C34   S    
C29   H10   S    
O3    C4    A    
C7    H3    S    
C27   C28   A    
C22   Cl1   S    
C28   C29   A    
O6    V2    S    
O9    V2    S    
C9    C11   A    
C23   C24   A    
C19   C26   S    
O2    V1    S    
C25   C26   S    
O14   C44   A    
C27   C34   S    
C32   C33   S    
O1    C2    A    
O5    V1    S    
O8    C3    A    
O15   C45   A    
C34   H13   S    
C1    C28   S    
C33   H11   S    
O7    V2    S    
O4    V1    S    
O3    V1    S    
V1    O10   S    
C35   C40   A    
C17   C18   A    
C35   C36   A    
O11   V4    S    
C37   H15   S    
C34   H14   S    
C7    C8    A    
C38   H16   S    
C33   H12   S    
O19   V4    S    
C9    C10   A    
V4    O20   S    
O9    C4    A    
C11   C45   S    
V2    O10   S    
