data_mof_unit_44532.cif
_audit_creation_date              2013-03-05T16:08:06-0500
_audit_creation_method            fapswitch 2.2
_symmetry_space_group_name_H-M    P1
_symmetry_Int_Tables_number       1
_space_group_crystal_system       triclinic
_cell_length_a                    23.602967
_cell_length_b                    11.698438
_cell_length_c                    10.736545
_cell_angle_alpha                 90.082732
_cell_angle_beta                  89.931354
_cell_angle_gamma                 89.98317
_cell_volume                      2964.54633195

loop_
_atom_site_label
_atom_site_type_symbol
_atom_site_description
_atom_site_fract_x
_atom_site_fract_y
_atom_site_fract_z
_atom_type_partial_charge
O1    O     O_R   0.500000 0.334450 0.602530 -0.604879
O2    O     O_R   0.500000 0.665550 0.397470 -0.604303
O3    O     O_R   0.500000 0.665550 0.602530 -0.606234
O4    O     O_R   0.500000 0.334450 0.397470 -0.606119
C1    C     C_R   0.500032 0.280905 0.499924 0.911625
C2    C     C_R   0.500031 0.719095 0.500076 0.912113
O5    O     O_R   0.416150 0.500000 0.602560 -0.617428
O6    O     O_R   0.583850 0.500000 0.397440 -0.612591
O7    O     O_R   0.583850 0.500000 0.602560 -0.614418
O8    O     O_R   0.416150 0.500000 0.397440 -0.618844
C3    C     C_R   0.388493 0.499866 0.500073 0.911173
C4    C     C_R   0.611091 0.500004 0.499925 0.908766
Zn1   Zn    Zn3+2 0.500000 0.500000 0.636920 1.020444
Zn2   Zn    Zn3+2 0.500000 0.500000 0.363080 1.021833
C5    C     C_R   0.880500 0.597442 0.471260 0.727147
C6    C     C_R   0.118022 0.398093 0.520234 0.724665
C7    C     C_R   0.880363 0.400545 0.527861 0.734133
C8    C     C_R   0.118132 0.598851 0.480342 0.733207
N1    N     N_R   0.852505 0.499141 0.499832 -0.326901
N2    N     N_R   0.145853 0.498458 0.500592 -0.324214
C9    C     C_R   0.939645 0.395948 0.519035 -0.158047
C10   C     C_R   0.058855 0.600164 0.470539 -0.169625
C11   C     C_R   0.939780 0.601721 0.479983 -0.162876
C12   C     C_R   0.058701 0.396942 0.529309 -0.176386
C13   C     C_R   0.969491 0.498762 0.499596 -0.078299
C14   C     C_R   0.029103 0.498619 0.499803 -0.078209
C15   C     C_R   0.969853 0.293116 0.533110 0.269814
C16   C     C_R   0.028247 0.700175 0.439498 0.308341
C17   C     C_R   0.970116 0.704398 0.465911 0.268784
C18   C     C_R   0.027917 0.297026 0.559947 0.306874
O9    O     O_2   0.850827 0.688683 0.430884 -0.441787
O10   O     O_2   0.148097 0.300284 0.525984 -0.442075
O11   O     O_2   0.850559 0.309352 0.567965 -0.447324
O12   O     O_2   0.148266 0.696573 0.474797 -0.445335
C19   C     C_R   0.235472 0.501614 0.386099 0.388110
C20   C     C_R   0.762826 0.453219 0.396816 0.397530
C21   C     C_R   0.235420 0.495328 0.614812 0.408199
C22   C     C_R   0.762815 0.545918 0.602768 0.401519
C23   C     C_R   0.294784 0.510336 0.386696 -0.176419
C24   C     C_R   0.703501 0.447261 0.400994 -0.169071
C25   C     C_R   0.294808 0.487496 0.613902 -0.187547
C26   C     C_R   0.703484 0.552522 0.598446 -0.185176
C27   C     C_R   0.325348 0.499363 0.500244 -0.252655
C28   C     C_R   0.673532 0.499941 0.499767 -0.246134
C29   C     C_R   0.206198 0.498420 0.500520 0.005004
C30   C     C_R   0.792175 0.499343 0.499865 -0.001569
C31   C     C_1   0.500083 0.160744 0.499809 -0.153419
C32   C     C_1   0.500083 0.839256 0.500190 -0.153113
C33   C     C_1   0.500113 0.059160 0.499901 0.043025
C34   C     C_1   0.500113 0.940841 0.500098 0.043201
N3    N     N_1   0.500000 0.500000 0.180630 -0.075136
N4    N     N_1   0.500000 0.500000 0.819370 -0.075521
C35   C     C_1   0.499993 0.499998 0.069647 0.089649
C36   C     C_1   0.499993 0.500001 0.930353 0.088421
S1    S     S_3+6 0.941256 0.163379 0.476118 0.204240
O13   O     O_2   0.913171 0.099787 0.580757 -0.081578
O14   O     O_2   0.898283 0.185858 0.375957 -0.191226
O15   O     O_3   0.993594 0.084248 0.414217 -0.403879
H1    H     H_    0.008499 0.130467 0.344245 0.352231
S2    S     S_3+6 0.057883 0.809023 0.343492 0.160889
O16   O     O_2   0.088169 0.895627 0.422501 -0.148712
O17   O     O_2   0.099126 0.756743 0.253083 -0.199164
O18   O     O_3   0.006675 0.874428 0.261497 -0.464842
H2    H     H_    0.026780 0.930770 0.208734 0.393734
S3    S     S_3+6 0.941482 0.834396 0.522338 0.197075
O19   O     O_2   0.913648 0.897752 0.417329 -0.077372
O20   O     O_2   0.898296 0.812380 0.622392 -0.210752
O21   O     O_3   0.993727 0.913540 0.584202 -0.403606
H3    H     H_    0.008481 0.867452 0.654368 0.348866
S4    S     S_3+6 0.057154 0.187928 0.656064 0.156586
O22   O     O_2   0.087685 0.101377 0.577236 -0.145773
O23   O     O_2   0.098081 0.239929 0.747079 -0.210873
O24   O     O_3   0.005635 0.122546 0.737344 -0.464909
H4    H     H_    0.025551 0.066395 0.790616 0.393682
S5    S     S_3+6 0.198652 0.495865 0.240393 0.092201
O25   O     O_2   0.138489 0.455625 0.253068 -0.280740
O26   O     O_2   0.199015 0.613271 0.183754 -0.207376
O27   O     O_3   0.232888 0.405382 0.144412 -0.513324
H5    H     H_    0.216904 0.420631 0.060759 0.430392
S6    S     S_3+6 0.799203 0.401367 0.261808 0.093386
O28   O     O_2   0.860124 0.438195 0.256458 -0.273957
O29   O     O_2   0.796341 0.273042 0.261734 -0.216415
O30   O     O_3   0.766234 0.450586 0.133836 -0.500424
H6    H     H_    0.782512 0.405958 0.063961 0.418241
S7    S     S_3+6 0.198165 0.497533 0.760331 0.071914
O31   O     O_2   0.197886 0.378148 0.811780 -0.245826
O32   O     O_2   0.228582 0.574634 0.850249 -0.254911
O33   O     O_3   0.131020 0.544174 0.747821 -0.556273
H7    H     H_    0.112785 0.523841 0.827911 0.411144
S8    S     S_3+6 0.799275 0.597886 0.737443 0.090018
O34   O     O_2   0.796246 0.726198 0.737083 -0.206795
O35   O     O_2   0.769899 0.554300 0.852220 -0.255658
O36   O     O_3   0.867535 0.557201 0.743968 -0.559207
H8    H     H_    0.884234 0.602851 0.812454 0.411495
C37   C     C_1   0.323277 0.533363 0.269467 0.412224
N5    N     N_1   0.345785 0.551941 0.175774 -0.137288
C38   C     C_1   0.673710 0.382817 0.305750 0.388233
N6    N     N_1   0.649979 0.331275 0.229912 -0.140693
C39   C     C_1   0.323425 0.463805 0.730683 0.401238
N7    N     N_1   0.346037 0.444686 0.824012 -0.140185
C40   C     C_1   0.673663 0.617535 0.693384 0.383903
N8    N     N_1   0.649908 0.669518 0.768976 -0.131857

loop_
_geom_bond_atom_site_label_1
_geom_bond_atom_site_label_2
_geom_bond_distance
_ccdc_geom_bond_type
S1    O13   1.501978 D    
O36   H8    0.990401 S    
O24   H4    0.990524 S    
C37   N5    1.157918 T    
O3    C2    1.266628 A    
C38   N6    1.157651 T    
N1    C30   1.423961 S    
C31   C33   1.188381 T    
C35   C36   1.495533 S    
C5    N1    1.361663 A    
C1    C31   1.405700 S    
C19   S5    1.791666 S    
C40   N8    1.157650 T    
C7    O11   1.348853 S    
S2    O18   1.680847 S    
O1    C1    1.266481 A    
C11   C17   1.406786 A    
C21   S7    1.792049 S    
C16   C17   1.401564 A    
C12   C14   1.415753 A    
C22   C26   1.403323 A    
Zn2   N3    1.958883 S    
C15   S1    1.769857 S    
S2    O17   1.503173 D    
O7    Zn1   2.012763 S    
O30   H6    0.990481 S    
O21   H3    0.990545 S    
S3    O20   1.502544 D    
C25   C39   1.451903 S    
C20   C30   1.412595 A    
S4    O22   1.502128 D    
N2    C29   1.424327 S    
O3    Zn1   1.972083 S    
C6    N2    1.362120 A    
C32   C34   1.188382 T    
C9    C15   1.406644 A    
C6    C12   1.403477 A    
C10   C16   1.415289 A    
C15   C18   1.401525 A    
O4    Zn2   1.972084 S    
C25   C27   1.423529 A    
O2    C2    1.266480 A    
C26   C28   1.414504 A    
S6    O30   1.682107 S    
C18   S4    1.781869 S    
N4    C36   1.191576 T    
O5    C3    1.280094 A    
C16   S2    1.782077 S    
S7    O32   1.503481 D    
C20   C24   1.402676 A    
S6    O29   1.502739 D    
O8    Zn2   2.012765 S    
C24   C38   1.451997 S    
O27   H5    0.990991 S    
S6    O28   1.502234 D    
C23   C27   1.423241 A    
C13   C14   1.407027 A    
S7    O31   1.502651 D    
C7    C9    1.403330 A    
S2    O16   1.502142 D    
N3    C35   1.191576 T    
C19   C23   1.403704 A    
S5    O25   1.502233 D    
Zn1   N4    1.958882 S    
S5    O26   1.502888 D    
S8    O35   1.503090 D    
C39   N7    1.157932 T    
C24   C28   1.414505 A    
O6    C4    1.275078 A    
S3    O21   1.679243 S    
S4    O24   1.680833 S    
C3    C27   1.490412 S    
C8    O12   1.347921 S    
C23   C37   1.451927 S    
C2    C32   1.405703 S    
C17   S3    1.769832 S    
C33   C34   1.384152 S    
O8    C3    1.280101 A    
S1    O14   1.502554 D    
C20   S6    1.788983 S    
O1    Zn1   1.971037 S    
C21   C29   1.408878 A    
C19   C29   1.409292 A    
C26   C40   1.452096 S    
S8    O36   1.681420 S    
S7    O33   1.681550 S    
C9    C13   1.409719 A    
O6    Zn2   2.013632 S    
C8    C10   1.403274 A    
O4    C1    1.266628 A    
C5    O9    1.348851 S    
C6    O10   1.347873 S    
C22   S8    1.789318 S    
O15   H1    0.990537 S    
C4    C28   1.473789 S    
S8    O34   1.502737 D    
C5    C11   1.403330 A    
C7    N1    1.361739 A    
C8    N2    1.362099 A    
C11   C13   1.409760 A    
C21   C25   1.404733 A    
O2    Zn2   1.971036 S    
S5    O27   1.682174 S    
C12   C18   1.415414 A    
C22   C30   1.412062 A    
O7    C4    1.275146 A    
O18   H2    0.990524 S    
O5    Zn1   2.013634 S    
O33   H7    0.990457 S    
S3    O19   1.501981 D    
C10   C14   1.415648 A    
S1    O15   1.679361 S    
S4    O23   1.502988 D    
