data_mof_unit_29525.cif
_audit_creation_date              2012-12-10T18:42:40-0500
_audit_creation_method            fapswitch 2.2
_symmetry_space_group_name_H-M    P1
_symmetry_Int_Tables_number       1
_space_group_crystal_system       triclinic
_cell_length_a                    10.865998
_cell_length_b                    15.147015
_cell_length_c                    13.923184
_cell_angle_alpha                 89.364744
_cell_angle_beta                  91.244046
_cell_angle_gamma                 92.771487
_cell_volume                      2288.24560822

loop_
_atom_site_label
_atom_site_type_symbol
_atom_type_description
_atom_site_fract_x
_atom_site_fract_y
_atom_site_fract_z
_atom_type_partial_charge
C1    C     C_R   0.494094 0.329687 0.500639 0.879108
C2    C     C_R   0.506383 0.670601 0.499001 0.882341
C3    C     C_R   0.872259 0.496682 0.502338 -0.088677
C4    C     C_R   0.128981 0.501541 0.498119 -0.091028
C5    C     C_R   0.939322 0.451793 0.574616 0.004067
C6    C     C_R   0.062627 0.544704 0.425337 0.007936
C7    C     C_R   0.375526 0.091089 0.532660 0.334254
C8    C     C_R   0.501197 0.904345 0.399627 0.323525
C9    C     C_R   0.396384 0.181597 0.554623 0.312132
C10   C     C_R   0.539558 0.816970 0.409904 0.278561
C11   C     C_R   0.484847 0.232397 0.500872 -0.199870
C12   C     C_R   0.508570 0.768235 0.494826 -0.200523
C13   C     C_R   0.563161 0.189415 0.440778 -0.275361
C14   C     C_R   0.469828 0.813560 0.574873 -0.246162
C15   C     C_R   0.563913 0.098163 0.441758 -0.128228
C16   C     C_R   0.459428 0.904414 0.570575 -0.139444
C17   C     C_R   0.467637 0.047838 0.484033 0.014379
C18   C     C_R   0.471048 0.950393 0.483006 0.011954
C19   C     C_R   0.495317 0.580279 0.107468 -0.254656
C20   C     C_R   0.396382 0.465723 0.889948 -0.286451
C21   C     C_R   0.507230 0.577843 0.208463 0.041171
C22   C     C_R   0.402484 0.462094 0.789170 0.083052
C23   C     C_R   0.262549 0.501037 0.499108 0.816200
C24   C     C_R   0.737844 0.497873 0.501012 0.816571
C25   C     C_R   0.469329 0.423723 0.207259 0.223133
C26   C     C_R   0.593217 0.545225 0.793929 0.193386
C27   C     C_R   0.484163 0.421461 0.106151 0.379556
C28   C     C_R   0.596603 0.542418 0.896892 0.370526
C29   C     C_R   0.489968 0.501737 0.054072 0.008404
C30   C     C_R   0.494000 0.504480 0.945532 0.034822
C31   C     C_R   0.233667 0.734028 0.297318 -0.069197
C32   C     C_R   0.750137 0.255469 0.672683 -0.075615
C33   C     C_R   0.175290 0.684020 0.369934 0.129763
C34   C     C_R   0.818785 0.310172 0.609573 0.146723
C35   C     C_R   0.124230 0.598430 0.348953 0.108456
C36   C     C_R   0.879698 0.388601 0.644148 0.108850
C37   C     C_R   0.132935 0.564306 0.255132 0.174847
C38   C     C_R   0.890025 0.401597 0.744898 0.127626
C39   C     C_R   0.192706 0.615787 0.184140 -0.133538
C40   C     C_R   0.819204 0.346500 0.806432 -0.079691
C41   C     C_R   0.242505 0.700052 0.205214 -0.162757
C42   C     C_R   0.747305 0.275332 0.770017 -0.090686
C43   C     C_R   0.934904 0.541294 0.427942 -0.178921
C44   C     C_R   0.066967 0.456535 0.571921 -0.183855
Cu1   Cu    Cu3+1 0.500000 0.499990 0.596430 0.997534
Cu2   Cu    Cu3+1 0.500000 0.500010 0.403570 0.972450
H1    H     H_    0.288213 0.739145 0.149787 0.198407
H2    H     H_    0.694238 0.232658 0.818191 0.203706
H3    H     H_    0.637621 0.066926 0.406286 0.211509
H4    H     H_    0.440653 0.938867 0.635950 0.197658
H5    H     H_    0.493150 0.643639 0.071092 0.217723
H6    H     H_    0.315745 0.436824 0.924810 0.196052
H7    H     H_    0.513181 0.639071 0.246409 0.201112
H8    H     H_    0.326844 0.430121 0.749269 0.178295
H9    H     H_    0.271858 0.799784 0.312181 0.196344
H10   H     H_    0.700457 0.196384 0.646893 0.155427
H11   H     H_    0.201000 0.590737 0.112118 0.153504
H12   H     H_    0.822462 0.356896 0.883304 0.196961
H13   H     H_    0.884749 0.574317 0.371499 0.180237
H14   H     H_    0.118347 0.421793 0.625935 0.203802
H15   H     H_    0.629146 0.226527 0.397274 0.195082
H16   H     H_    0.450252 0.779098 0.641804 0.197758
N1    N     N_R   0.500000 0.500020 0.258690 -0.200445
N2    N     N_R   0.500000 0.499980 0.741310 -0.183010
O1    O     O_R   0.500010 0.371450 0.581430 -0.495124
O2    O     O_R   0.499990 0.628550 0.418570 -0.564109
O3    O     O_R   0.500010 0.371460 0.418560 -0.605896
O4    O     O_R   0.499990 0.628540 0.581440 -0.610302
O5    O     O_R   0.319640 0.500000 0.581430 -0.583162
O6    O     O_R   0.680360 0.500000 0.418570 -0.566117
O7    O     O_R   0.319640 0.500010 0.418560 -0.597043
O8    O     O_R   0.680360 0.499990 0.581440 -0.595428
C45   C     C_3   0.388293 0.350069 0.249407 -0.661510
H17   H     H_    0.332698 0.374036 0.308380 0.233360
H18   H     H_    0.318561 0.325145 0.195537 0.228226
H19   H     H_    0.443543 0.293709 0.272765 0.263587
C46   C     C_3   0.690694 0.603300 0.745484 -0.638695
H20   H     H_    0.667031 0.626654 0.673856 0.242541
H21   H     H_    0.708209 0.665676 0.785651 0.242794
H22   H     H_    0.776202 0.567541 0.740420 0.235325
S1    S     S_3+6 0.494918 0.318029 0.047551 -0.008582
O9    O     O_2   0.578083 0.327804 0.962870 -0.301572
O10   O     O_2   0.546232 0.251148 0.116164 -0.264175
O11   O     O_3   0.353637 0.281758 0.009639 -0.562946
H23   H     H_    0.366127 0.224394 0.978712 0.391956
S2    S     S_3+6 0.727030 0.587203 0.965731 -0.018937
O12   O     O_2   0.749925 0.530082 0.052724 -0.289873
O13   O     O_2   0.843235 0.593962 0.909497 -0.314417
O14   O     O_3   0.696748 0.689533 0.001178 -0.516865
H24   H     H_    0.756786 0.703124 0.054145 0.404820
C47   C     C_3   0.166841 0.723031 0.468593 -0.811865
H25   H     H_    0.068659 0.726721 0.487966 0.262851
H26   H     H_    0.214697 0.681724 0.522500 0.216081
H27   H     H_    0.210871 0.790550 0.471998 0.259414
C48   C     C_3   0.837359 0.280022 0.508445 -0.809118
H28   H     H_    0.937137 0.283827 0.492295 0.271296
H29   H     H_    0.804995 0.210031 0.499008 0.241416
H30   H     H_    0.788105 0.322388 0.456501 0.210384
C49   C     C_3   0.080168 0.473377 0.230363 -0.794030
H31   H     H_    0.120073 0.423489 0.279334 0.229086
H32   H     H_    0.978583 0.470884 0.237958 0.253558
H33   H     H_    0.100613 0.455434 0.155420 0.237874
C50   C     C_3   0.983023 0.467445 0.788627 -0.782526
H34   H     H_    0.976076 0.533834 0.755225 0.246709
H35   H     H_    0.971917 0.472283 0.867313 0.275736
H36   H     H_    0.077361 0.444877 0.778947 0.213173
S3    S     S_3+6 0.226730 0.037835 0.544199 0.068998
O15   O     O_2   0.217909 0.989685 0.638943 -0.256989
O16   O     O_2   0.129436 0.105086 0.537514 -0.223308
O17   O     O_3   0.201381 0.964983 0.454826 -0.518373
H37   H     H_    0.114836 0.942673 0.462005 0.383543
S4    S     S_3+6 0.484715 0.953191 0.282801 0.067901
O18   O     O_2   0.608463 0.987421 0.248526 -0.216847
O19   O     O_2   0.432608 0.885656 0.212970 -0.264887
O20   O     O_3   0.388430 0.036881 0.284737 -0.493256
H38   H     H_    0.400306 0.068576 0.222771 0.393911
S5    S     S_3+6 0.325453 0.227458 0.655042 0.029359
O21   O     O_2   0.248504 0.301197 0.620506 -0.337965
O22   O     O_2   0.245824 0.160738 0.708768 -0.204367
O23   O     O_3   0.436628 0.267046 0.731145 -0.539767
H39   H     H_    0.397344 0.268910 0.794559 0.380995
S6    S     S_3+6 0.663871 0.786845 0.337559 0.042627
O24   O     O_2   0.624067 0.780732 0.233733 -0.261978
O25   O     O_2   0.764601 0.858056 0.346021 -0.215919
O26   O     O_3   0.722915 0.691359 0.373497 -0.560225
H40   H     H_    0.730273 0.657273 0.313809 0.361865

loop_
_geom_bond_atom_site_label_1
_geom_bond_atom_site_label_2
_ccdc_geom_bond_type
C38   C40   A    
C27   C29   A    
C9    S5    S    
C45   H17   S    
C23   O5    A    
C48   H28   S    
C1    C11   S    
C2    C12   S    
S4    O19   D    
S1    O9    D    
C48   H30   S    
C24   O6    A    
C39   C41   A    
C20   C30   A    
Cu1   Cu2   S    
C3    C43   A    
C38   C50   S    
C35   C37   A    
C16   H4    S    
Cu2   O2    S    
C2    O4    A    
C8    S4    S    
S2    O13   D    
O20   H38   S    
C14   H16   S    
C5    C36   S    
C6    C35   S    
C15   C17   A    
C25   N1    A    
C26   N2    A    
O17   H37   S    
C1    O3    A    
Cu1   O1    S    
C7    C17   A    
C1    O1    A    
S3    O15   D    
C31   C33   A    
C25   C45   S    
C43   H13   S    
C40   C42   A    
Cu1   O8    S    
S3    O16   D    
C3    C24   S    
S4    O18   D    
S1    O10   D    
C46   H21   S    
C26   C46   S    
C40   H12   S    
Cu1   O5    S    
C23   O7    A    
C27   S1    S    
C34   C48   S    
C22   H8    S    
S5    O23   S    
C47   H25   S    
C4    C23   S    
S2    O12   D    
C4    C44   A    
C3    C5    A    
C46   H20   S    
C8    C18   A    
C32   C34   A    
C29   C30   S    
C47   H26   S    
C49   H31   S    
Cu1   O4    S    
C17   C18   S    
C41   H1    S    
C50   H35   S    
C42   H2    S    
O11   H23   S    
C9    C11   A    
Cu2   O7    S    
C10   C12   A    
C4    C6    A    
C49   H32   S    
C5    C44   A    
C12   C14   A    
C6    C43   A    
C13   C15   A    
C28   S2    S    
O26   H40   S    
S3    O17   S    
C14   C16   A    
C45   H18   S    
S6    O25   D    
C36   C38   A    
C19   C29   A    
C37   C49   S    
S1    O11   S    
O23   H39   S    
C24   O8    A    
C46   H22   S    
C7    C9    A    
C31   C41   A    
C19   C21   A    
C8    C10   A    
C20   C22   A    
C10   S6    S    
S2    O14   S    
C48   H29   S    
C2    O2    A    
C25   C27   A    
Cu1   N2    S    
C26   C28   A    
Cu2   N1    S    
C20   H6    S    
C7    S3    S    
Cu2   O6    S    
S6    O26   S    
S5    O22   D    
O14   H24   S    
Cu2   O3    S    
C37   C39   A    
S5    O21   D    
C47   H27   S    
C21   H7    S    
C11   C13   A    
C44   H14   S    
C28   C30   A    
C33   C35   A    
C50   H36   S    
C34   C36   A    
C15   H3    S    
C21   N1    A    
C22   N2    A    
C19   H5    S    
C49   H33   S    
C13   H15   S    
C45   H19   S    
C16   C18   A    
C50   H34   S    
C32   C42   A    
C31   H9    S    
S6    O24   D    
C32   H10   S    
S4    O20   S    
C33   C47   S    
C39   H11   S    
