data_mof_unit_16050.cif
_audit_creation_date              2012-12-10T21:27:25-0500
_audit_creation_method            fapswitch 2.2
_symmetry_space_group_name_H-M    P1
_symmetry_Int_Tables_number       1
_space_group_crystal_system       triclinic
_cell_length_a                    10.427244
_cell_length_b                    16.080754
_cell_length_c                    16.688156
_cell_angle_alpha                 86.107902
_cell_angle_beta                  91.47357
_cell_angle_gamma                 103.969372
_cell_volume                      2709.08900286

loop_
_atom_site_label
_atom_site_type_symbol
_atom_type_description
_atom_site_fract_x
_atom_site_fract_y
_atom_site_fract_z
_atom_type_partial_charge
C1    C     C_R   0.497272 0.487273 0.652936 0.901242
C2    C     C_R   0.501318 0.512663 0.346728 0.854544
C3    C     C_R   0.385950 0.416318 0.778366 0.061916
C4    C     C_R   0.562795 0.595215 0.214509 0.064929
C5    C     C_R   0.463300 0.761455 0.448949 -0.064579
C6    C     C_R   0.555290 0.241663 0.543418 -0.050340
C7    C     C_R   0.466107 0.848592 0.452209 -0.292882
C8    C     C_R   0.552440 0.154638 0.539343 -0.295187
C9    C     C_R   0.524439 0.893679 0.518884 0.276414
C10   C     C_R   0.476105 0.106690 0.479345 0.273764
C11   C     C_R   0.580560 0.848914 0.580971 -0.006498
C12   C     C_R   0.403617 0.148890 0.424164 -0.004598
C13   C     C_R   0.574159 0.760714 0.574372 -0.004821
C14   C     C_R   0.409949 0.236966 0.431652 -0.008999
C15   C     C_R   0.744712 0.534302 0.495195 0.928898
C16   C     C_R   0.255202 0.466943 0.492756 0.921360
C17   C     C_2   0.883494 0.551046 0.474730 -0.439857
C18   C     C_2   0.116260 0.454079 0.471649 -0.436636
C19   C     C_2   0.928117 0.502401 0.423713 0.104270
C20   C     C_2   0.070706 0.512068 0.423499 0.119255
C21   C     C_R   0.492238 0.475531 0.739296 -0.124913
C22   C     C_R   0.489975 0.522097 0.260055 -0.140540
C23   C     C_R   0.596890 0.524182 0.782508 -0.379955
C24   C     C_R   0.400446 0.456295 0.222997 -0.364467
C25   C     C_R   0.596087 0.517628 0.865997 0.488563
C26   C     C_R   0.383597 0.460206 0.140349 0.491373
C27   C     C_R   0.490548 0.459608 0.905348 0.202347
C28   C     C_R   0.463370 0.528693 0.094159 0.185746
C29   C     C_R   0.388327 0.408469 0.862465 -0.260406
C30   C     C_R   0.546436 0.597179 0.130820 -0.265921
H1    H     H_    0.615816 0.724294 0.620268 0.132927
H2    H     H_    0.356264 0.271718 0.391071 0.131789
H3    H     H_    0.048339 0.396671 0.497319 0.144637
H4    H     H_    0.952108 0.602602 0.503689 0.149575
H5    H     H_    0.342918 0.401520 0.258360 0.165871
H6    H     H_    0.679842 0.566295 0.751029 0.154281
H7    H     H_    0.309419 0.365317 0.896087 0.169472
H8    H     H_    0.601936 0.649571 0.092437 0.157646
H9    H     H_    0.614607 0.278246 0.589087 0.142722
H10   H     H_    0.419580 0.727458 0.397491 0.140328
H11   H     H_    0.610213 0.125567 0.582661 0.161510
H12   H     H_    0.423318 0.880148 0.402734 0.159103
N1    N     N_2   0.480145 0.457476 0.988822 -0.097838
N2    N     N_2   0.468868 0.527912 0.010377 -0.172970
N3    N     N_R   0.515370 0.719110 0.509820 -0.094924
N4    N     N_R   0.484630 0.280890 0.490180 -0.100909
N5    N     N_2   0.530236 0.983149 0.525701 -0.195307
N6    N     N_2   0.470139 0.017231 0.472027 -0.194025
O1    O     O_R   0.494500 0.421750 0.612630 -0.617203
O2    O     O_R   0.505500 0.578250 0.387370 -0.637555
O3    O     O_R   0.504370 0.562470 0.618930 -0.617222
O4    O     O_R   0.495630 0.437530 0.381070 -0.619752
O5    O     O_R   0.679100 0.455920 0.498020 -0.612541
O6    O     O_R   0.320900 0.544080 0.501980 -0.605550
O7    O     O_R   0.688960 0.596630 0.504320 -0.605086
O8    O     O_R   0.311040 0.403370 0.495680 -0.610426
Zn1   Zn    Zn3+2 0.493410 0.406040 0.495790 0.916190
Zn2   Zn    Zn3+2 0.506590 0.593960 0.504210 0.917530
C31   C     C_3   0.159656 0.592330 0.382358 -0.361480
C32   C     C_3   0.091404 0.635887 0.314663 -0.373841
C33   C     C_3   0.185857 0.716186 0.277575 -0.913709
H13   H     H_    0.217654 0.764337 0.323250 0.257847
H14   H     H_    0.274191 0.699675 0.253292 0.263748
H15   H     H_    0.134975 0.745011 0.227683 0.261103
H16   H     H_    0.056974 0.591030 0.266705 0.219464
H17   H     H_    0.004844 0.654867 0.338388 0.231689
H18   H     H_    0.195883 0.639470 0.428406 0.217070
H19   H     H_    0.245221 0.574549 0.355790 0.204549
C34   C     C_3   0.837966 0.432638 0.376331 -0.335024
C35   C     C_3   0.907920 0.397168 0.311141 -0.401879
C36   C     C_3   0.809645 0.330343 0.265280 -0.863228
H20   H     H_    0.760127 0.275888 0.306952 0.264088
H21   H     H_    0.733744 0.359655 0.234763 0.272117
H22   H     H_    0.862690 0.305262 0.219150 0.249189
H23   H     H_    0.956409 0.449802 0.267653 0.216787
H24   H     H_    0.984368 0.366400 0.338863 0.228696
H25   H     H_    0.792041 0.377731 0.418559 0.224057
H26   H     H_    0.759203 0.459847 0.346589 0.201879
O9    O     O_3   0.297104 0.393967 0.103994 -0.599270
C37   C     C_3   0.167250 0.403952 0.111780 0.085902
H27   H     H_    0.158402 0.468091 0.085759 0.140790
H28   H     H_    0.137302 0.396164 0.175981 0.133439
C38   C     C_3   0.072365 0.335458 0.066473 -0.807151
H29   H     H_    0.076829 0.270598 0.092025 0.250602
H30   H     H_    0.969877 0.342998 0.071717 0.211915
H31   H     H_    0.099117 0.341789 0.001954 0.250246
O10   O     O_3   0.702877 0.560848 0.910161 -0.596250
C39   C     C_3   0.713095 0.650202 0.900906 0.108420
H32   H     H_    0.619391 0.665741 0.918131 0.139926
H33   H     H_    0.737945 0.675621 0.838104 0.133192
C40   C     C_3   0.823378 0.695540 0.955460 -0.833862
H34   H     H_    0.919892 0.686967 0.935483 0.257317
H35   H     H_    0.826821 0.765177 0.953436 0.199507
H36   H     H_    0.806203 0.668409 0.018267 0.252985
C41   C     C_3   0.271716 0.365422 0.729221 -0.369441
C42   C     C_3   0.151156 0.314336 0.777303 -0.370238
C43   C     C_3   0.040130 0.271487 0.721398 -0.877521
H37   H     H_    0.007108 0.320650 0.681520 0.259006
H38   H     H_    0.074276 0.226581 0.684011 0.261746
H39   H     H_    0.954722 0.234639 0.757576 0.251339
H40   H     H_    0.179590 0.263453 0.817297 0.224310
H41   H     H_    0.113463 0.358073 0.814355 0.229803
H42   H     H_    0.237402 0.411279 0.685824 0.191068
H43   H     H_    0.309333 0.319904 0.694416 0.220804
C44   C     C_3   0.658857 0.667407 0.255717 -0.360685
C45   C     C_3   0.750544 0.735034 0.200122 -0.385010
C46   C     C_3   0.843538 0.802308 0.248419 -0.877659
H44   H     H_    0.785974 0.836795 0.283541 0.264092
H45   H     H_    0.905549 0.771634 0.290172 0.264321
H46   H     H_    0.909496 0.849687 0.206914 0.250472
H47   H     H_    0.810827 0.703284 0.164000 0.227363
H48   H     H_    0.690975 0.768709 0.159226 0.223282
H49   H     H_    0.600485 0.701138 0.291102 0.217931
H50   H     H_    0.722506 0.638117 0.297838 0.195027
C47   C     C_3   0.645109 0.897342 0.652557 -0.408794
C48   C     C_3   0.704587 0.844603 0.717241 -0.382415
C49   C     C_3   0.767037 0.899786 0.785491 -0.878550
H51   H     H_    0.846764 0.954546 0.762218 0.264256
H52   H     H_    0.691213 0.924777 0.815250 0.261276
H53   H     H_    0.810552 0.860437 0.830677 0.246180
H54   H     H_    0.625974 0.790336 0.742727 0.215819
H55   H     H_    0.782283 0.818769 0.690391 0.221942
H56   H     H_    0.725009 0.952361 0.629687 0.211961
H57   H     H_    0.569679 0.923802 0.681221 0.213717
C50   C     C_3   0.321740 0.097973 0.358963 -0.421762
C51   C     C_3   0.246491 0.148468 0.301228 -0.366343
C52   C     C_3   0.168237 0.091291 0.238544 -0.854244
H58   H     H_    0.235811 0.065545 0.202138 0.260946
H59   H     H_    0.094556 0.036994 0.268188 0.257880
H60   H     H_    0.115078 0.129438 0.197830 0.250382
H61   H     H_    0.176158 0.174168 0.335525 0.219158
H62   H     H_    0.317508 0.202747 0.269450 0.233396
H63   H     H_    0.388983 0.071320 0.323003 0.213470
H64   H     H_    0.248925 0.043081 0.388622 0.214595

loop_
_geom_bond_atom_site_label_1
_geom_bond_atom_site_label_2
_ccdc_geom_bond_type
C50   H64   S    
C13   N3    A    
O10   C39   S    
C1    C21   S    
C51   C52   S    
C42   H41   S    
C27   C29   A    
C41   C42   S    
C39   H33   S    
C34   H25   S    
C19   C20   S    
C52   H59   S    
C43   H37   S    
C14   N4    A    
C45   H48   S    
O8    Zn1   S    
C48   H55   S    
C15   O5    A    
C44   H49   S    
C24   C26   A    
C49   H52   S    
C45   C46   S    
C47   C48   S    
C25   O10   S    
O1    Zn1   S    
C48   C49   S    
C30   H8    S    
C33   H14   S    
C7    H12   S    
C3    C29   A    
C2    O2    A    
C31   H18   S    
N5    N6    D    
C2    C22   S    
C46   H44   S    
C35   C36   S    
C11   C47   S    
C32   H17   S    
C31   C32   S    
C42   H40   S    
C46   H45   S    
C34   H26   S    
C33   H13   S    
C37   C38   S    
C10   C12   A    
C43   H38   S    
C41   H42   S    
C45   H47   S    
N3    Zn2   S    
C24   H5    S    
C47   H56   S    
C48   H54   S    
O2    Zn2   S    
C44   H50   S    
C8    H11   S    
C37   H28   S    
C49   H53   S    
C40   H34   S    
C36   H21   S    
O5    Zn1   S    
C6    C8    A    
C12   C50   S    
C5    N3    A    
C28   N2    S    
C32   C33   S    
C15   O7    A    
C33   H15   S    
N1    N2    D    
C16   O8    A    
C31   H19   S    
C40   H35   S    
C4    C22   A    
C38   H29   S    
C39   C40   S    
C51   H62   S    
C42   C43   S    
O3    Zn2   S    
C20   C31   S    
C1    O3    A    
C2    O4    A    
C16   C18   S    
C38   H30   S    
C12   C14   A    
C32   H16   S    
C9    N5    S    
C9    C11   A    
N4    Zn1   S    
C10   N6    S    
C50   C51   S    
C46   H46   S    
C22   C24   A    
C19   C34   S    
C17   H4    S    
C52   H58   S    
C43   H39   S    
C41   H43   S    
C5    C7    A    
O6    Zn2   S    
C4    C44   S    
C50   H63   S    
C7    C9    A    
C47   H57   S    
C6    N4    A    
C13   H1    S    
C14   H2    S    
C37   H27   S    
C36   H22   S    
C15   C17   S    
C25   C27   A    
C44   C45   S    
C26   C28   A    
C26   O9    S    
C21   C23   A    
C52   H60   S    
C36   H20   S    
C49   H51   S    
C40   H36   S    
C35   H24   S    
C11   C13   A    
C51   H61   S    
C28   C30   A    
C17   C19   D    
C18   C20   D    
C23   C25   A    
C34   C35   S    
C18   H3    S    
C16   O6    A    
C3    C21   A    
O4    Zn1   S    
O9    C37   S    
C27   N1    S    
C38   H31   S    
C39   H32   S    
C8    C10   A    
C23   H6    S    
O7    Zn2   S    
C29   H7    S    
C35   H23   S    
C6    H9    S    
C3    C41   S    
C5    H10   S    
C1    O1    A    
C4    C30   A    
