data_mof_unit_8056.cif
_audit_creation_date              2012-12-10T17:51:28-0500
_audit_creation_method            fapswitch 2.2
_symmetry_space_group_name_H-M    P1
_symmetry_Int_Tables_number       1
_space_group_crystal_system       triclinic
_cell_length_a                    9.881345
_cell_length_b                    10.727352
_cell_length_c                    16.716481
_cell_angle_alpha                 91.843285
_cell_angle_beta                  85.757357
_cell_angle_gamma                 90.050179
_cell_volume                      1766.18600466

loop_
_atom_site_label
_atom_site_type_symbol
_atom_type_description
_atom_site_fract_x
_atom_site_fract_y
_atom_site_fract_z
_atom_type_partial_charge
C1    C     C_R   0.499886 0.739596 0.493506 0.870086
C2    C     C_R   0.349531 0.531666 0.785523 -0.206985
C3    C     C_R   0.453769 0.664364 0.160976 -0.154098
C4    C     C_R   0.439308 0.620618 0.238051 -0.246102
C5    C     C_R   0.634783 0.483060 0.208365 0.442416
C6    C     C_R   0.649037 0.529168 0.131343 -0.163723
C7    C     C_R   0.557103 0.616982 0.106852 0.103163
C8    C     C_2   0.450185 0.659406 0.983514 -0.227378
C9    C     C_2   0.563603 0.646524 0.022072 -0.201800
C10   C     C_R   0.528583 0.530047 0.262407 -0.155620
C11   C     C_R   0.249511 0.884893 0.463051 -0.157187
C12   C     C_R   0.481746 0.505685 0.653343 0.842660
C13   C     C_R   0.125128 0.943882 0.482164 -0.132152
C14   C     C_R   0.120656 0.056735 0.525386 -0.160522
C15   C     C_R   0.241303 0.116043 0.542322 -0.159957
C16   C     C_R   0.368753 0.062243 0.516049 0.099690
C17   C     C_R   0.371719 0.938263 0.487922 0.095926
C18   C     C_R   0.496788 0.872974 0.487538 -0.121677
C19   C     C_R   0.618477 0.936699 0.495890 -0.218222
C20   C     C_R   0.617356 0.063640 0.506475 -0.216710
C21   C     C_R   0.493789 0.127487 0.514846 -0.132325
C22   C     C_R   0.847666 0.669412 0.601599 -0.183884
C23   C     C_R   0.498273 0.260622 0.507167 0.886620
C24   C     C_R   0.911842 0.752875 0.651693 -0.223305
C25   C     C_R   0.051677 0.751249 0.652814 -0.174320
C26   C     C_R   0.127987 0.666746 0.603440 -0.149066
C27   C     C_R   0.066346 0.582772 0.550611 0.149523
C28   C     C_R   0.921690 0.583381 0.550152 0.171887
C29   C     C_R   0.934305 0.420123 0.452003 -0.108188
C30   C     C_R   0.077654 0.420294 0.451928 -0.121486
C31   C     C_R   0.518232 0.501247 0.346838 0.855369
C32   C     C_R   0.471949 0.542582 0.738243 -0.029744
C33   C     C_R   0.581929 0.604678 0.769717 -0.212782
C34   C     C_R   0.570958 0.654281 0.847150 -0.156685
C35   C     C_R   0.452512 0.635344 0.896633 0.198333
C36   C     C_R   0.340371 0.576902 0.864843 -0.167273
H1    H     H_    0.676423 0.617169 0.734389 0.154305
H2    H     H_    0.728343 0.491470 0.089152 0.151191
H3    H     H_    0.715186 0.888723 0.494238 0.173040
H4    H     H_    0.248305 0.798982 0.427545 0.161348
H5    H     H_    0.032085 0.900393 0.465219 0.141272
H6    H     H_    0.023951 0.099989 0.543934 0.136167
H7    H     H_    0.233129 0.202545 0.577333 0.163151
H8    H     H_    0.713806 0.111613 0.507602 0.168477
H9    H     H_    0.885101 0.354957 0.412855 0.156939
H10   H     H_    0.740059 0.674012 0.605749 0.203945
H11   H     H_    0.852388 0.818143 0.690559 0.151354
H12   H     H_    0.360199 0.660411 0.279530 0.167165
H13   H     H_    0.101466 0.815412 0.692419 0.153453
H14   H     H_    0.234520 0.669949 0.608729 0.208720
H15   H     H_    0.136575 0.355188 0.412766 0.160236
H16   H     H_    0.660844 0.630930 0.988745 0.145231
H17   H     H_    0.247691 0.562260 0.902146 0.128955
H18   H     H_    0.384075 0.734848 0.143832 0.144985
H19   H     H_    0.262192 0.486871 0.761610 0.153814
H20   H     H_    0.351638 0.661926 0.016937 0.150432
H21   H     H_    0.656984 0.704360 0.868536 0.127380
N1    N     N_R   0.857140 0.501200 0.500750 -0.121782
N2    N     N_R   0.142740 0.501280 0.500770 -0.128433
O1    O     O_R   0.385310 0.683220 0.500000 -0.650927
O2    O     O_R   0.614640 0.683250 0.500010 -0.637203
O3    O     O_R   0.371780 0.500010 0.615800 -0.640738
O4    O     O_R   0.601110 0.500030 0.615800 -0.631459
O5    O     O_R   0.385360 0.316750 0.499990 -0.624105
O6    O     O_R   0.614690 0.316780 0.500000 -0.619579
O7    O     O_R   0.398890 0.499970 0.384200 -0.609458
O8    O     O_R   0.628220 0.499990 0.384200 -0.595471
Zn1   Zn    Zn3+2 0.346870 0.499980 0.499990 0.922553
Zn2   Zn    Zn3+2 0.653130 0.500020 0.500010 0.941114
O9    O     O_3   0.724018 0.391342 0.227190 -0.769629
H22   H     H_    0.684880 0.346528 0.274274 0.329077

loop_
_geom_bond_atom_site_label_1
_geom_bond_atom_site_label_2
_ccdc_geom_bond_type
C34   H21   S    
O7    Zn1   S    
C30   H15   S    
C6    H2    S    
N1    Zn2   S    
O9    H22   S    
C28   N1    A    
N2    Zn1   S    
C31   O7    A    
C12   O3    A    
C19   C20   A    
C35   C36   A    
O3    Zn1   S    
C14   H6    S    
C30   N2    A    
C8    H20   S    
C26   H14   S    
C13   H5    S    
C17   C18   A    
C1    C18   S    
C24   C25   A    
C15   H7    S    
C5    C10   A    
C25   C26   A    
C27   N2    A    
C13   C14   A    
C32   C33   A    
C31   O8    A    
C11   C13   A    
C23   O6    A    
C26   C27   A    
C29   C30   A    
C9    H16   S    
C19   H3    S    
O6    Zn2   S    
C5    C6    A    
O5    Zn1   S    
C23   O5    A    
C20   H8    S    
C33   H1    S    
C33   C34   A    
C6    C7    A    
C3    C7    A    
C2    H19   S    
C21   C23   S    
C11   H4    S    
C3    H18   S    
C22   C24   A    
C5    O9    S    
C16   C17   A    
C4    C10   A    
C15   C16   A    
C2    C36   A    
C29   N1    A    
O1    Zn1   S    
C2    C32   A    
C34   C35   A    
C4    H12   S    
C1    O1    A    
O2    Zn2   S    
C27   C28   A    
C7    C9    S    
C12   O4    A    
C14   C15   A    
C18   C19   A    
C22   C28   A    
C36   H17   S    
C1    O2    A    
C22   H10   S    
C20   C21   A    
C24   H11   S    
C16   C21   A    
C10   C31   S    
C8    C35   S    
C12   C32   S    
C3    C4    A    
O4    Zn2   S    
C29   H9    S    
C8    C9    D    
O8    Zn2   S    
C25   H13   S    
C11   C17   A    
