data_mof_unit_47998.cif
_audit_creation_date              2013-03-05T16:12:06-0500
_audit_creation_method            fapswitch 2.2
_symmetry_space_group_name_H-M    P1
_symmetry_Int_Tables_number       1
_space_group_crystal_system       triclinic
_cell_length_a                    9.877228
_cell_length_b                    10.67829
_cell_length_c                    16.736425
_cell_angle_alpha                 90.929277
_cell_angle_beta                  83.515352
_cell_angle_gamma                 89.640423
_cell_volume                      1753.63992102

loop_
_atom_site_label
_atom_site_type_symbol
_atom_site_description
_atom_site_fract_x
_atom_site_fract_y
_atom_site_fract_z
_atom_type_partial_charge
O1    O     O_R   0.385380 0.683250 0.500010 -0.575153
O2    O     O_R   0.614620 0.316750 0.499990 -0.575337
O3    O     O_R   0.614710 0.683220 0.500000 -0.620910
O4    O     O_R   0.385290 0.316780 0.500000 -0.626251
C1    C     C_R   0.500214 0.739701 0.497387 0.991634
C2    C     C_R   0.499580 0.260376 0.502938 0.961514
O5    O     O_R   0.371780 0.500040 0.615800 -0.554501
O6    O     O_R   0.628220 0.499960 0.384200 -0.564846
O7    O     O_R   0.601110 0.500010 0.615800 -0.588037
O8    O     O_R   0.398890 0.499990 0.384200 -0.568861
C3    C     C_R   0.479086 0.499471 0.653226 0.996497
C4    C     C_R   0.521223 0.496452 0.346765 0.982135
Zn1   Zn    Zn3+2 0.346870 0.500020 0.500000 1.118608
Zn2   Zn    Zn3+2 0.653130 0.499980 0.500000 1.106517
C5    C     C_R   0.463411 0.487094 0.740093 -0.262446
C6    C     C_R   0.543271 0.472457 0.260443 -0.269524
C7    C     C_R   0.551463 0.553453 0.785618 0.280534
C8    C     C_R   0.487169 0.364286 0.228471 0.272833
C9    C     C_R   0.558192 0.520163 0.864695 -0.243661
C10   C     C_R   0.525059 0.330131 0.148957 -0.203265
C11   C     C_R   0.476242 0.425013 0.899976 0.065083
C12   C     C_R   0.611478 0.405589 0.098973 0.039769
C13   C     C_R   0.380283 0.363851 0.856952 0.084558
C14   C     C_R   0.675020 0.510769 0.130662 0.085410
C15   C     C_R   0.374856 0.395116 0.775974 0.257597
C16   C     C_R   0.642054 0.542438 0.212753 0.270709
C17   C     C_2   0.486065 0.398979 0.984377 -0.183555
C18   C     C_2   0.607261 0.389848 0.012471 -0.175740
H1    H     H_    0.700753 0.389538 0.971576 0.177276
H2    H     H_    0.392667 0.401169 0.025483 0.173057
H3    H     H_    0.477832 0.249145 0.123998 0.194440
H4    H     H_    0.626117 0.571073 0.899734 0.190595
C19   C     C_R   0.592544 0.933256 0.540398 -0.195962
C20   C     C_R   0.405109 0.066960 0.461786 -0.182055
H5    H     H_    0.661772 0.880300 0.573048 0.229546
H6    H     H_    0.334850 0.119939 0.429906 0.231981
C21   C     C_R   0.590859 0.061896 0.547195 0.345807
C22   C     C_R   0.406549 0.938436 0.454962 0.343885
C23   C     C_R   0.498079 0.127945 0.505618 -0.181440
C24   C     C_R   0.500651 0.872246 0.495675 -0.194384
C25   C     C_R   0.936634 0.401942 0.466146 0.369251
C26   C     C_R   0.063233 0.597798 0.534255 0.374834
C27   C     C_R   0.079746 0.401923 0.467589 -0.094617
C28   C     C_R   0.919892 0.597236 0.533578 -0.120029
H7    H     H_    0.140432 0.323657 0.441787 0.216736
H8    H     H_    0.858605 0.674003 0.561257 0.206334
N1    N     N_R   0.142790 0.500030 0.500020 -0.159200
N2    N     N_R   0.857210 0.499970 0.499980 -0.161512
N3    N     N_R   0.633424 0.655346 0.752563 0.224489
O9    O     O_R   0.584712 0.733393 0.703947 -0.400508
O10   O     O_R   0.750270 0.679329 0.778240 -0.343400
N4    N     N_R   0.392536 0.286844 0.275897 0.197016
O11   O     O_R   0.414175 0.166563 0.276348 -0.361474
O12   O     O_R   0.270523 0.329612 0.298669 -0.362774
N5    N     N_R   0.707118 0.646690 0.247556 0.210057
O13   O     O_R   0.634452 0.739832 0.280435 -0.344617
O14   O     O_R   0.836356 0.640768 0.255879 -0.335233
N6    N     N_R   0.286395 0.327649 0.728650 0.207608
O15   O     O_R   0.320728 0.216412 0.700279 -0.352516
O16   O     O_R   0.167412 0.373881 0.718703 -0.331654
C29   C     C_3   0.288872 0.262246 0.895641 -0.385072
C30   C     C_3   0.367476 0.139537 0.900688 -0.697442
H9    H     H_    0.411353 0.107466 0.839699 0.298677
H10   H     H_    0.451009 0.151175 0.939255 0.253471
H11   H     H_    0.297381 0.066457 0.927123 0.253291
H12   H     H_    0.243362 0.292635 0.956566 0.199398
H13   H     H_    0.200847 0.243982 0.861492 0.258111
C31   C     C_3   0.766416 0.596165 0.076715 -0.386218
C32   C     C_3   0.688889 0.712987 0.055515 -0.741003
H14   H     H_    0.755067 0.769661 0.012125 0.264772
H15   H     H_    0.596062 0.686377 0.027729 0.252156
H16   H     H_    0.658414 0.771393 0.110114 0.294112
H17   H     H_    0.856791 0.624204 0.106249 0.260268
H18   H     H_    0.808991 0.547908 0.020297 0.202819
N7    N     N_R   0.677991 0.122661 0.599081 0.235224
O17   O     O_R   0.630685 0.213064 0.647613 -0.374582
O18   O     O_R   0.796971 0.074810 0.607472 -0.278568
N8    N     N_R   0.316682 0.878149 0.404469 0.241318
O19   O     O_R   0.361074 0.787058 0.355723 -0.333761
O20   O     O_R   0.197601 0.927009 0.397538 -0.269750
N9    N     N_R   0.877218 0.298994 0.427433 0.228282
O21   O     O_R   0.913661 0.185124 0.442133 -0.306507
O22   O     O_R   0.814803 0.318715 0.364446 -0.338965
N10   N     N_R   0.122552 0.700604 0.573175 0.225538
O23   O     O_R   0.084742 0.814426 0.559398 -0.309071
O24   O     O_R   0.185650 0.680490 0.635838 -0.319344

loop_
_geom_bond_atom_site_label_1
_geom_bond_atom_site_label_2
_geom_bond_distance
_ccdc_geom_bond_type
N5    O13   1.300480 A    
N7    O17   1.301215 A    
C16   N5    1.436689 S    
N9    O21   1.301086 A    
C8    N4    1.432115 S    
O5    C3    1.290632 A    
O1    C1    1.284522 A    
C18   H1    1.085516 S    
C9    C11   1.399295 A    
N10   O24   1.299126 A    
C32   H14   1.110350 S    
N8    O20   1.301604 A    
C5    C15   1.414787 A    
N6    O16   1.300824 A    
C32   H15   1.110375 S    
O4    Zn1   1.990809 S    
N7    O18   1.301522 A    
C30   H10   1.109866 S    
C7    C9    1.384633 A    
C3    C5    1.452843 S    
C29   H12   1.109500 S    
C4    C6    1.454829 S    
C28   H8    1.082191 S    
C31   C32   1.527144 S    
N3    O10   1.301694 A    
C20   H6    1.083890 S    
C11   C17   1.457875 S    
C12   C18   1.460049 S    
C17   H2    1.086615 S    
C25   C27   1.416479 A    
O2    C2    1.285624 A    
C26   C28   1.417190 A    
C9    H4    1.082892 S    
N9    O22   1.299257 A    
N4    O12   1.299971 A    
C6    C16   1.414242 A    
C19   C24   1.397702 A    
C20   C23   1.396302 A    
C26   N10   1.429609 S    
N10   O23   1.301053 A    
O4    C2    1.282374 A    
C7    N3    1.440369 S    
Zn1   N1    2.015706 S    
N8    O19   1.300803 A    
Zn2   N2    2.015707 S    
C22   N8    1.440640 S    
C31   H17   1.108615 S    
C19   C21   1.376362 A    
C32   H16   1.109787 S    
O7    Zn2   1.948127 S    
C30   H9    1.110798 S    
C27   H7    1.080631 S    
C29   H13   1.109675 S    
C13   C29   1.521407 S    
O6    C4    1.288458 A    
C25   N9    1.429528 S    
O7    C3    1.294109 A    
O3    Zn2   1.990809 S    
O8    C4    1.296782 A    
C10   C12   1.395299 A    
C11   C13   1.410695 A    
C12   C14   1.414698 A    
O1    Zn1   1.995556 S    
C15   N6    1.433699 S    
N4    O11   1.301011 A    
C5    C7    1.406738 A    
O6    Zn2   1.981004 S    
C30   H11   1.110338 S    
C20   C22   1.375165 A    
C14   C16   1.410848 A    
O3    C1    1.283772 A    
O8    Zn1   1.948127 S    
N5    O14   1.300900 A    
N6    O15   1.300631 A    
C21   C23   1.404731 A    
C22   C24   1.406477 A    
C27   N1    1.358660 A    
C19   H5    1.084200 S    
C25   N2    1.379112 A    
C8    C10   1.383513 A    
C26   N1    1.379972 A    
C13   C15   1.407827 A    
C21   N7    1.439915 S    
C29   C30   1.527256 S    
O2    Zn2   1.995556 S    
C14   C31   1.521375 S    
O5    Zn1   1.981004 S    
C6    C8    1.408041 A    
N3    O9    1.301348 A    
C1    C24   1.416131 S    
C17   C18   1.338188 D    
C2    C23   1.415693 S    
C31   H18   1.107136 S    
C28   N2    1.358686 A    
C10   H3    1.085044 S    
