data_mof_unit_42052.cif
_audit_creation_date              2012-12-10T17:04:27-0500
_audit_creation_method            fapswitch 2.2
_symmetry_space_group_name_H-M    P1
_symmetry_Int_Tables_number       1
_space_group_crystal_system       triclinic
_cell_length_a                    14.927434
_cell_length_b                    10.654979
_cell_length_c                    10.048817
_cell_angle_alpha                 88.061968
_cell_angle_beta                  89.620543
_cell_angle_gamma                 90.532729
_cell_volume                      1597.25761156

loop_
_atom_site_label
_atom_site_type_symbol
_atom_type_description
_atom_site_fract_x
_atom_site_fract_y
_atom_site_fract_z
_atom_type_partial_charge
C1    C     C_R   0.490863 0.263082 0.502348 0.893778
C2    C     C_R   0.187197 0.386335 0.487575 0.054428
C3    C     C_R   0.231885 0.501026 0.499982 -0.222739
C4    C     C_R   0.327376 0.500245 0.500333 0.869321
C5    C     C_R   0.187291 0.616339 0.498191 0.391672
C6    C     C_2   0.452039 0.934701 0.405190 0.032812
C7    C     C_2   0.507595 0.871728 0.488186 0.274275
C8    C     C_2   0.457598 0.070148 0.397855 -0.186916
C9    C     C_2   0.459191 0.135425 0.509608 0.019656
C10   C     C_2   0.553329 0.570681 0.921003 0.159760
C11   C     C_2   0.543579 0.582891 0.070362 0.067923
C12   C     C_R   0.906342 0.614819 0.468154 -0.003376
C13   C     C_R   0.501450 0.737712 0.497444 0.813594
C14   C     C_R   0.672585 0.499624 0.499420 0.857475
C15   C     C_R   0.813661 0.613515 0.489736 0.017748
C16   C     C_R   0.767977 0.498748 0.495817 -0.167102
C17   C     C_R   0.811437 0.383937 0.485211 0.077057
C18   C     C_R   0.905371 0.382667 0.475345 0.049538
C19   C     C_R   0.952976 0.499206 0.470700 -0.113449
C20   C     C_R   0.952559 0.268472 0.470755 0.319077
C21   C     C_R   0.046476 0.270699 0.460008 0.333134
C22   C     C_R   0.093838 0.384806 0.474374 0.048772
C23   C     C_R   0.047117 0.500444 0.473598 -0.146494
C24   C     C_R   0.094287 0.617384 0.477876 -0.010509
C25   C     C_R   0.046579 0.731468 0.459267 0.072828
C26   C     C_R   0.954058 0.729010 0.448126 0.434810
H1    H     H_    0.472804 0.113506 0.300813 0.151899
H2    H     H_    0.682501 0.623399 0.893608 0.181280
H3    H     H_    0.535721 0.748806 0.161243 0.219389
H4    H     H_    0.627196 0.661262 0.203910 0.232914
H5    H     H_    0.715998 0.271855 0.405354 0.199911
H6    H     H_    0.722011 0.262027 0.574407 0.196412
H7    H     H_    0.945143 0.090767 0.522374 0.375146
H8    H     H_    0.054426 0.108520 0.377940 0.360659
H9    H     H_    0.282845 0.271124 0.415262 0.189840
H10   H     H_    0.271707 0.265681 0.584141 0.190486
H11   H     H_    0.291863 0.713285 0.558073 0.340274
H12   H     H_    0.448303 0.456756 0.900910 0.135282
H13   H     H_    0.137111 0.850517 0.366327 0.230334
H14   H     H_    0.118146 0.877737 0.532930 0.259296
H15   H     H_    0.867135 0.822468 0.346069 0.345111
H16   H     H_    0.400507 0.896889 0.225379 0.180471
H17   H     H_    0.324065 0.906275 0.348866 0.222940
H18   H     H_    0.477239 0.421370 0.105249 0.144393
H19   H     H_    0.716445 0.739790 0.442195 0.177110
H20   H     H_    0.736434 0.720089 0.607946 0.199361
H21   H     H_    0.608276 0.871511 0.610563 0.329631
H22   H     H_    0.477185 0.067026 0.699576 0.236951
H23   H     H_    0.385289 0.005376 0.625337 0.207039
H24   H     H_    0.607436 0.739290 0.865846 0.186150
N1    N     N_2   0.500970 0.501330 0.852150 -0.196877
N2    N     N_3   0.387325 0.871818 0.325109 -0.446748
N3    N     N_2   0.500990 0.501360 0.147810 -0.206731
N4    N     N_3   0.766493 0.727843 0.513727 -0.406329
N5    N     N_3   0.423868 0.086768 0.635613 -0.453392
N6    N     N_3   0.620440 0.644504 0.851260 -0.385730
N7    N     N_3   0.585613 0.690311 0.126050 -0.464589
N8    N     N_3   0.759668 0.269234 0.486302 -0.340452
N9    N     N_3   0.236885 0.271120 0.494217 -0.356574
N10   N     N_3   0.089517 0.852247 0.443036 -0.379613
O1    O     O_R   0.499990 0.319060 0.613040 -0.602138
O2    O     O_3   0.906620 0.155119 0.478897 -0.709534
O3    O     O_3   0.092470 0.162220 0.433554 -0.750921
O4    O     O_3   0.233225 0.728109 0.515529 -0.820684
O5    O     O_3   0.912538 0.840693 0.414546 -0.715610
O6    O     O_R   0.500010 0.319100 0.386900 -0.639768
O7    O     O_R   0.367830 0.499950 0.613080 -0.622826
O8    O     O_R   0.367860 0.499990 0.386940 -0.595343
O9    O     O_R   0.499990 0.680900 0.613100 -0.611039
O10   O     O_R   0.500010 0.680940 0.386960 -0.615537
O11   O     O_R   0.632140 0.500010 0.613060 -0.589392
O12   O     O_R   0.632170 0.500050 0.386920 -0.626737
O13   O     O_3   0.573925 0.933909 0.556747 -0.787230
Zn1   Zn    Zn3+2 0.499980 0.499970 0.650990 0.958618
Zn2   Zn    Zn3+2 0.500020 0.500030 0.349010 0.935823

loop_
_geom_bond_atom_site_label_1
_geom_bond_atom_site_label_2
_ccdc_geom_bond_type
C2    C22   A    
O11   Zn1   S    
C19   C23   A    
C23   C24   A    
C12   C15   A    
C6    C7    D    
C9    N5    S    
C25   N10   S    
O1    Zn1   S    
C4    O7    A    
C10   N6    S    
C14   O11   A    
C11   N3    D    
N1    Zn1   S    
H6    N8    S    
C17   N8    S    
H10   N9    S    
C14   O12   A    
H20   N4    S    
C2    C3    A    
H2    N6    S    
H22   N5    S    
O9    Zn1   S    
C7    O13   S    
O7    Zn1   S    
H23   N5    S    
C21   C22   A    
C20   C21   A    
O8    Zn2   S    
N3    Zn2   S    
C5    C24   A    
C13   O9    A    
O12   Zn2   S    
H14   N10   S    
H13   N10   S    
C6    C8    S    
C12   C19   A    
H8    O3    S    
H3    N7    S    
H19   N4    S    
C17   C18   A    
C18   C20   A    
C22   C23   A    
C20   O2    S    
H5    N8    S    
C14   C16   S    
H17   N2    S    
C21   O3    S    
C16   C17   A    
C13   O10   A    
C10   N1    D    
C1    O1    A    
C3    C4    S    
H4    N7    S    
C7    C13   S    
H11   O4    S    
C1    C9    S    
C24   C25   A    
H21   O13   S    
H9    N9    S    
C15   N4    S    
C10   C11   S    
C12   C26   A    
O10   Zn2   S    
C4    O8    A    
C8    H1    S    
O6    Zn2   S    
C2    N9    S    
C18   C19   A    
H15   O5    S    
H12   N1    S    
C6    N2    S    
C25   C26   A    
C11   N7    S    
C26   O5    S    
H7    O2    S    
H18   N3    S    
H24   N6    S    
C15   C16   A    
C5    O4    S    
H16   N2    S    
C8    C9    D    
C3    C5    A    
C1    O6    A    
