data_mof_unit_25317.cif
_audit_creation_date              2012-12-10T17:18:56-0500
_audit_creation_method            fapswitch 2.2
_symmetry_space_group_name_H-M    P1
_symmetry_Int_Tables_number       1
_space_group_crystal_system       triclinic
_cell_length_a                    9.574376
_cell_length_b                    10.868415
_cell_length_c                    13.447488
_cell_angle_alpha                 92.944703
_cell_angle_beta                  72.462672
_cell_angle_gamma                 90.739294
_cell_volume                      1332.51659434

loop_
_atom_site_label
_atom_site_type_symbol
_atom_type_description
_atom_site_fract_x
_atom_site_fract_y
_atom_site_fract_z
_atom_type_partial_charge
C1    C     C_R   0.503419 0.736918 0.492737 0.822269
C2    C     C_R   0.434394 0.506963 0.979795 0.077703
C3    C     C_R   0.468170 0.540716 0.874653 0.092479
C4    C     C_R   0.541642 0.526446 0.032901 0.074007
C5    C     C_R   0.675272 0.586464 0.982904 0.170399
C6    C     C_R   0.698204 0.631325 0.884189 -0.255844
C7    C     C_R   0.594549 0.611587 0.832074 -0.210528
C8    C     C_R   0.520328 0.488476 0.134439 -0.256875
C9    C     C_R   0.756344 0.569894 0.135936 -0.202806
C10   C     C_R   0.373319 0.504292 0.815278 -0.108238
C11   C     C_R   0.293137 0.874638 0.415842 -0.135933
C12   C     C_R   0.421314 0.504687 0.700321 0.776965
C13   C     C_R   0.162258 0.930651 0.418027 -0.158598
C14   C     C_R   0.125650 0.045160 0.469254 -0.143598
C15   C     C_R   0.226485 0.109077 0.508445 -0.153844
C16   C     C_R   0.367298 0.059111 0.496381 0.039003
C17   C     C_R   0.389650 0.933496 0.465038 0.095123
C18   C     C_R   0.505456 0.870695 0.486130 -0.186774
C19   C     C_R   0.612630 0.936978 0.517098 -0.295873
C20   C     C_R   0.605648 0.064272 0.529714 0.425382
C21   C     C_R   0.486060 0.127721 0.514939 -0.241284
C22   C     C_R   0.912434 0.338129 0.359129 -0.096619
C23   C     C_R   0.495240 0.262463 0.506883 0.812706
C24   C     C_R   0.012740 0.259362 0.289727 -0.218432
C25   C     C_R   0.156385 0.258393 0.290234 -0.229702
C26   C     C_R   0.200515 0.336095 0.360210 -0.160636
C27   C     C_R   0.102548 0.419404 0.431355 0.196056
C28   C     C_R   0.952935 0.419867 0.431111 0.205559
C29   C     C_R   0.900129 0.577678 0.564300 -0.074670
C30   C     C_R   0.047966 0.577330 0.564604 -0.065976
C31   C     C_R   0.578545 0.500869 0.300161 0.770605
C32   C     C_R   0.782756 0.604783 0.033740 -0.204207
C33   C     C_R   0.622808 0.515286 0.187499 -0.044382
C34   C     C_R   0.235884 0.454113 0.865395 -0.201637
C35   C     C_R   0.195736 0.433296 0.971179 -0.156063
C36   C     C_R   0.294222 0.456506 0.027608 -0.191630
Cu1   Cu    Cu3+1 0.359340 0.500010 0.500010 0.914547
Cu2   Cu    Cu3+1 0.640660 0.499990 0.499990 0.932059
H1    H     H_    0.837041 0.590836 0.176032 0.158078
H2    H     H_    0.318025 0.785760 0.374596 0.159889
H3    H     H_    0.087161 0.883383 0.383023 0.142285
H4    H     H_    0.020188 0.085851 0.476740 0.195622
H5    H     H_    0.188535 0.194506 0.551965 0.168683
H6    H     H_    0.824151 0.642226 0.616156 0.128168
H7    H     H_    0.805003 0.331017 0.352495 0.195106
H8    H     H_    0.978326 0.198167 0.235464 0.149531
H9    H     H_    0.234274 0.196072 0.236674 0.158441
H10   H     H_    0.312384 0.325628 0.355407 0.204151
H11   H     H_    0.796189 0.682973 0.847352 0.136721
H12   H     H_    0.082009 0.640778 0.617449 0.140340
H13   H     H_    0.885177 0.649893 0.995650 0.139366
H14   H     H_    0.423174 0.439924 0.175512 0.144697
H15   H     H_    0.160466 0.427562 0.822133 0.157460
H16   H     H_    0.255593 0.436056 0.108839 0.141858
H17   H     H_    0.089069 0.395037 0.009123 0.147251
H18   H     H_    0.612963 0.655580 0.759137 0.154963
H19   H     H_    0.702143 0.890121 0.533183 0.174845
N1    N     N_R   0.852480 0.498790 0.499000 -0.204210
N2    N     N_R   0.148360 0.498710 0.498970 -0.201918
O1    O     O_R   0.381190 0.680360 0.500010 -0.584551
O2    O     O_R   0.618760 0.680340 0.500000 -0.585705
O3    O     O_R   0.323240 0.499990 0.650990 -0.580914
O4    O     O_R   0.560820 0.499960 0.650980 -0.580816
O5    O     O_R   0.381240 0.319660 0.500000 -0.618638
O6    O     O_R   0.618810 0.319640 0.499990 -0.544024
O7    O     O_R   0.439180 0.500040 0.349020 -0.601349
O8    O     O_R   0.676760 0.500010 0.349010 -0.606105
O9    O     O_3   0.718796 0.125765 0.554882 -0.575675
C37   C     C_3   0.678702 0.147160 0.664359 0.084431
H20   H     H_    0.672054 0.058423 0.703459 0.128308
H21   H     H_    0.571496 0.196270 0.694866 0.134877
C38   C     C_3   0.794137 0.227566 0.692156 -0.762526
H22   H     H_    0.902318 0.180605 0.665303 0.225639
H23   H     H_    0.802492 0.317037 0.654478 0.268386
H24   H     H_    0.763274 0.245428 0.778107 0.196623

loop_
_geom_bond_atom_site_label_1
_geom_bond_atom_site_label_2
_ccdc_geom_bond_type
C31   O7    A    
C16   C21   A    
C35   C36   A    
C4    C8    A    
C13   H3    S    
Cu1   O3    S    
C19   H19   S    
C31   O8    A    
C1    C18   S    
Cu1   Cu2   S    
C34   C35   A    
C3    C7    A    
C5    C6    A    
C15   C16   A    
C9    H1    S    
C18   C19   A    
C37   H21   S    
C9    C32   A    
Cu2   N1    S    
C19   C20   A    
C16   C17   A    
O9    C37   S    
C31   C33   S    
C8    H14   S    
C26   H10   S    
C14   H4    S    
C5    C32   A    
C30   H12   S    
C22   C28   A    
C13   C14   A    
C30   N2    A    
C9    C33   A    
C37   H20   S    
C7    H18   S    
C38   H24   S    
C35   H17   S    
C24   C25   A    
C38   H23   S    
C1    O1    A    
C12   O4    A    
C4    C5    A    
C25   C26   A    
C37   C38   S    
C2    C4    A    
C32   H13   S    
C29   C30   A    
C12   O3    A    
Cu2   O6    S    
Cu1   O7    S    
C20   C21   A    
C17   C18   A    
C26   C27   A    
C10   C34   A    
Cu2   O8    S    
Cu1   N2    S    
C10   C12   S    
C23   O5    A    
C21   C23   S    
C29   H6    S    
C22   C24   A    
Cu1   O5    S    
Cu2   O4    S    
C2    C36   A    
C25   H9    S    
C11   C17   A    
C20   O9    S    
C38   H22   S    
C1    O2    A    
Cu2   O2    S    
C6    C7    A    
C28   N1    A    
C24   H8    S    
C23   O6    A    
C2    C3    A    
C15   H5    S    
C3    C10   A    
C27   N2    A    
C11   C13   A    
C8    C33   A    
C6    H11   S    
C11   H2    S    
Cu1   O1    S    
C36   H16   S    
C22   H7    S    
C29   N1    A    
C34   H15   S    
C27   C28   A    
C14   C15   A    
