data_mof_unit_21043.cif
_audit_creation_date              2012-12-11T16:56:07-0500
_audit_creation_method            fapswitch 2.2
_symmetry_space_group_name_H-M    P1
_symmetry_Int_Tables_number       1
_space_group_crystal_system       triclinic
_cell_length_a                    6.947047
_cell_length_b                    14.550135
_cell_length_c                    16.19158
_cell_angle_alpha                 90.508867
_cell_angle_beta                  89.894596
_cell_angle_gamma                 89.991413
_cell_volume                      1636.58520341

loop_
_atom_site_label
_atom_site_type_symbol
_atom_type_description
_atom_site_fract_x
_atom_site_fract_y
_atom_site_fract_z
_atom_type_partial_charge
O1    O     O_R   0.505830 0.583360 0.413880 -0.540557
O2    O     O_R   0.175830 0.595460 0.585520 -0.545151
O3    O     O_R   0.005520 0.416640 0.586120 -0.539663
C1    C     C_R   0.344225 0.617078 0.614627 0.736000
O4    O     O_R   0.176120 0.594390 0.414490 -0.544138
O5    O     O_R   0.005810 0.415570 0.413870 -0.543391
C2    C     C_R   0.344977 0.616351 0.385971 0.693991
O6    O     O_R   0.505540 0.584430 0.586130 -0.538457
O7    O     O_3   0.339200 0.441330 0.500000 -0.366579
V1    V     V_3+5 0.064350 0.510880 0.500000 1.421463
O8    O     O_R   0.676100 0.404540 0.414480 -0.537367
C3    C     C_R   0.845246 0.382190 0.386015 0.700465
O9    O     O_R   0.675810 0.405610 0.585510 -0.528281
C4    C     C_R   0.844312 0.381932 0.612501 0.777412
V2    V     V_3+5 0.564340 0.489120 0.500000 1.456574
O10   O     O_3   0.839360 0.558670 0.500000 -0.378284
C5    C     C_2   0.725863 0.187233 0.769435 0.365268
C6    C     C_2   0.877812 0.180938 0.821926 -0.381891
H1    H     H_    0.994558 0.230241 0.818786 0.140782
C7    C     C_2   0.703172 0.263689 0.708980 -0.039925
C8    C     C_2   0.856462 0.308098 0.675308 -0.426760
H2    H     H_    0.000790 0.287632 0.692605 0.171072
C9    C     C_R   0.726695 0.246162 0.191126 0.117247
C10   C     C_R   0.882431 0.185517 0.183497 -0.099186
C11   C     C_R   0.034443 0.195859 0.240256 -0.173562
H3    H     H_    0.157162 0.150391 0.236968 0.127764
C12   C     C_R   0.022825 0.260248 0.305623 -0.166387
H4    H     H_    0.137924 0.263270 0.350407 0.135480
C13   C     C_R   0.858260 0.315686 0.316428 -0.105310
C14   C     C_R   0.714826 0.309605 0.255996 0.102906
C15   C     C_3   0.504211 0.294259 0.266106 -0.411435
C16   C     C_3   0.517060 0.225486 0.195167 -0.400116
H5    H     H_    0.418666 0.356431 0.250979 0.178383
H6    H     H_    0.469514 0.262024 0.326289 0.180075
H7    H     H_    0.439541 0.248028 0.138867 0.181935
H8    H     H_    0.489059 0.153430 0.214027 0.162670
C17   C     C_R   0.492647 0.753715 0.686361 0.104377
C18   C     C_R   0.350850 0.685685 0.682791 -0.157137
C19   C     C_R   0.213313 0.684702 0.746794 -0.211366
H9    H     H_    0.101241 0.632944 0.746315 0.157492
C20   C     C_R   0.229246 0.744508 0.815714 0.386908
C21   C     C_R   0.378304 0.811147 0.819900 -0.177783
C22   C     C_R   0.503639 0.816732 0.751823 0.056721
C23   C     C_3   0.719358 0.813820 0.749447 -0.215108
C24   C     C_3   0.705445 0.744667 0.678532 -0.440617
H10   H     H_    0.780343 0.784377 0.806526 0.195527
H11   H     H_    0.757465 0.675069 0.695460 0.179839
H12   H     H_    0.758594 0.769614 0.617900 0.185142
C25   C     C_R   0.499199 0.677517 0.256627 0.075277
C26   C     C_R   0.352621 0.681661 0.316071 -0.094573
C27   C     C_R   0.205656 0.747001 0.303627 -0.140742
H13   H     H_    0.086250 0.751723 0.346425 0.119624
C28   C     C_R   0.217697 0.811076 0.238781 -0.127586
H14   H     H_    0.106975 0.863041 0.233755 0.106584
C29   C     C_R   0.376114 0.811252 0.183946 -0.098306
C30   C     C_R   0.510346 0.740013 0.192203 0.119448
C31   C     C_3   0.725651 0.741428 0.194929 -0.221886
C32   C     C_3   0.712413 0.672907 0.265787 -0.450887
H15   H     H_    0.784614 0.809337 0.213895 0.098965
H16   H     H_    0.760918 0.701859 0.325965 0.172566
H17   H     H_    0.768821 0.603034 0.251241 0.178394
O11   O     O_R   0.229930 0.912420 0.917160 -0.496714
O12   O     O_R   0.559420 0.902500 0.088780 -0.547574
O13   O     O_R   0.729660 0.081330 0.089380 -0.551853
C33   C     C_R   0.390270 0.880659 0.117452 0.691178
O14   O     O_R   0.559650 0.901420 0.917750 -0.531582
O15   O     O_R   0.729880 0.080250 0.917130 -0.508124
C34   C     C_R   0.390771 0.878532 0.889438 0.839812
O16   O     O_R   0.229700 0.913500 0.089410 -0.540911
O17   O     O_3   0.396250 0.055540 0.003280 -0.376155
V3    V     V_3+5 0.671130 0.986010 0.003260 1.553832
O18   O     O_R   0.059600 0.091310 0.917720 -0.532865
C35   C     C_R   0.890311 0.111736 0.888335 0.827638
O19   O     O_R   0.059370 0.092380 0.088750 -0.555898
C36   C     C_R   0.890521 0.114585 0.117365 0.650389
V4    V     V_3+5 0.171120 0.007820 0.003230 1.538569
O20   O     O_3   0.896130 0.938240 0.003240 -0.347991
Cl1   Cl    Cl    0.538981 0.103593 0.769326 -0.617725
Cl2   Cl    Cl    0.076634 0.724669 0.900652 -0.652935
C37   C     C_2   0.810830 0.903392 0.724927 0.865229
O21   O     O_2   0.751677 0.945675 0.665098 -0.523217
O22   O     O_R   0.967247 0.936764 0.770118 -0.656448
H18   H     H_    0.021080 0.995821 0.746679 0.302349
C38   C     C_2   0.819609 0.701521 0.118651 0.864020
O23   O     O_2   0.732576 0.698197 0.053062 -0.523519
O24   O     O_R   0.008469 0.668986 0.123426 -0.657426
H19   H     H_    0.056748 0.642867 0.068998 0.335373
C39   C     C_2   0.502901 0.284901 0.684181 0.887352
O25   O     O_2   0.394388 0.322906 0.733208 -0.569513
O26   O     O_R   0.437062 0.257764 0.606145 -0.639038
H20   H     H_    0.297186 0.274469 0.596860 0.289829

loop_
_geom_bond_atom_site_label_1
_geom_bond_atom_site_label_2
_ccdc_geom_bond_type
O14   C34   A    
C29   C30   A    
O12   C33   A    
C3    C13   S    
C12   C13   A    
C20   C21   A    
C1    O6    A    
C31   C32   S    
C19   C20   A    
C28   H14   S    
C17   C18   A    
O19   V4    S    
C16   H8    S    
C4    C8    S    
C38   O24   S    
O5    C3    A    
C14   C15   S    
C31   H15   S    
C32   H16   S    
V2    O10   S    
C5    C7    S    
C30   C31   S    
O16   V4    S    
C6    H1    S    
O13   V3    S    
O8    V2    S    
O14   V3    S    
C9    C10   A    
C15   H5    S    
O17   V3    S    
O15   C35   A    
O7    V1    S    
O18   V4    S    
C39   O25   D    
C32   H17   S    
C24   H11   S    
O9    C4    A    
C21   C34   S    
O11   V4    S    
C29   C33   S    
C23   H10   S    
C5    C6    D    
V4    O20   S    
C28   C29   A    
C15   H6    S    
O19   C36   A    
C27   H13   S    
C16   H7    S    
C23   C37   S    
C10   C11   A    
C37   O22   S    
C19   H9    S    
O4    C2    A    
O24   H19   S    
O18   C35   A    
C11   H3    S    
C25   C32   S    
C27   C28   A    
C17   C22   A    
O2    C1    A    
C22   C23   S    
C9    C14   A    
O5    V1    S    
C13   C14   A    
C15   C16   S    
C26   C27   A    
C31   C38   S    
C38   O23   D    
O3    C4    A    
O1    V2    S    
C39   O26   S    
O22   H18   S    
C6    C35   S    
O9    V2    S    
O17   V4    S    
C11   C12   A    
C21   C22   A    
C17   C24   S    
O2    V1    S    
V3    O20   S    
C23   C24   S    
C24   H12   S    
O1    C2    A    
C2    C26   S    
O12   V3    S    
C37   O21   D    
C20   Cl2   S    
O8    C3    A    
C10   C36   S    
O6    V2    S    
C25   C30   A    
O11   C34   A    
C9    C16   S    
O7    V2    S    
O4    V1    S    
O3    V1    S    
V1    O10   S    
O26   H20   S    
C18   C19   A    
C33   O16   A    
C7    C39   S    
C5    Cl1   S    
O13   C36   A    
O15   V3    S    
C7    C8    D    
C25   C26   A    
C12   H4    S    
C1    C18   S    
C8    H2    S    
