data_mof_unit_68238.cif
_audit_creation_date              2012-12-11T17:19:19-0500
_audit_creation_method            fapswitch 2.2
_symmetry_space_group_name_H-M    P1
_symmetry_Int_Tables_number       1
_space_group_crystal_system       triclinic
_cell_length_a                    14.692266
_cell_length_b                    7.257827
_cell_length_c                    13.705463
_cell_angle_alpha                 89.91249
_cell_angle_beta                  100.255118
_cell_angle_gamma                 90.041067
_cell_volume                      1438.11825302

loop_
_atom_site_label
_atom_site_type_symbol
_atom_type_description
_atom_site_fract_x
_atom_site_fract_y
_atom_site_fract_z
_atom_type_partial_charge
O1    O     O_R   0.648180 0.355050 0.151550 -0.543016
O2    O     O_R   0.351820 0.644950 0.848450 -0.544110
O3    O     O_R   0.851820 0.855050 0.348450 -0.541510
O4    O     O_R   0.148180 0.144950 0.651550 -0.548229
O5    O     O_R   0.835240 0.681980 0.154280 -0.558789
O6    O     O_R   0.164760 0.318020 0.845720 -0.555373
O7    O     O_R   0.664760 0.181980 0.345720 -0.557666
O8    O     O_R   0.335240 0.818020 0.654280 -0.553347
C1    C     C_R   0.862061 0.517443 0.130977 0.740629
C2    C     C_R   0.135825 0.483274 0.866732 0.757238
C3    C     C_R   0.637377 0.017101 0.368323 0.744389
C4    C     C_R   0.363637 0.983495 0.632664 0.760803
O9    O     O_R   0.647870 0.684600 0.139630 -0.519375
O10   O     O_R   0.352130 0.315400 0.860370 -0.520284
O11   O     O_R   0.852130 0.184600 0.360370 -0.520854
O12   O     O_R   0.147870 0.815400 0.639630 -0.520389
O13   O     O_R   0.663110 0.857440 0.333700 -0.510983
O14   O     O_R   0.336890 0.142560 0.666300 -0.513686
O15   O     O_R   0.836890 0.357440 0.166300 -0.512948
O16   O     O_R   0.163110 0.642560 0.833700 -0.509594
C5    C     C_R   0.615008 0.515845 0.113120 0.716997
C6    C     C_R   0.384570 0.484056 0.887389 0.717798
C7    C     C_R   0.884638 0.015702 0.387297 0.708815
C8    C     C_R   0.114785 0.983980 0.613395 0.738235
O17   O     O_3   0.755220 0.522230 0.313690 -0.379002
O18   O     O_3   0.244780 0.477770 0.686310 -0.382133
O19   O     O_3   0.744780 0.022230 0.186310 -0.381396
O20   O     O_3   0.255220 0.977770 0.813690 -0.378682
V1    V     V_3+5 0.749030 0.796100 0.238190 1.444980
V2    V     V_3+5 0.250970 0.203900 0.761810 1.442368
V3    V     V_3+5 0.750970 0.296100 0.261810 1.444260
V4    V     V_3+5 0.249030 0.703900 0.738190 1.447748
C9    C     C_1   0.965262 0.004426 0.467755 -0.192271
C10   C     C_1   0.033245 0.994157 0.534006 -0.153649
C11   C     C_1   0.533666 0.504822 0.033555 -0.194800
C12   C     C_1   0.465434 0.494429 0.967632 -0.204434
H1    H     H_    0.272774 0.574852 0.346130 0.138064
H2    H     H_    0.713672 0.467728 0.638288 0.131225
H3    H     H_    0.223016 0.069002 0.152881 0.135468
H4    H     H_    0.789971 0.978195 0.863159 0.130152
C13   C     C_R   0.538213 0.194860 0.684350 0.351428
C14   C     C_R   0.458786 0.825571 0.311082 0.339882
C15   C     C_R   0.961214 0.698376 0.814398 0.399900
C16   C     C_R   0.040314 0.328745 0.188335 0.341177
C17   C     C_R   0.605439 0.335727 0.698561 0.256986
C18   C     C_R   0.386394 0.696990 0.291818 0.276130
C19   C     C_R   0.894437 0.839133 0.800832 0.248615
C20   C     C_R   0.111361 0.197552 0.207811 0.279450
C21   C     C_R   0.660342 0.363605 0.627630 -0.196872
C22   C     C_R   0.329833 0.670074 0.361278 -0.197087
C23   C     C_R   0.841752 0.871124 0.873218 -0.242908
C24   C     C_R   0.166906 0.166528 0.137759 -0.196889
C25   C     C_R   0.651286 0.250984 0.545247 -0.250073
C26   C     C_R   0.343161 0.770935 0.448364 -0.235110
C27   C     C_R   0.850617 0.758433 0.955655 -0.227787
C28   C     C_R   0.154351 0.267412 0.050459 -0.235241
C29   C     C_R   0.577245 0.123427 0.522057 0.012278
C30   C     C_R   0.420775 0.888519 0.475241 0.009710
C31   C     C_R   0.922733 0.626384 0.977283 0.011919
C32   C     C_R   0.077655 0.387411 0.023435 0.011978
C33   C     C_R   0.515035 0.104117 0.590560 -0.034910
C34   C     C_R   0.483382 0.907837 0.407123 -0.062464
C35   C     C_R   0.984366 0.605688 0.908131 -0.063968
C36   C     C_R   0.015482 0.408584 0.091696 -0.063872
C37   C     C_R   0.565322 0.015137 0.433628 -0.137629
C38   C     C_R   0.434852 0.989891 0.566141 -0.129002
C39   C     C_R   0.934010 0.516602 0.065375 -0.140879
C40   C     C_R   0.064098 0.489618 0.932556 -0.134545
H5    H     H_    0.705023 0.268607 0.502330 0.161130
H6    H     H_    0.289843 0.754293 0.492106 0.152585
H7    H     H_    0.798268 0.780069 0.999818 0.161934
H8    H     H_    0.207511 0.248439 0.006827 0.155466
N1    N     N_2   0.618691 0.446400 0.785625 -0.523480
H9    H     H_    0.565404 0.441330 0.825032 0.270931
C41   C     C_3   0.709136 0.435903 0.847640 -0.559927
H10   H     H_    0.708195 0.512206 0.917481 0.183820
H11   H     H_    0.762067 0.498253 0.809405 0.210963
H12   H     H_    0.728196 0.290887 0.866944 0.173022
N2    N     N_2   0.369792 0.595765 0.201489 -0.523239
H13   H     H_    0.426546 0.583628 0.167552 0.277952
C42   C     C_3   0.286753 0.645554 0.133065 -0.524632
H14   H     H_    0.281123 0.560117 0.065234 0.177551
H15   H     H_    0.289497 0.792050 0.110976 0.187381
H16   H     H_    0.224528 0.621637 0.166788 0.199783
N3    N     N_2   0.880800 0.948203 0.713303 -0.510749
H17   H     H_    0.893787 0.085533 0.728770 0.251655
C43   C     C_3   0.792189 0.923467 0.649119 -0.555849
H18   H     H_    0.794188 0.989353 0.576490 0.187097
H19   H     H_    0.736489 0.987227 0.682585 0.197909
H20   H     H_    0.775930 0.775548 0.636022 0.184684
N4    N     N_2   0.128249 0.099486 0.299294 -0.525679
H21   H     H_    0.072711 0.095030 0.335534 0.276630
C44   C     C_3   0.213906 0.144363 0.364592 -0.525461
H22   H     H_    0.219029 0.063807 0.434175 0.173581
H23   H     H_    0.215574 0.292448 0.384062 0.188796
H24   H     H_    0.274175 0.110600 0.329298 0.202263
O21   O     O_3   0.502086 0.133808 0.765259 -0.553719
C45   C     C_3   0.571600 0.042359 0.833012 0.046961
H25   H     H_    0.590254 0.127992 0.900730 0.145142
H26   H     H_    0.635758 0.011354 0.803374 0.103967
C46   C     C_3   0.534496 0.860632 0.862174 -0.654474
H27   H     H_    0.514753 0.772880 0.795490 0.227835
H28   H     H_    0.588509 0.789742 0.916094 0.178268
H29   H     H_    0.473099 0.886100 0.896590 0.233336
O22   O     O_3   0.497798 0.882681 0.231475 -0.553481
C47   C     C_3   0.453509 0.046329 0.191716 0.089488
H30   H     H_    0.492323 0.168311 0.225858 0.137460
H31   H     H_    0.380668 0.058855 0.203502 0.091029
C48   C     C_3   0.451890 0.050175 0.080812 -0.667114
H32   H     H_    0.418620 0.922977 0.046556 0.212134
H33   H     H_    0.411229 0.170483 0.047787 0.182005
H34   H     H_    0.523483 0.059499 0.065554 0.224783
O23   O     O_3   0.001640 0.648593 0.734681 -0.540781
C49   C     C_3   0.936472 0.558238 0.662082 0.074224
H35   H     H_    0.916239 0.651989 0.597792 0.167652
H36   H     H_    0.873086 0.510413 0.688942 0.079558
C50   C     C_3   0.981104 0.390338 0.626614 -0.690851
H37   H     H_    0.932106 0.324516 0.565707 0.182608
H38   H     H_    0.045034 0.430973 0.599864 0.242571
H39   H     H_    0.999241 0.292136 0.688994 0.214144
O24   O     O_3   0.004634 0.394183 0.268507 -0.554822
C51   C     C_3   0.048720 0.562783 0.300425 0.096498
H40   H     H_    0.006039 0.680293 0.266527 0.140813
H41   H     H_    0.118897 0.577911 0.281294 0.092110
C52   C     C_3   0.059321 0.576206 0.412166 -0.681379
H42   H     H_    0.096492 0.453360 0.447217 0.210926
H43   H     H_    0.100167 0.700716 0.438346 0.177707
H44   H     H_    0.990173 0.584639 0.433871 0.226412

loop_
_geom_bond_atom_site_label_1
_geom_bond_atom_site_label_2
_ccdc_geom_bond_type
O17   V3    S    
C16   C20   A    
C43   H18   S    
C30   C34   A    
C46   H27   S    
C27   C31   A    
O19   V1    S    
O13   V1    S    
N1    H9    S    
O1    C5    A    
O3    C7    A    
C11   C12   T    
C13   C33   A    
C25   H5    S    
C42   H14   S    
C15   C35   A    
H2    C21   S    
N3    H17   S    
C16   C36   A    
O7    C3    A    
C44   H22   S    
C19   N3    S    
C17   N1    S    
C48   H33   S    
O16   V4    S    
C18   N2    S    
O4    C8    A    
C47   H30   S    
C16   O24   S    
O1    V3    S    
O2    V4    S    
C14   O22   S    
C14   C18   A    
O3    V1    S    
C31   C39   A    
C33   C38   A    
C30   C38   A    
C2    O16   A    
C7    C9    S    
C20   N4    S    
O2    C6    A    
C52   H44   S    
O14   V2    S    
C14   C34   A    
O11   C7    A    
H3    C24   S    
O15   V3    S    
C46   H28   S    
N1    C41   S    
O10   V2    S    
C42   H15   S    
C1    O15   A    
O21   C45   S    
O5    V1    S    
N3    C43   S    
O7    V3    S    
O8    V4    S    
C36   C39   A    
C48   H34   S    
N4    H21   S    
N2    C42   S    
C25   C29   A    
O18   V4    S    
C19   C23   A    
C28   H8    S    
C4    C38   S    
C8    C10   S    
C28   C32   A    
C41   H10   S    
C1    C39   S    
O5    C1    A    
N4    C44   S    
C26   H6    S    
C17   C21   A    
O8    C4    A    
C9    C10   T    
O9    C5    A    
C22   C26   A    
O11   V3    S    
C41   H11   S    
O24   C51   S    
O6    V2    S    
C44   H24   S    
C45   H26   S    
C43   H19   S    
C52   H42   S    
C13   O21   S    
C50   H39   S    
C51   H41   S    
H4    C23   S    
C42   H16   S    
O23   C49   S    
C26   C30   A    
O9    V1    S    
C35   C40   A    
C3    O13   A    
C34   C37   A    
C29   C37   A    
O6    C2    A    
C49   H36   S    
C29   C33   A    
C5    C11   S    
C2    C40   S    
O12   V4    S    
C45   C46   S    
C6    C12   S    
O22   C47   S    
C18   C22   A    
C31   C35   A    
C32   C36   A    
O10   C6    A    
C51   C52   S    
C50   H38   S    
C48   H32   S    
C15   O23   S    
H1    C22   S    
C44   H23   S    
C47   H31   S    
C21   C25   A    
O20   V2    S    
C23   C27   A    
C49   H35   S    
C41   H12   S    
O4    V2    S    
C49   C50   S    
N2    H13   S    
C24   C28   A    
C20   C24   A    
C32   C40   A    
O12   C8    A    
C45   H25   S    
C43   H20   S    
C4    O14   A    
C52   H43   S    
C13   C17   A    
C46   H29   S    
C51   H40   S    
C50   H37   S    
C15   C19   A    
C27   H7    S    
C3    C37   S    
C47   C48   S    
