data_mof_unit_37027.cif
_audit_creation_date              2012-12-10T20:45:31-0500
_audit_creation_method            fapswitch 2.2
_symmetry_space_group_name_H-M    P1
_symmetry_Int_Tables_number       1
_space_group_crystal_system       triclinic
_cell_length_a                    10.69309
_cell_length_b                    10.672429
_cell_length_c                    9.891488
_cell_angle_alpha                 88.848337
_cell_angle_beta                  89.754367
_cell_angle_gamma                 90.919876
_cell_volume                      1128.44343727

loop_
_atom_site_label
_atom_site_type_symbol
_atom_type_description
_atom_site_fract_x
_atom_site_fract_y
_atom_site_fract_z
_atom_type_partial_charge
C1    C     C_R   0.503180 0.260210 0.501053 0.877312
C2    C     C_R   0.228549 0.817882 0.093322 -0.120195
C3    C     C_R   0.933706 0.563187 0.398497 -0.256025
C4    C     C_R   0.872302 0.495692 0.501716 -0.071253
C5    C     C_R   0.938045 0.437875 0.608545 -0.005439
C6    C     C_R   0.066364 0.444991 0.605577 -0.262810
C7    C     C_R   0.127970 0.510421 0.500749 -0.082972
C8    C     C_R   0.062205 0.573910 0.397483 0.003985
C9    C     C_R   0.888343 0.419518 0.855373 -0.153756
C10   C     C_R   0.830944 0.357604 0.965625 -0.145748
C11   C     C_R   0.763365 0.246265 0.946599 -0.119076
C12   C     C_R   0.260454 0.505154 0.499962 0.869568
C13   C     C_R   0.753534 0.196443 0.817399 -0.124372
C14   C     C_R   0.809649 0.258714 0.706429 -0.116235
C15   C     C_R   0.877298 0.370921 0.724814 0.144482
C16   C     C_R   0.510761 0.061620 0.624225 0.118770
C17   C     C_R   0.521192 0.129140 0.503044 -0.099997
C18   C     C_R   0.552497 0.068218 0.383478 -0.236722
C19   C     C_R   0.550690 0.938894 0.382752 -0.268761
C20   C     C_R   0.518956 0.872017 0.501003 -0.096391
C21   C     C_R   0.510252 0.933931 0.623361 0.144243
C22   C     C_3   0.412905 0.923282 0.732229 -0.490845
C23   C     C_R   0.502594 0.740021 0.499406 0.861447
C24   C     C_3   0.413458 0.065423 0.732915 -0.500114
C25   C     C_R   0.434526 0.410135 0.073449 0.170423
C26   C     C_R   0.580076 0.577185 0.066951 0.188257
C27   C     C_R   0.580247 0.573957 0.923333 -0.109252
C28   C     C_R   0.433100 0.411511 0.931454 0.212769
C29   C     C_3   0.295626 0.386974 0.927922 -0.516774
C30   C     C_3   0.297878 0.382293 0.081672 -0.485084
C31   C     C_R   0.739677 0.496444 0.500369 0.861351
C32   C     C_R   0.257632 0.834031 0.229466 -0.122954
C33   C     C_R   0.204882 0.754047 0.328723 -0.087317
C34   C     C_R   0.122094 0.656910 0.292251 0.130228
C35   C     C_R   0.090253 0.644130 0.155173 -0.194372
C36   C     C_R   0.144642 0.723168 0.056212 -0.132972
H1    H     H_    0.270001 0.879620 0.016788 0.127286
H2    H     H_    0.719167 0.198232 0.032053 0.120600
H3    H     H_    0.702962 0.109154 0.803654 0.130998
H4    H     H_    0.800945 0.219498 0.606690 0.106308
H5    H     H_    0.569558 0.119316 0.289249 0.169366
H6    H     H_    0.564584 0.892179 0.288795 0.187325
H7    H     H_    0.323315 0.881531 0.696393 0.198252
H8    H     H_    0.450217 0.880499 0.826893 0.204415
H9    H     H_    0.324300 0.106617 0.697180 0.200861
H10   H     H_    0.450871 0.104786 0.828078 0.201855
H11   H     H_    0.320196 0.909360 0.258067 0.136930
H12   H     H_    0.643856 0.632252 0.863593 0.163827
H13   H     H_    0.243099 0.467984 0.886199 0.215095
H14   H     H_    0.272047 0.295052 0.882876 0.195812
H15   H     H_    0.245420 0.458403 0.128915 0.235611
H16   H     H_    0.277884 0.287170 0.125105 0.197847
H17   H     H_    0.227354 0.768767 0.433933 0.089682
H18   H     H_    0.025330 0.571179 0.124616 0.121188
H19   H     H_    0.121390 0.711166 0.950804 0.127943
H20   H     H_    0.880867 0.613303 0.322167 0.147357
H21   H     H_    0.118413 0.396506 0.684071 0.157559
H22   H     H_    0.940373 0.505859 0.871373 0.117772
H23   H     H_    0.838928 0.395844 0.065814 0.128707
N1    N     N_R   0.499160 0.499140 0.142800 -0.130761
N2    N     N_R   0.499160 0.499180 0.857150 -0.124841
O1    O     O_R   0.500020 0.316790 0.614690 -0.608161
O2    O     O_R   0.500000 0.316760 0.385350 -0.623724
O3    O     O_R   0.316770 0.500030 0.614670 -0.625437
O4    O     O_R   0.316750 0.499990 0.385330 -0.607952
O5    O     O_R   0.500000 0.683240 0.614650 -0.618807
O6    O     O_R   0.499980 0.683210 0.385310 -0.629622
O7    O     O_R   0.683250 0.500010 0.614670 -0.610525
O8    O     O_R   0.683230 0.499970 0.385330 -0.653115
Zn1   Zn    Zn3+2 0.500010 0.500020 0.653130 0.945456
Zn2   Zn    Zn3+2 0.499990 0.499980 0.346870 0.934435
C37   C     C_3   0.676151 0.663936 0.129144 -0.367939
C38   C     C_3   0.672859 0.797740 0.069783 -0.965144
H24   H     H_    0.575201 0.831440 0.064373 0.261998
H25   H     H_    0.729179 0.861350 0.133911 0.257383
H26   H     H_    0.715032 0.802858 0.967132 0.256640
H27   H     H_    0.664839 0.670327 0.238317 0.266741
H28   H     H_    0.770532 0.625792 0.110289 0.177378

loop_
_geom_bond_atom_site_label_1
_geom_bond_atom_site_label_2
_ccdc_geom_bond_type
N2    Zn1   S    
C27   H12   S    
C30   H15   S    
C16   C21   A    
C26   C37   S    
C38   H24   S    
C35   C36   A    
C1    O1    A    
C7    C8    A    
C29   H13   S    
C25   C28   A    
C26   C27   A    
C29   C30   S    
C24   H9    S    
C23   O5    A    
C28   C29   S    
C34   C35   A    
C5    C6    A    
C12   O3    A    
C18   C19   A    
O1    Zn1   S    
C2    C32   A    
C9    H22   S    
C23   O6    A    
O8    Zn2   S    
C37   H28   S    
C27   N2    A    
C22   H8    S    
C19   C20   A    
C16   C17   A    
C25   N1    A    
O3    Zn1   S    
C9    C10   A    
C19   H6    S    
C28   N2    A    
C16   C24   S    
C21   C22   S    
C35   H18   S    
C38   H25   S    
C6    H21   S    
C31   O7    A    
C1    O2    A    
C17   C18   A    
C29   H14   S    
C33   H17   S    
C7    C12   S    
C13   H3    S    
C3    C8    A    
C18   H5    S    
C4    C5    A    
N1    Zn2   S    
O4    Zn2   S    
C11   H2    S    
C37   H27   S    
C3    H20   S    
C22   H7    S    
C20   C23   S    
C33   C34   A    
C8    C34   S    
O2    Zn2   S    
C38   H26   S    
C22   C24   S    
C3    C4    A    
C2    C36   A    
C25   C30   S    
C30   H16   S    
C37   C38   S    
C6    C7    A    
C12   O4    A    
C1    C17   S    
C24   H10   S    
C32   C33   A    
C10   H23   S    
C9    C15   A    
C36   H19   S    
C11   C13   A    
C2    H1    S    
O5    Zn1   S    
C32   H11   S    
O6    Zn2   S    
C5    C15   S    
C4    C31   S    
C10   C11   A    
C14   H4    S    
C31   O8    A    
C20   C21   A    
O7    Zn1   S    
C14   C15   A    
C13   C14   A    
C26   N1    A    
