data_mof_unit_12291.cif
_audit_creation_date              2013-03-05T16:14:40-0500
_audit_creation_method            fapswitch 2.2
_symmetry_space_group_name_H-M    P1
_symmetry_Int_Tables_number       1
_space_group_crystal_system       triclinic
_cell_length_a                    15.886816
_cell_length_b                    10.625286
_cell_length_c                    9.417908
_cell_angle_alpha                 89.627012
_cell_angle_beta                  90.122092
_cell_angle_gamma                 89.995849
_cell_volume                      1589.72406282

loop_
_atom_site_label
_atom_site_type_symbol
_atom_site_description
_atom_site_fract_x
_atom_site_fract_y
_atom_site_fract_z
_atom_type_partial_charge
O1    O     O_R   0.500040 0.316850 0.620870 -0.586982
O2    O     O_R   0.499960 0.683150 0.379130 -0.586982
O3    O     O_R   0.500000 0.316860 0.379090 -0.584535
O4    O     O_R   0.500000 0.683140 0.620910 -0.584534
C1    C     C_R   0.500024 0.259377 0.500447 0.785956
C2    C     C_R   0.499976 0.740623 0.499553 0.785956
O5    O     O_R   0.379090 0.499980 0.620870 -0.562208
O6    O     O_R   0.620910 0.500020 0.379130 -0.562208
O7    O     O_R   0.379060 0.499990 0.379090 -0.577736
O8    O     O_R   0.620940 0.500010 0.620910 -0.577736
C3    C     C_R   0.340024 0.500078 0.499877 0.811753
C4    C     C_R   0.659976 0.499922 0.500123 0.811754
Cu1   Cu    Cu3+1 0.500020 0.499990 0.643150 0.958124
Cu2   Cu    Cu3+1 0.499980 0.500010 0.356850 0.958124
C5    C     C_3   0.971499 0.381863 0.528205 -0.335218
C6    C     C_3   0.028501 0.618136 0.471795 -0.335218
C7    C     C_3   0.028400 0.420602 0.400904 0.238805
C8    C     C_3   0.971599 0.579397 0.599096 0.238805
H1    H     H_    0.948366 0.285572 0.552677 0.209345
H2    H     H_    0.051634 0.714428 0.447323 0.209345
C9    C     C_1   0.250515 0.500332 0.499767 -0.126188
C10   C     C_1   0.749485 0.499669 0.500233 -0.126188
C11   C     C_3   0.027110 0.463315 0.625794 0.313713
C12   C     C_3   0.972890 0.536685 0.374206 0.313713
C13   C     C_3   0.083584 0.500369 0.500623 -0.080958
C14   C     C_3   0.916416 0.499631 0.499377 -0.080958
C15   C     C_1   0.175110 0.500469 0.500110 0.127468
C16   C     C_1   0.824890 0.499531 0.499890 0.127468
C17   C     C_3   0.500266 0.039522 0.635273 -0.134517
C18   C     C_3   0.499733 0.960478 0.364727 -0.134517
C19   C     C_3   0.569279 0.957405 0.566777 -0.155848
C20   C     C_3   0.430721 0.042595 0.433223 -0.155848
H3    H     H_    0.625953 0.919373 0.621269 0.150957
H4    H     H_    0.374047 0.080626 0.378731 0.150957
H5    H     H_    0.500491 0.074421 0.746139 0.138416
H6    H     H_    0.499509 0.925579 0.253861 0.138416
C21   C     C_3   0.499982 0.877609 0.498667 0.010363
C22   C     C_3   0.500018 0.122391 0.501333 0.010363
C23   C     C_3   0.430970 0.957456 0.567043 -0.160885
C24   C     C_3   0.569030 0.042543 0.432957 -0.160885
H7    H     H_    0.374506 0.919464 0.621773 0.145413
H8    H     H_    0.625494 0.080536 0.378227 0.145413
C25   C     C_3   0.517158 0.610762 0.049688 -0.044851
C26   C     C_3   0.482842 0.389238 0.950312 -0.044851
C27   C     C_3   0.444468 0.577621 0.948539 -0.026138
C28   C     C_3   0.555532 0.422379 0.051461 -0.026138
H9    H     H_    0.397802 0.642972 0.900286 0.134329
H10   H     H_    0.602198 0.357027 0.099713 0.134330
H11   H     H_    0.531803 0.704128 0.095793 0.126043
H12   H     H_    0.468196 0.295872 0.904207 0.126043
N1    N     N_3   0.500060 0.499970 0.858290 -0.166516
N2    N     N_3   0.499940 0.500030 0.141710 -0.166516
C29   C     C_3   0.572759 0.533106 0.949634 -0.015231
C30   C     C_3   0.427241 0.466894 0.050366 -0.015231
H13   H     H_    0.634045 0.561345 0.902873 0.152451
H14   H     H_    0.365955 0.438655 0.097127 0.152451
Br1   Br    Br    0.069099 0.307310 0.256032 -0.347825
Br2   Br    Br    0.930901 0.692690 0.743968 -0.347825
N3    N     N_R   0.944594 0.576963 0.233751 0.173799
O9    O     O_R   0.999613 0.607581 0.137519 -0.245036
O10   O     O_R   0.864769 0.582867 0.203674 -0.326263
N4    N     N_R   0.055406 0.423037 0.766249 0.173799
O11   O     O_R   0.000387 0.392419 0.862480 -0.245036
O12   O     O_R   0.135230 0.417133 0.796326 -0.326263

loop_
_geom_bond_atom_site_label_1
_geom_bond_atom_site_label_2
_geom_bond_distance
_ccdc_geom_bond_type
C17   C22   1.533636 S    
O5    Cu1   1.932171 S    
C18   C20   1.545862 S    
O7    Cu2   1.932861 S    
C19   H3    1.110234 S    
C30   H14   1.109999 S    
N4    O11   1.300305 A    
C4    C10   1.422007 S    
C13   C15   1.454080 S    
C25   C27   1.537788 S    
C17   H5    1.110287 S    
C14   C16   1.454080 S    
C8    C14   1.541383 S    
C6    H2    1.110098 S    
O6    C4    1.296391 A    
C7    C13   1.541383 S    
C17   C23   1.545848 S    
C17   C19   1.545862 S    
C5    C11   1.543128 S    
N4    O12   1.300244 A    
C9    C15   1.197965 T    
C2    C21   1.455477 S    
C18   C24   1.545848 S    
N3    O9    1.300305 A    
C6    C12   1.543128 S    
C10   C16   1.197965 T    
Cu1   Cu2   2.696344 S    
C28   N2    1.481684 S    
C5    H1    1.110098 S    
O7    C3    1.296786 A    
C12   C14   1.532372 S    
C7    Br1   1.937450 S    
O2    C2    1.291581 A    
O3    Cu2   1.955904 S    
O8    C4    1.296787 A    
C12   N3    1.457762 S    
O1    C1    1.291582 A    
Cu1   N1    2.026165 S    
C28   C29   1.537926 S    
C24   H8    1.110228 S    
C22   C24   1.531842 S    
C26   C28   1.537788 S    
C27   C30   1.537926 S    
O5    C3    1.296392 A    
C20   C22   1.531837 S    
C29   H13   1.109999 S    
C20   C23   1.546561 S    
O2    Cu2   1.958554 S    
C28   H10   1.110265 S    
C25   N2    1.482565 S    
N3    O10   1.300244 A    
C7    C12   1.535286 S    
O1    Cu1   1.958553 S    
C27   N1    1.481685 S    
C8    C11   1.535286 S    
C26   C30   1.537058 S    
C21   C23   1.531842 S    
C11   C13   1.532372 S    
C19   C24   1.546561 S    
C23   H7    1.110228 S    
C18   C21   1.533636 S    
C6    C8    1.556353 S    
O4    C2    1.292383 A    
C26   N1    1.482565 S    
C27   H9    1.110265 S    
C26   H12   1.109972 S    
C6    C13   1.549089 S    
C5    C7    1.556353 S    
C25   H11   1.109972 S    
C5    C14   1.549089 S    
O6    Cu2   1.932173 S    
O3    C1    1.292382 A    
C20   H4    1.110234 S    
C1    C22   1.455477 S    
C25   C29   1.537058 S    
C3    C9    1.422007 S    
C11   N4    1.457762 S    
Cu2   N2    2.026167 S    
C19   C21   1.531837 S    
O4    Cu1   1.955904 S    
N2    C30   1.482466 S    
C8    Br2   1.937450 S    
N1    C29   1.482467 S    
O8    Cu1   1.932862 S    
C18   H6    1.110287 S    
