data_mof_unit_36200.cif
_audit_creation_date              2012-12-10T20:27:14-0500
_audit_creation_method            fapswitch 2.2
_symmetry_space_group_name_H-M    P1
_symmetry_Int_Tables_number       1
_space_group_crystal_system       triclinic
_cell_length_a                    10.563594
_cell_length_b                    10.657572
_cell_length_c                    9.889274
_cell_angle_alpha                 89.677847
_cell_angle_beta                  102.43546
_cell_angle_gamma                 90.353975
_cell_volume                      1087.20535105

loop_
_atom_site_label
_atom_site_type_symbol
_atom_type_description
_atom_site_fract_x
_atom_site_fract_y
_atom_site_fract_z
_atom_type_partial_charge
C1    C     C_R   0.496021 0.260100 0.499515 0.944273
C2    C     C_R   0.570118 0.587144 0.085939 -0.012662
C3    C     C_R   0.569059 0.586182 0.941827 -0.094483
C4    C     C_R   0.257867 0.495169 0.443507 0.927109
C5    C     C_R   0.439444 0.406175 0.915793 0.215391
C6    C     C_3   0.298630 0.374341 0.879451 -0.514045
C7    C     C_3   0.299900 0.372137 0.033134 -0.488988
C8    C     C_R   0.491154 0.739664 0.497611 0.860086
C9    C     C_R   0.741513 0.491609 0.556200 0.972162
C10   C     C_2   0.119862 0.470126 0.414820 -0.369822
C11   C     C_2   0.071232 0.410555 0.511561 -0.264948
C12   C     C_R   0.475363 0.128759 0.497065 -0.135497
C13   C     C_2   0.879482 0.467365 0.584579 -0.374118
C14   C     C_2   0.933119 0.398897 0.497571 0.020674
C15   C     C_R   0.499870 0.062697 0.620875 0.110034
C16   C     C_2   0.861943 0.314850 0.387076 0.461263
C17   C     C_2   0.648911 0.684841 0.171475 0.420695
C18   C     C_2   0.347913 0.873773 0.239502 0.448433
C19   C     C_R   0.420142 0.067909 0.372968 -0.170606
C20   C     C_R   0.411964 0.937121 0.370113 -0.032929
C21   C     C_R   0.466154 0.871089 0.493867 -0.198671
C22   C     C_R   0.496326 0.935257 0.619212 0.139232
C23   C     C_3   0.610981 0.925048 0.737688 -0.428248
C24   C     C_3   0.614794 0.067273 0.739077 -0.439081
C25   C     C_R   0.439958 0.405771 0.058223 0.229749
H1    H     H_    0.702380 0.107530 0.709324 0.213843
H2    H     H_    0.386760 0.121772 0.278867 0.190810
H3    H     H_    0.584597 0.884016 0.831512 0.241233
H4    H     H_    0.696595 0.882204 0.707619 0.197902
H5    H     H_    0.590691 0.108145 0.833571 0.218991
H6    H     H_    0.902801 0.294651 0.297871 0.056171
H7    H     H_    0.683035 0.673134 0.281196 0.129619
H8    H     H_    0.312222 0.778298 0.240867 0.080173
H9    H     H_    0.623646 0.655303 0.897198 0.178871
H10   H     H_    0.239489 0.452334 0.824105 0.214224
H11   H     H_    0.280250 0.280710 0.829908 0.209515
H12   H     H_    0.240037 0.447278 0.065097 0.216167
H13   H     H_    0.284145 0.276871 0.072961 0.212772
H14   H     H_    0.132268 0.380598 0.608784 0.188796
H15   H     H_    0.940324 0.516242 0.671318 0.141874
H16   H     H_    0.058742 0.498342 0.316482 0.146836
N1    N     N_R   0.499160 0.499140 0.142600 -0.155461
N2    N     N_R   0.499160 0.499180 0.856960 -0.128543
O1    O     O_R   0.500020 0.316790 0.614700 -0.627042
O2    O     O_2   0.679519 0.781040 0.118579 -0.591579
O3    O     O_2   0.331564 0.928754 0.128438 -0.571396
O4    O     O_R   0.500000 0.316760 0.385350 -0.578769
O5    O     O_R   0.317820 0.500020 0.571850 -0.606139
O6    O     O_R   0.317800 0.499980 0.342510 -0.632447
O7    O     O_R   0.500000 0.683240 0.614650 -0.605491
O8    O     O_R   0.499980 0.683210 0.385300 -0.660666
O9    O     O_R   0.682200 0.500020 0.657490 -0.615044
O10   O     O_R   0.682180 0.499980 0.428150 -0.615680
O11   O     O_2   0.762470 0.261211 0.398617 -0.568306
Zn1   Zn    Zn3+2 0.500010 0.500020 0.653140 0.946325
Zn2   Zn    Zn3+2 0.499990 0.499980 0.346860 0.947437

loop_
_geom_bond_atom_site_label_1
_geom_bond_atom_site_label_2
_ccdc_geom_bond_type
C25   N1    A    
O5    Zn1   S    
C23   C24   S    
O9    Zn1   S    
C2    C17   S    
C6    C7    S    
C14   C16   S    
O6    Zn2   S    
C19   H2    S    
C1    O1    A    
C19   C20   A    
O1    Zn1   S    
C12   C15   A    
C4    O6    A    
C21   C22   A    
C6    H11   S    
C2    C3    A    
C7    H12   S    
C23   H3    S    
C6    H10   S    
C10   H16   S    
C11   H14   S    
C1    C12   S    
C8    O8    A    
C3    N2    A    
C23   H4    S    
C9    O9    A    
C2    N1    A    
C5    C25   A    
C18   O3    D    
C12   C19   A    
N2    Zn1   S    
C15   C24   S    
C18   H8    S    
C7    H13   S    
C17   O2    D    
C8    C21   S    
C18   C20   S    
C5    N2    A    
C5    C6    S    
C11   C14   S    
C16   O11   D    
C24   H5    S    
C9    O10   A    
C10   C11   D    
C4    C10   S    
C8    O7    A    
C20   C21   A    
O8    Zn2   S    
C4    O5    A    
O10   Zn2   S    
C17   H7    S    
C9    C13   S    
C22   C23   S    
C1    O4    A    
C13   H15   S    
C3    H9    S    
N1    Zn2   S    
C13   C14   D    
C15   C22   A    
O7    Zn1   S    
C24   H1    S    
O4    Zn2   S    
C16   H6    S    
C7    C25   S    
