data_mof_unit_36645.cif
_audit_creation_date              2012-12-10T17:59:17-0500
_audit_creation_method            fapswitch 2.2
_symmetry_space_group_name_H-M    P1
_symmetry_Int_Tables_number       1
_space_group_crystal_system       triclinic
_cell_length_a                    10.855421
_cell_length_b                    9.502035
_cell_length_c                    10.836692
_cell_angle_alpha                 89.966923
_cell_angle_beta                  90.12245
_cell_angle_gamma                 90.706425
_cell_volume                      1117.70182154

loop_
_atom_site_label
_atom_site_type_symbol
_atom_type_description
_atom_site_fract_x
_atom_site_fract_y
_atom_site_fract_z
_atom_type_partial_charge
C1    C     C_R   0.262279 0.498792 0.500126 0.837621
C2    C     C_3   0.621214 0.544880 0.930069 -0.401733
C3    C     C_R   0.063503 0.422134 0.407872 0.076916
C4    C     C_R   0.064871 0.567236 0.596728 0.145920
C5    C     C_R   0.934178 0.429410 0.402789 0.151210
C6    C     C_R   0.935631 0.573909 0.592298 0.135024
C7    C     C_R   0.871434 0.503207 0.496460 -0.113191
C8    C     C_R   0.127943 0.495375 0.502215 -0.116184
C9    C     C_R   0.425721 0.073450 0.421087 -0.016321
C10   C     C_R   0.425764 0.924508 0.420997 -0.017133
C11   C     C_R   0.574748 0.926541 0.578514 -0.020813
C12   C     C_R   0.575964 0.075395 0.577321 -0.032886
C13   C     C_R   0.497753 0.499914 0.260112 0.843255
C14   C     C_R   0.737506 0.500972 0.498383 0.828114
C15   C     C_R   0.495818 0.499606 0.740683 0.803870
C16   C     C_3   0.393705 0.600014 0.074975 0.469693
C17   C     C_3   0.467793 0.348389 0.074553 0.486660
C18   C     C_3   0.392063 0.602019 0.931660 -0.096978
C19   C     C_3   0.460082 0.346416 0.932419 -0.068707
C20   C     C_3   0.620286 0.549906 0.072226 -0.603148
C21   C     C_3   0.493940 0.499283 0.123053 -0.090860
C22   C     C_3   0.493157 0.498467 0.879470 -0.002030
Cu1   Cu    Cu3+1 0.500020 0.640660 0.500000 0.942452
Cu2   Cu    Cu3+1 0.500020 0.359340 0.500000 0.949113
H1    H     H_    0.413982 0.707036 0.112370 0.112610
H2    H     H_    0.544064 0.280627 0.107919 0.104553
H3    H     H_    0.633645 0.871269 0.642175 0.117517
H4    H     H_    0.637699 0.132310 0.638366 0.127911
H5    H     H_    0.300723 0.560661 0.901707 0.184904
H6    H     H_    0.362445 0.323482 0.906581 0.195888
H7    H     H_    0.640605 0.659288 0.103651 0.208661
H8    H     H_    0.694941 0.482238 0.108099 0.190701
H9    H     H_    0.648439 0.649811 0.893288 0.191647
H10   H     H_    0.693244 0.470971 0.899170 0.177399
H11   H     H_    0.366900 0.128802 0.357378 0.160241
H12   H     H_    0.366362 0.867462 0.357682 0.138524
N1    N     N_R   0.500030 0.852070 0.500030 -0.163736
N2    N     N_R   0.500030 0.147930 0.500030 -0.164492
O1    O     O_R   0.319660 0.618740 0.499990 -0.573218
O2    O     O_R   0.319660 0.381260 0.499990 -0.586901
O3    O     O_R   0.499990 0.618790 0.317690 -0.597838
O4    O     O_R   0.499990 0.381210 0.317690 -0.569379
O5    O     O_R   0.680370 0.618830 0.500010 -0.580060
O6    O     O_R   0.680370 0.381170 0.500010 -0.583443
O7    O     O_R   0.500030 0.618780 0.682310 -0.588691
O8    O     O_R   0.500030 0.381220 0.682310 -0.583346
F1    F     F_    0.278426 0.561160 0.118690 -0.673553
F2    F     F_    0.359229 0.293558 0.123025 -0.669740
C23   C     C_3   0.399029 0.757138 0.887247 -0.880366
H13   H     H_    0.492191 0.803704 0.900744 0.236811
H14   H     H_    0.370542 0.769304 0.789893 0.267112
H15   H     H_    0.332887 0.821686 0.940300 0.242092
C24   C     C_3   0.534608 0.219560 0.883685 -0.878997
H16   H     H_    0.631559 0.248439 0.862993 0.233059
H17   H     H_    0.534668 0.130860 0.950585 0.226010
H18   H     H_    0.489523 0.173934 0.800881 0.259691
C25   C     C_3   0.134525 0.334850 0.315155 -0.658032
H19   H     H_    0.170366 0.240039 0.362068 0.209093
H20   H     H_    0.080779 0.297765 0.234574 0.237720
H21   H     H_    0.212465 0.397355 0.277928 0.305101
C26   C     C_3   0.133730 0.630522 0.705657 -0.844601
H22   H     H_    0.232701 0.606875 0.706035 0.217600
H23   H     H_    0.123707 0.746671 0.706040 0.243726
H24   H     H_    0.097704 0.584993 0.792980 0.235381
C27   C     C_3   0.865083 0.362056 0.295284 -0.849272
H25   H     H_    0.900242 0.405999 0.206989 0.231887
H26   H     H_    0.877431 0.246244 0.297006 0.238688
H27   H     H_    0.765125 0.381887 0.294134 0.221745
C28   C     C_3   0.863966 0.654375 0.689426 -0.838735
H28   H     H_    0.918931 0.694427 0.768068 0.235203
H29   H     H_    0.821402 0.747549 0.646072 0.236264
H30   H     H_    0.791288 0.585182 0.728811 0.206795

loop_
_geom_bond_atom_site_label_1
_geom_bond_atom_site_label_2
_ccdc_geom_bond_type
C2    C22   S    
C28   H30   S    
Cu2   N2    S    
Cu1   Cu2   S    
C16   C21   S    
Cu1   O7    S    
C6    C28   S    
C1    C8    S    
Cu2   O4    S    
C9    C10   A    
Cu1   O3    S    
C17   F2    S    
C11   H3    S    
C4    C8    A    
C23   H15   S    
Cu2   O8    S    
C16   C18   S    
C27   H27   S    
C26   H23   S    
C18   C23   S    
C13   C21   S    
C18   H5    S    
Cu1   N1    S    
C24   H16   S    
C26   H24   S    
C19   H6    S    
C19   C24   S    
C25   H19   S    
C6    C7    A    
C12   H4    S    
C10   N1    A    
Cu1   O1    S    
C17   H2    S    
C3    C25   S    
C16   F1    S    
C5    C27   S    
C13   O4    A    
Cu2   O2    S    
C27   H25   S    
C5    C7    A    
C28   H28   S    
C24   H17   S    
C3    C8    A    
C12   N2    A    
C26   H22   S    
Cu2   O6    S    
C9    H11   S    
C25   H20   S    
C4    C6    A    
C28   H29   S    
C15   O7    A    
C2    C20   S    
C3    C5    A    
C19   C22   S    
Cu1   O5    S    
C20   C21   S    
C2    H9    S    
C14   O6    A    
C23   H13   S    
C20   H8    S    
C24   H18   S    
C16   H1    S    
C11   N1    A    
C1    O1    A    
C13   O3    A    
C9    N2    A    
C25   H21   S    
C10   H12   S    
C1    O2    A    
C17   C19   S    
C2    H10   S    
C18   C22   S    
C15   O8    A    
C4    C26   S    
C15   C22   S    
C7    C14   S    
C27   H26   S    
C11   C12   A    
C14   O5    A    
C23   H14   S    
C20   H7    S    
C17   C21   S    
