data_mof_unit_47733.cif
_audit_creation_date              2012-12-10T19:24:08-0500
_audit_creation_method            fapswitch 2.2
_symmetry_space_group_name_H-M    P1
_symmetry_Int_Tables_number       1
_space_group_crystal_system       triclinic
_cell_length_a                    10.510202
_cell_length_b                    10.535146
_cell_length_c                    9.770649
_cell_angle_alpha                 90.517657
_cell_angle_beta                  90.343398
_cell_angle_gamma                 90.301689
_cell_volume                      1081.79099554

loop_
_atom_site_label
_atom_site_type_symbol
_atom_type_description
_atom_site_fract_x
_atom_site_fract_y
_atom_site_fract_z
_atom_type_partial_charge
C1    C     C_R   0.501035 0.257826 0.499223 0.902330
C2    C     C_3   0.590498 0.571014 0.049867 -0.067369
C3    C     C_R   0.257706 0.498947 0.499621 0.899683
C4    C     C_R   0.742294 0.501055 0.500379 0.899744
C5    C     C_3   0.041620 0.406114 0.582030 -0.161079
C6    C     C_3   0.958380 0.593891 0.417971 -0.161030
C7    C     C_3   0.957162 0.389018 0.454124 0.030982
C8    C     C_3   0.042838 0.610986 0.545877 0.031018
C9    C     C_3   0.877188 0.501095 0.500798 -0.045062
C10   C     C_3   0.122813 0.498910 0.499203 -0.045081
C11   C     C_3   0.959828 0.520033 0.629448 -0.210504
C12   C     C_R   0.498964 0.742174 0.500777 0.902385
C13   C     C_3   0.040172 0.479972 0.370553 -0.210539
C14   C     C_3   0.597270 0.042652 0.575720 -0.045491
C15   C     C_3   0.402731 0.957348 0.424280 -0.045518
C16   C     C_3   0.609065 0.957197 0.448599 -0.018630
C17   C     C_3   0.390936 0.042802 0.551403 -0.018645
C18   C     C_3   0.498922 0.876943 0.502439 -0.137883
C19   C     C_3   0.501078 0.123057 0.497561 -0.137856
C20   C     C_1   0.906783 0.267763 0.402242 0.212614
C21   C     C_1   0.093213 0.732243 0.597761 0.212600
C22   C     C_2   0.730655 0.903830 0.394596 0.916947
C23   C     C_3   0.487114 0.961168 0.631645 -0.207739
C24   C     C_2   0.269346 0.096152 0.605426 0.916946
C25   C     C_1   0.703818 0.093521 0.657726 0.231108
C26   C     C_1   0.296184 0.906478 0.342272 0.231147
C27   C     C_3   0.512887 0.038832 0.368355 -0.207762
C28   C     C_3   0.516031 0.386641 0.047513 -0.058445
C29   C     C_3   0.483969 0.613358 0.952487 -0.058457
C30   C     C_3   0.606436 0.457690 0.951584 -0.077789
C31   C     C_3   0.393564 0.542310 0.048416 -0.077804
C32   C     C_3   0.409502 0.428986 0.950133 -0.067359
H1    H     H_    0.078147 0.330877 0.650204 0.176846
H2    H     H_    0.470376 0.708932 0.907917 0.136071
H3    H     H_    0.333333 0.369132 0.903268 0.141184
H4    H     H_    0.666667 0.630868 0.096731 0.141163
H5    H     H_    0.844121 0.875196 0.231814 0.340191
H6    H     H_    0.155939 0.124833 0.768247 0.340190
H7    H     H_    0.921857 0.669131 0.349797 0.176851
H8    H     H_    0.923794 0.537523 0.734527 0.158888
H9    H     H_    0.076204 0.462481 0.265473 0.158891
H10   H     H_    0.476626 0.926590 0.738035 0.181232
H11   H     H_    0.523377 0.073409 0.261964 0.181233
H12   H     H_    0.696064 0.421914 0.906072 0.134196
H13   H     H_    0.303936 0.578086 0.093928 0.134198
H14   H     H_    0.529624 0.291068 0.092083 0.136076
N1    N     N_3   0.499910 0.500030 0.863290 -0.082573
N2    N     N_3   0.500090 0.499970 0.136710 -0.082573
N3    N     N_1   0.867102 0.172275 0.360753 -0.162559
N4    N     N_1   0.132891 0.827731 0.639253 -0.162615
N5    N     N_1   0.787725 0.133811 0.722167 -0.199533
N6    N     N_1   0.212279 0.866187 0.277830 -0.199544
O1    O     O_R   0.500010 0.313960 0.616610 -0.620273
O2    O     O_R   0.759221 0.914570 0.255748 -0.801097
O3    O     O_2   0.195802 0.148740 0.527329 -0.653782
O4    O     O_R   0.240853 0.085498 0.744301 -0.801128
O5    O     O_R   0.499990 0.686040 0.383390 -0.620291
O6    O     O_R   0.500060 0.313950 0.383350 -0.621127
O7    O     O_R   0.499940 0.686050 0.616650 -0.621121
O8    O     O_R   0.313930 0.499970 0.616610 -0.628493
O9    O     O_R   0.686070 0.500030 0.383390 -0.628492
O10   O     O_R   0.313980 0.499960 0.383350 -0.623145
O11   O     O_R   0.686020 0.500040 0.616650 -0.623143
O12   O     O_2   0.804133 0.851149 0.472690 -0.653837
Zn1   Zn    Zn3+2 0.499970 0.500010 0.655740 0.960334
Zn2   Zn    Zn3+2 0.500030 0.499990 0.344260 0.960323

loop_
_geom_bond_atom_site_label_1
_geom_bond_atom_site_label_2
_ccdc_geom_bond_type
C15   C18   S    
O11   Zn1   S    
O5    Zn2   S    
C6    C9    S    
C13   H9    S    
C22   O2    S    
C24   O3    D    
C4    O11   A    
C28   H14   S    
C17   C23   S    
C23   H10   S    
C29   N1    S    
C2    C29   S    
C5    C11   S    
C7    C9    S    
C1    O1    A    
C12   O7    A    
O9    Zn2   S    
O6    Zn2   S    
C5    H1    S    
C19   C27   S    
C3    O8    A    
C16   C27   S    
C30   H12   S    
C21   N4    T    
C1    C19   S    
C17   C24   S    
O10   Zn2   S    
C18   C23   S    
C32   H3    S    
C30   N1    S    
C28   C32   S    
C5    C7    S    
C15   C26   S    
C6    C8    S    
C2    N2    S    
C29   H2    S    
C14   C23   S    
C25   N5    T    
C20   N3    T    
C26   N6    T    
C15   C27   S    
C31   C32   S    
C8    C21   S    
C9    C11   S    
H5    O2    S    
C8    C10   S    
O8    Zn1   S    
C31   N2    S    
C32   N1    S    
C14   C16   S    
C12   O5    A    
O1    Zn1   S    
C3    O10   A    
C2    H4    S    
C15   C17   S    
C28   N2    S    
C16   C22   S    
C14   C19   S    
C10   C13   S    
C24   O4    S    
C2    C30   S    
C28   C30   S    
C5    C10   S    
C29   C31   S    
C3    C10   S    
C1    O6    A    
O7    Zn1   S    
C6    C13   S    
C8    C11   S    
C4    O9    A    
C17   C19   S    
C14   C25   S    
C11   H8    S    
C22   O12   D    
C27   H11   S    
C7    C13   S    
H6    O4    S    
C16   C18   S    
C7    C20   S    
C31   H13   S    
C12   C18   S    
C6    H7    S    
N2    Zn2   S    
C4    C9    S    
N1    Zn1   S    
