data_mof_unit_5181.cif
_audit_creation_date              2012-12-10T18:11:04-0500
_audit_creation_method            fapswitch 2.2
_symmetry_space_group_name_H-M    P1
_symmetry_Int_Tables_number       1
_space_group_crystal_system       triclinic
_cell_length_a                    10.743986
_cell_length_b                    9.485651
_cell_length_c                    10.674613
_cell_angle_alpha                 89.313914
_cell_angle_beta                  90.116379
_cell_angle_gamma                 90.107126
_cell_volume                      1087.80723283

loop_
_atom_site_label
_atom_site_type_symbol
_atom_type_description
_atom_site_fract_x
_atom_site_fract_y
_atom_site_fract_z
_atom_type_partial_charge
C1    C     C_R   0.259942 0.500096 0.499613 0.893491
C2    C     C_3   0.501195 0.503665 0.124104 -0.259011
C3    C     C_3   0.071436 0.655540 0.487892 0.127311
C4    C     C_3   0.071334 0.438046 0.626419 0.113358
C5    C     C_3   0.928146 0.656040 0.494049 0.411978
C6    C     C_3   0.927098 0.428055 0.622083 0.470550
C7    C     C_3   0.070518 0.413486 0.388660 -0.418802
C8    C     C_3   0.121826 0.500791 0.499823 -0.151118
C9    C     C_3   0.877630 0.501764 0.501099 -0.157127
C10   C     C_3   0.927072 0.420663 0.385801 -0.594438
C11   C     C_3   0.613962 0.082511 0.563389 -0.363362
C12   C     C_3   0.617227 0.916092 0.556638 -0.327439
C13   C     C_3   0.388876 0.081729 0.569155 0.311142
C14   C     C_3   0.393116 0.914726 0.576086 0.297517
C15   C     C_3   0.499472 0.083847 0.371864 0.204685
C16   C     C_3   0.491986 0.916632 0.373080 0.301585
C17   C     C_R   0.499922 0.501074 0.260010 0.924303
C18   C     C_R   0.739737 0.500390 0.500050 0.884509
C19   C     C_R   0.501449 0.499089 0.740153 0.971119
C20   C     C_3   0.489808 0.633092 0.036488 0.304094
C21   C     C_3   0.406649 0.425072 0.042568 0.303264
C22   C     C_3   0.392426 0.555700 0.955215 -0.344344
C23   C     C_3   0.501863 0.497475 0.876223 -0.234217
C24   C     C_3   0.596741 0.576486 0.957254 0.264030
C25   C     C_3   0.513695 0.368046 0.963732 0.326766
C26   C     C_3   0.609032 0.446865 0.044262 0.449936
Cu1   Cu    Cu3+1 0.499860 0.642410 0.500060 1.029475
Cu2   Cu    Cu3+1 0.499860 0.357590 0.500060 0.997473
H1    H     H_    0.303914 0.599882 0.918136 0.211795
H2    H     H_    0.895985 0.474242 0.297852 0.239785
H3    H     H_    0.888851 0.311523 0.384750 0.227409
H4    H     H_    0.622976 0.117107 0.661846 0.217574
H5    H     H_    0.637835 0.868991 0.649984 0.246883
H6    H     H_    0.698728 0.123704 0.515961 0.182969
H7    H     H_    0.697942 0.885725 0.497770 0.196750
H8    H     H_    0.588941 0.113648 0.325902 0.152366
H9    H     H_    0.573421 0.878412 0.318872 0.146403
H10   H     H_    0.303288 0.107493 0.515760 0.092072
H11   H     H_    0.304965 0.876652 0.534385 0.149673
H12   H     H_    0.106996 0.716556 0.569022 0.194588
H13   H     H_    0.097771 0.511865 0.702351 0.186494
H14   H     H_    0.889115 0.710489 0.409771 0.095471
H15   H     H_    0.896926 0.315717 0.622472 0.102128
H16   H     H_    0.109017 0.452675 0.298126 0.232728
H17   H     H_    0.100435 0.301680 0.396552 0.200840
N1    N     N_3   0.500250 0.143650 0.502780 -0.235077
N2    N     N_3   0.500250 0.856350 0.502780 -0.238061
O1    O     O_R   0.317570 0.620260 0.500070 -0.551551
O2    O     O_R   0.317570 0.379740 0.500070 -0.574235
O3    O     O_R   0.499850 0.620240 0.316900 -0.535049
O4    O     O_R   0.499850 0.379760 0.316900 -0.558892
O5    O     O_R   0.682190 0.620260 0.500030 -0.570740
O6    O     O_R   0.682190 0.379740 0.500030 -0.620853
O7    O     O_R   0.499910 0.620280 0.683200 -0.542033
O8    O     O_R   0.499910 0.379720 0.683200 -0.529127
O9    O     O_3   0.368356 0.143548 0.686191 -0.608061
H18   H     H_    0.438327 0.119055 0.741933 0.367014
O10   O     O_3   0.388908 0.861685 0.699865 -0.681480
H19   H     H_    0.463429 0.893172 0.746201 0.328241
O11   O     O_3   0.405694 0.139289 0.292488 -0.665710
H20   H     H_    0.344874 0.194345 0.340449 0.356765
O12   O     O_3   0.386056 0.865065 0.309708 -0.585515
H21   H     H_    0.311452 0.918125 0.335897 0.343867
O13   O     O_3   0.480298 0.772563 0.075852 -0.637690
H22   H     H_    0.473103 0.829947 0.997975 0.351271
O14   O     O_3   0.308119 0.344342 0.090037 -0.669228
H23   H     H_    0.264570 0.306961 0.015502 0.370599
O15   O     O_3   0.695435 0.656884 0.909653 -0.614149
H24   H     H_    0.739430 0.693736 0.984134 0.353000
O16   O     O_3   0.527007 0.228355 0.926554 -0.699996
H25   H     H_    0.528035 0.171741 0.005216 0.367283
F1    F     F_    0.719312 0.391808 0.090306 -0.633880
O17   O     O_3   0.114938 0.725296 0.378938 -0.715943
H26   H     H_    0.071535 0.685903 0.305132 0.338878
O18   O     O_3   0.125050 0.307030 0.658302 -0.660860
H27   H     H_    0.094959 0.235753 0.598192 0.329892
F2    F     F_    0.890508 0.731648 0.597888 -0.617494
F3    F     F_    0.876900 0.489191 0.728001 -0.573840

loop_
_geom_bond_atom_site_label_1
_geom_bond_atom_site_label_2
_ccdc_geom_bond_type
Cu1   O1    S    
C7    C10   S    
C5    H14   S    
C22   H1    S    
C21   O14   S    
C1    C8    S    
C26   F1    S    
O17   H26   S    
C4    C8    S    
C17   O4    A    
C6    C9    S    
Cu1   O7    S    
C18   O5    A    
C7    C8    S    
Cu2   N1    S    
C7    H17   S    
C24   C26   S    
C13   N1    S    
Cu2   O4    S    
C6    F3    S    
C4    H13   S    
C19   O8    A    
C15   C16   S    
O9    H18   S    
C15   O11   S    
C4    O18   S    
C18   O6    A    
C14   H11   S    
C10   H3    S    
C20   C24   S    
O15   H24   S    
C23   C24   S    
O16   H25   S    
C9    C10   S    
Cu1   O3    S    
C16   H9    S    
C13   O9    S    
O14   H23   S    
C13   C14   S    
C2    C17   S    
C16   O12   S    
C12   N2    S    
C16   N2    S    
Cu2   O8    S    
C14   O10   S    
C2    C20   S    
C4    C6    S    
C3    C8    S    
O10   H19   S    
O11   H20   S    
C20   O13   S    
C19   C23   S    
O18   H27   S    
C5    C9    S    
O12   H21   S    
Cu2   O2    S    
C10   H2    S    
C11   C12   S    
C2    C21   S    
C2    C26   S    
C7    H16   S    
C12   H7    S    
C13   H10   S    
C19   O7    A    
C20   C22   S    
C3    H12   S    
C6    H15   S    
C5    F2    S    
C15   H8    S    
Cu1   O5    S    
Cu1   N2    S    
C21   C25   S    
C11   H6    S    
C3    C5    S    
C17   O3    A    
C11   H4    S    
Cu2   O6    S    
C1    O1    A    
C14   N2    S    
O13   H22   S    
C25   C26   S    
C23   C25   S    
C3    O17   S    
C24   O15   S    
C9    C18   S    
Cu1   Cu2   S    
C22   C23   S    
C11   N1    S    
C25   O16   S    
C15   N1    S    
C12   H5    S    
C21   C22   S    
C1    O2    A    
