data_mof_unit_10543.cif
_audit_creation_date              2012-10-26T19:21:04-0400
_audit_creation_method            fapswitch 2.2
_symmetry_space_group_name_H-M    P1
_symmetry_Int_Tables_number       1
_space_group_crystal_system       triclinic
_cell_length_a                    9.799613
_cell_length_b                    11.037323
_cell_length_c                    13.491759
_cell_angle_alpha                 94.580599
_cell_angle_beta                  82.557453
_cell_angle_gamma                 111.100939
_cell_volume                      1349.09911283

loop_
_atom_site_label
_atom_site_type_symbol
_atom_type_description
_atom_site_fract_x
_atom_site_fract_y
_atom_site_fract_z
_atom_type_partial_charge
Br1   Br    Br    0.346217 0.602492 0.198048 -0.536464
Br2   Br    Br    0.109583 0.268393 0.742331 -0.447479
Br3   Br    Br    0.648247 0.773741 0.753190 -0.451131
C1    C     C_R   0.556861 0.745580 0.506497 0.591068
C2    C     C_R   0.376857 0.479635 0.799675 -0.036968
C3    C     C_2   0.589176 0.884717 0.509832 -0.088932
C4    C     C_R   0.423448 0.489907 0.690774 0.601351
C5    C     C_2   0.484776 0.930620 0.496522 -0.141908
C6    C     C_2   0.411608 0.115375 0.488336 -0.105134
C7    C     C_2   0.516619 0.069546 0.500270 -0.151895
C8    C     C_2   0.917142 0.480462 0.499301 -0.024584
C9    C     C_2   0.077906 0.510003 0.508909 0.004997
C10   C     C_R   0.443487 0.254461 0.492619 0.569932
C11   C     C_R   0.577628 0.521467 0.310604 0.560343
C12   C     C_R   0.439990 0.510430 0.972344 -0.034844
C13   C     C_R   0.807257 0.624255 0.064440 -0.120979
C14   C     C_R   0.620518 0.551664 0.204446 0.010207
C15   C     C_R   0.237548 0.386876 0.832973 0.153968
C16   C     C_R   0.195181 0.366165 0.934956 0.284477
C17   C     C_R   0.299760 0.420368 0.002262 -0.100538
C18   C     C_3   0.927887 0.661342 0.788238 0.018699
C19   C     C_3   0.963781 0.544419 0.816438 -0.288656
C20   C     C_3   0.831942 0.416923 0.813635 -0.411225
C21   C     C_3   0.980406 0.329941 0.042171 0.007891
C22   C     C_3   0.943456 0.249898 0.135986 -0.245769
C23   C     C_R   0.477354 0.545837 0.871240 -0.054207
C24   C     C_3   0.861308 0.305103 0.220755 -0.473484
C25   C     C_R   0.548602 0.557282 0.039780 0.007207
C26   C     C_R   0.697832 0.611293 0.002116 0.018061
C27   C     C_R   0.733442 0.656275 0.904675 0.307789
C28   C     C_R   0.618590 0.640364 0.845781 0.170045
C29   C     C_R   0.513594 0.552849 0.143600 0.147549
C30   C     C_R   0.767642 0.586043 0.163302 -0.187814
Cu1   Cu    Cu3+1 0.362000 0.479240 0.482530 1.023770
Cu2   Cu    Cu3+1 0.638000 0.520760 0.517470 0.966039
H1    H     H_    0.852822 0.591657 0.209073 0.145853
H2    H     H_    0.272446 0.384732 0.077182 0.158286
H3    H     H_    0.626902 0.134687 0.513145 0.156164
H4    H     H_    0.030391 0.732534 0.751809 0.157186
H5    H     H_    0.848791 0.631261 0.731717 0.165379
H6    H     H_    0.053944 0.533803 0.761472 0.160506
H7    H     H_    0.004240 0.561490 0.891286 0.172383
H8    H     H_    0.738899 0.419226 0.868859 0.140910
H9    H     H_    0.863628 0.335541 0.832492 0.212380
H10   H     H_    0.794742 0.396859 0.737693 0.177842
H11   H     H_    0.875703 0.323787 0.015097 0.152806
H12   H     H_    0.374747 0.865504 0.483041 0.163621
H13   H     H_    0.038508 0.434809 0.061718 0.131152
H14   H     H_    0.874036 0.148033 0.117780 0.199334
H15   H     H_    0.046247 0.248964 0.161670 0.172992
H16   H     H_    0.931687 0.404804 0.243324 0.164338
H17   H     H_    0.832781 0.242771 0.286505 0.142790
H18   H     H_    0.758074 0.307783 0.196998 0.157421
H19   H     H_    0.301551 0.049971 0.475400 0.119631
H20   H     H_    0.698954 0.950071 0.523478 0.131304
H21   H     H_    0.130744 0.584411 0.563319 0.136294
H22   H     H_    0.859515 0.396232 0.454087 0.143890
H23   H     H_    0.101336 0.377343 0.405630 0.210254
H24   H     H_    0.909107 0.639997 0.573210 0.201507
H25   H     H_    0.922887 0.662162 0.037024 0.168022
N1    N     N_2   0.845330 0.551960 0.543750 -0.363990
N2    N     N_2   0.154690 0.448120 0.456210 -0.322267
O1    O     O_R   0.426290 0.668220 0.490680 -0.494354
O2    O     O_3   0.057990 0.276105 0.965808 -0.518097
O3    O     O_R   0.659360 0.703290 0.520190 -0.465431
O4    O     O_R   0.326580 0.473880 0.629020 -0.465407
O5    O     O_R   0.559660 0.508940 0.658530 -0.479710
O6    O     O_R   0.340640 0.296710 0.479810 -0.475045
O7    O     O_R   0.573710 0.331780 0.509320 -0.509480
O8    O     O_R   0.440340 0.491060 0.341470 -0.450452
O9    O     O_R   0.673420 0.526120 0.370980 -0.512926
O10   O     O_3   0.878957 0.726048 0.872328 -0.526471

loop_
_geom_bond_atom_site_label_1
_geom_bond_atom_site_label_2
_ccdc_geom_bond_type
H23   N2    S    
C27   O10   S    
C8    C9    S    
C24   H18   S    
C26   C27   A    
C20   H10   S    
C13   C30   A    
C22   C24   S    
C9    N2    D    
C6    C7    D    
Cu1   O8    S    
C16   C17   A    
C18   H4    S    
Cu2   O5    S    
C3    H20   S    
C7    H3    S    
C21   H11   S    
Cu1   O4    S    
C5    H12   S    
Cu2   O9    S    
C23   C28   A    
C21   O2    S    
C9    H21   S    
C18   C19   S    
C21   C22   S    
C4    O4    A    
Br3   C28   S    
C17   H2    S    
C11   O8    A    
C11   C14   S    
C12   C25   A    
C19   H7    S    
C18   H5    S    
C10   O7    A    
C2    C15   A    
C1    O1    A    
C25   C29   A    
C14   C30   A    
Cu1   O1    S    
C16   O2    S    
C24   H16   S    
Cu1   Cu2   S    
C19   C20   S    
C13   H25   S    
C1    O3    A    
C22   H14   S    
H24   N1    S    
C19   H6    S    
Br2   C15   S    
Cu2   O3    S    
C18   O10   S    
C4    O5    A    
C2    C23   A    
C21   H13   S    
Cu1   N2    S    
C30   H1    S    
C20   H8    S    
C24   H17   S    
Cu2   O7    S    
Cu2   N1    S    
C15   C16   A    
C11   O9    A    
Cu1   O6    S    
C2    C4    S    
C14   C29   A    
C6    C10   S    
C27   C28   A    
C25   C26   A    
C12   C23   A    
C3    C5    D    
C6    H19   S    
C8    N1    D    
C13   C26   A    
C8    H22   S    
C1    C3    S    
C22   H15   S    
C5    C7    S    
Br1   C29   S    
C12   C17   A    
C20   H9    S    
C10   O6    A    
