data_mof_unit_33576.cif
_audit_creation_date              2013-03-05T15:46:18-0500
_audit_creation_method            fapswitch 2.2
_symmetry_space_group_name_H-M    P1
_symmetry_Int_Tables_number       1
_space_group_crystal_system       triclinic
_cell_length_a                    17.488023
_cell_length_b                    24.371939
_cell_length_c                    14.828126
_cell_angle_alpha                 89.98666
_cell_angle_beta                  125.72491
_cell_angle_gamma                 90.007386
_cell_volume                      5130.76372842

loop_
_atom_site_label
_atom_site_type_symbol
_atom_site_description
_atom_site_fract_x
_atom_site_fract_y
_atom_site_fract_z
_atom_type_partial_charge
C1    C     C_R   0.811873 0.627696 0.906778 -0.014051
C2    C     C_R   0.189805 0.374841 0.092314 -0.024853
C3    C     C_R   0.189819 0.625165 0.092331 -0.018265
C4    C     C_R   0.847280 0.348610 0.909249 -0.001044
C5    C     C_R   0.345532 0.150770 0.908407 -0.006520
C6    C     C_R   0.652389 0.848482 0.090810 -0.005870
C7    C     C_R   0.688179 0.127628 0.093335 -0.019528
C8    C     C_R   0.346108 0.849016 0.908473 -0.015714
H1    H     H_    0.753309 0.631903 0.821224 0.163929
H2    H     H_    0.247615 0.369420 0.178028 0.166507
H3    H     H_    0.247575 0.630592 0.178081 0.165224
H4    H     H_    0.801378 0.335308 0.824492 0.163701
H5    H     H_    0.302066 0.164189 0.823296 0.159003
H6    H     H_    0.698385 0.835202 0.175625 0.164128
H7    H     H_    0.746682 0.131799 0.178980 0.166744
H8    H     H_    0.302971 0.835519 0.823421 0.157745
N1    N     N_R   0.892620 0.603790 0.941800 -0.047220
N2    N     N_R   0.107380 0.396210 0.058200 -0.046836
N3    N     N_R   0.107380 0.603790 0.058200 -0.044299
N4    N     N_R   0.892620 0.396210 0.941800 -0.049905
N5    N     N_R   0.392620 0.103790 0.941800 -0.049777
N6    N     N_R   0.607380 0.896210 0.058200 -0.048090
N7    N     N_R   0.607380 0.103790 0.058200 -0.048883
N8    N     N_R   0.392620 0.896210 0.941800 -0.048911
C9    C     C_R   0.945056 0.349108 0.094026 -0.071482
C10   C     C_R   0.095402 0.624530 0.905801 -0.078916
C11   C     C_R   0.095308 0.375362 0.905829 -0.090336
C12   C     C_R   0.909042 0.631886 0.092325 -0.054091
C13   C     C_R   0.441745 0.849924 0.093968 -0.094598
C14   C     C_R   0.590916 0.131968 0.907763 -0.071314
C15   C     C_R   0.554531 0.848978 0.906086 -0.092877
C16   C     C_R   0.441289 0.149893 0.093996 -0.078590
H9    H     H_    0.993646 0.335160 0.178600 0.139210
H10   H     H_    0.067265 0.630248 0.819527 0.110307
H11   H     H_    0.067111 0.369396 0.819646 0.110412
H12   H     H_    0.941140 0.646064 0.175748 0.127708
H13   H     H_    0.488016 0.836443 0.179222 0.136392
H14   H     H_    0.558688 0.146329 0.824418 0.129230
H15   H     H_    0.505745 0.835021 0.821576 0.140071
H16   H     H_    0.487427 0.163348 0.179284 0.134874
N9    N     N_R   0.952210 0.397600 0.057910 -0.052730
N10   N     N_R   0.047790 0.602400 0.942090 -0.044442
N11   N     N_R   0.047790 0.397600 0.942090 -0.047765
N12   N     N_R   0.952210 0.602400 0.057910 -0.047999
N13   N     N_R   0.452210 0.897600 0.057910 -0.049508
N14   N     N_R   0.547790 0.102400 0.942090 -0.051097
N15   N     N_R   0.547790 0.897600 0.942090 -0.052411
N16   N     N_R   0.452210 0.102400 0.057910 -0.050305
C17   C     C_R   0.995573 0.544725 0.266791 -0.072393
C18   C     C_R   0.948162 0.454423 0.693429 -0.089637
C19   C     C_R   0.946340 0.545739 0.692784 -0.106369
C20   C     C_R   0.987541 0.453008 0.256258 -0.057711
C21   C     C_R   0.550612 0.045840 0.305733 -0.075489
C22   C     C_R   0.513289 0.952992 0.744761 -0.034150
C23   C     C_R   0.505373 0.044705 0.734173 -0.050847
C24   C     C_R   0.548526 0.954169 0.304826 -0.055215
H17   H     H_    0.003505 0.585455 0.298441 0.169833
H18   H     H_    0.936014 0.412092 0.668347 0.214832
H19   H     H_    0.930461 0.587953 0.666962 0.215508
H20   H     H_    0.979926 0.410245 0.266480 0.179679
H21   H     H_    0.564651 0.088223 0.330782 0.208087
H22   H     H_    0.521150 0.910232 0.734801 0.181281
H23   H     H_    0.497854 0.085418 0.702613 0.172164
H24   H     H_    0.558437 0.911632 0.328610 0.208693
N17   N     N_R   0.026300 0.529110 0.206760 -0.065457
N18   N     N_R   0.973700 0.470890 0.793240 -0.069286
N19   N     N_R   0.973700 0.529110 0.793240 -0.071651
N20   N     N_R   0.026300 0.470890 0.206760 -0.068757
N21   N     N_R   0.526300 0.029110 0.206760 -0.070099
N22   N     N_R   0.473700 0.970890 0.793240 -0.065686
N23   N     N_R   0.473700 0.029110 0.793240 -0.062238
N24   N     N_R   0.526300 0.970890 0.206760 -0.068305
C25   C     C_R   0.742759 0.454658 0.696727 0.321440
C26   C     C_R   0.254595 0.544971 0.305810 0.275930
C27   C     C_R   0.254519 0.454838 0.305605 0.280407
C28   C     C_R   0.742660 0.545084 0.696606 0.272500
C29   C     C_R   0.243949 0.954666 0.695992 0.327307
C30   C     C_R   0.755651 0.045043 0.305091 0.275517
C31   C     C_R   0.755428 0.954820 0.305295 0.322084
C32   C     C_R   0.244069 0.045165 0.695595 0.324122
N25   N     N_R   0.818530 0.472270 0.792960 -0.113761
N26   N     N_R   0.181470 0.527730 0.207040 -0.118083
N27   N     N_R   0.181470 0.472270 0.207040 -0.117346
N28   N     N_R   0.818530 0.527730 0.792960 -0.117777
N29   N     N_R   0.318530 0.972270 0.792960 -0.113016
N30   N     N_R   0.681470 0.027730 0.207040 -0.116594
N31   N     N_R   0.681470 0.972270 0.207040 -0.112405
N32   N     N_R   0.318530 0.027730 0.792960 -0.113303
C33   C     C_R   0.818799 0.644724 0.999718 -0.000295
C34   C     C_R   0.185350 0.361621 0.998640 0.006395
C35   C     C_R   0.185441 0.638362 0.998659 -0.000130
C36   C     C_R   0.881053 0.317469 0.002716 -0.008007
C37   C     C_R   0.376115 0.181395 0.001854 -0.007681
C38   C     C_R   0.618280 0.817260 0.997395 -0.005874
C39   C     C_R   0.681249 0.144640 0.000385 0.006274
C40   C     C_R   0.376984 0.818289 0.001892 -0.003142
C41   C     C_R   0.961036 0.498618 0.288726 0.150840
C42   C     C_R   0.925267 0.500052 0.626364 0.128917
C43   C     C_R   0.570661 0.999923 0.371696 0.115472
C44   C     C_R   0.540263 0.998580 0.712901 0.131317
C45   C     C_R   0.691594 0.499811 0.637686 -0.059947
C46   C     C_R   0.304254 0.499813 0.367292 -0.057101
C47   C     C_R   0.193414 0.999851 0.635787 -0.092032
C48   C     C_R   0.805706 0.999891 0.365974 -0.062748
Ni1   Ni    Ni4+2 0.934150 0.565840 0.869060 0.303817
Ni2   Ni    Ni4+2 0.065850 0.434160 0.130940 0.293734
Ni3   Ni    Ni4+2 0.065850 0.565840 0.130940 0.309179
Ni4   Ni    Ni4+2 0.934150 0.434160 0.869060 0.293442
Ni5   Ni    Ni4+2 0.434150 0.065840 0.869060 0.304013
Ni6   Ni    Ni4+2 0.565850 0.934160 0.130940 0.288149
Ni7   Ni    Ni4+2 0.565850 0.065840 0.130940 0.293823
Ni8   Ni    Ni4+2 0.434150 0.934160 0.869060 0.292673
C49   C     C_3   0.526844 0.454500 0.567317 0.310920
C50   C     C_3   0.469784 0.544385 0.442078 0.327260
C51   C     C_3   0.469717 0.455174 0.440532 0.330555
C52   C     C_3   0.526731 0.543841 0.568705 0.331631
C53   C     C_3   0.028741 0.955621 0.567841 0.311345
C54   C     C_3   0.970880 0.043531 0.437270 0.327043
C55   C     C_3   0.970927 0.954271 0.440860 0.307843
C56   C     C_3   0.028535 0.044932 0.564110 0.311623
C57   C     C_3   0.462780 0.498887 0.565289 -0.265489
C58   C     C_3   0.533558 0.500032 0.444209 -0.249126
C59   C     C_3   0.964970 0.000853 0.563912 -0.262879
C60   C     C_3   0.034386 0.998303 0.441130 -0.258857
H25   H     H_    0.432228 0.498464 0.613178 0.223643
H26   H     H_    0.564190 0.500457 0.396377 0.230472
H27   H     H_    0.934870 0.001837 0.612283 0.226322
H28   H     H_    0.064356 0.997316 0.392612 0.226482
C61   C     C_3   0.405777 0.499571 0.437373 -0.229370
C62   C     C_3   0.590488 0.499500 0.571602 -0.236769
C63   C     C_3   0.907268 0.999533 0.435927 -0.221076
C64   C     C_3   0.092081 0.999750 0.568803 -0.218702
C65   C     C_R   0.790102 0.234138 0.903166 -0.128135
C66   C     C_R   0.335319 0.690162 0.101008 -0.071648
C67   C     C_R   0.335059 0.309775 0.100872 -0.074851
C68   C     C_R   0.667159 0.694316 0.896557 -0.063806
C69   C     C_R   0.286425 0.734245 0.900895 -0.113861
C70   C     C_R   0.833279 0.193806 0.103438 -0.073203
C71   C     C_R   0.709024 0.733790 0.096727 -0.135390
C72   C     C_R   0.285430 0.265367 0.900733 -0.107957
H29   H     H_    0.771265 0.249082 0.824047 0.145369
H30   H     H_    0.354782 0.675432 0.180230 0.188886
H31   H     H_    0.354806 0.324697 0.180068 0.189928
H32   H     H_    0.650058 0.681230 0.817436 0.183895
H33   H     H_    0.265318 0.750515 0.821727 0.143480
H34   H     H_    0.851070 0.180141 0.182599 0.184387
H35   H     H_    0.727393 0.748529 0.175770 0.143679
H36   H     H_    0.264073 0.249019 0.821539 0.144666
C73   C     C_R   0.239340 0.688376 0.900052 -0.122127
C74   C     C_R   0.884653 0.236795 0.104253 -0.120741
C75   C     C_R   0.761688 0.691400 0.097513 -0.103162
C76   C     C_R   0.238788 0.311425 0.899903 -0.125931
C77   C     C_R   0.737805 0.191565 0.902397 -0.103773
C78   C     C_R   0.382031 0.735972 0.101940 -0.139646
C79   C     C_R   0.381316 0.263754 0.101819 -0.132968
C80   C     C_R   0.615245 0.736941 0.895732 -0.128038
H37   H     H_    0.183294 0.671364 0.820773 0.130092
H38   H     H_    0.939042 0.254437 0.183630 0.145315
H39   H     H_    0.819177 0.675356 0.176587 0.166667
H40   H     H_    0.182802 0.328469 0.820616 0.130253
H41   H     H_    0.680081 0.175718 0.823284 0.166389
H42   H     H_    0.435366 0.753993 0.181394 0.145563
H43   H     H_    0.434648 0.245739 0.181295 0.146209
H44   H     H_    0.561105 0.754728 0.816384 0.145173
C81   C     C_R   0.257171 0.669692 0.999829 0.115329
C82   C     C_R   0.856261 0.260818 0.003641 0.111172
C83   C     C_R   0.746619 0.675209 0.997949 0.117325
C84   C     C_R   0.256928 0.330254 0.999720 0.114252
C85   C     C_R   0.753435 0.175004 0.002059 0.116431
C86   C     C_R   0.351418 0.761329 0.001682 0.104794
C87   C     C_R   0.350387 0.238295 0.001564 0.108794
C88   C     C_R   0.643025 0.760613 0.996348 0.105964
C89   C     C_R   0.869431 0.450215 0.450657 0.295354
C90   C     C_R   0.885534 0.548632 0.366393 0.307116
C91   C     C_R   0.885741 0.448947 0.368209 0.307125
C92   C     C_R   0.870192 0.548773 0.449633 0.306212
C93   C     C_R   0.614490 0.948794 0.632617 0.311434
C94   C     C_R   0.627917 0.048553 0.549252 0.311244
C95   C     C_R   0.628077 0.949965 0.547929 0.300517
C96   C     C_R   0.615024 0.048440 0.634478 0.310694
C97   C     C_R   0.908477 0.498575 0.339229 -0.097272
C98   C     C_R   0.884093 0.499743 0.506738 -0.083034
C99   C     C_R   0.612243 0.999529 0.491367 -0.087776
C100  C     C_R   0.592699 0.998447 0.662425 -0.093244
N33   N     N_R   0.739930 0.404016 0.645182 0.246711
O1    O     O_R   0.815255 0.374082 0.689891 -0.430918
O2    O     O_R   0.669185 0.393311 0.543586 -0.318927
N34   N     N_R   0.255025 0.596259 0.353818 0.242794
O3    O     O_R   0.184389 0.629919 0.297441 -0.410595
O4    O     O_R   0.318542 0.605946 0.458762 -0.332016
N35   N     N_R   0.255156 0.403344 0.353204 0.243667
O5    O     O_R   0.184475 0.369735 0.296832 -0.426461
O6    O     O_R   0.319185 0.393276 0.457843 -0.330533
N36   N     N_R   0.738804 0.596404 0.646323 0.247237
O7    O     O_R   0.808569 0.630846 0.699485 -0.407368
O8    O     O_R   0.672375 0.605573 0.542062 -0.317097
N37   N     N_R   0.243891 0.904337 0.645684 0.239782
O9    O     O_R   0.322318 0.877760 0.687802 -0.448140
O10   O     O_R   0.171440 0.891047 0.546778 -0.327568
N38   N     N_R   0.757966 0.096574 0.353750 0.248537
O11   O     O_R   0.688538 0.131060 0.298216 -0.425836
O12   O     O_R   0.822469 0.105976 0.458529 -0.313910
N39   N     N_R   0.756279 0.904213 0.355701 0.248514
O13   O     O_R   0.681070 0.873970 0.307694 -0.447966
O14   O     O_R   0.824430 0.893836 0.458741 -0.314176
N40   N     N_R   0.244577 0.095128 0.644610 0.239451
O15   O     O_R   0.322683 0.122361 0.688614 -0.437135
O16   O     O_R   0.173719 0.107286 0.543918 -0.329361
N41   N     N_R   0.560223 0.408241 0.644254 0.263397
O17   O     O_R   0.540750 0.357986 0.608481 -0.270491
O18   O     O_R   0.604617 0.417587 0.749994 -0.385073
N42   N     N_R   0.438026 0.589890 0.364164 0.251128
O19   O     O_R   0.449727 0.640516 0.397157 -0.296252
O20   O     O_R   0.406431 0.579462 0.261908 -0.436937
N43   N     N_R   0.437671 0.410419 0.360993 0.250335
O21   O     O_R   0.449897 0.359489 0.392386 -0.301715
O22   O     O_R   0.405260 0.421891 0.258844 -0.434650
N44   N     N_R   0.559458 0.589094 0.647315 0.249150
O23   O     O_R   0.544904 0.639779 0.614099 -0.305675
O24   O     O_R   0.595854 0.578374 0.750907 -0.427984
N45   N     N_R   0.062667 0.910721 0.647926 0.263279
O25   O     O_R   0.042280 0.859982 0.615611 -0.270093
O26   O     O_R   0.107505 0.921963 0.753024 -0.382858
N46   N     N_R   0.938233 0.088145 0.357137 0.249624
O27   O     O_R   0.952548 0.139114 0.388505 -0.305559
O28   O     O_R   0.902587 0.076496 0.254105 -0.424568
N47   N     N_R   0.938036 0.907632 0.364809 0.264545
O29   O     O_R   0.957695 0.857529 0.401485 -0.267435
O30   O     O_R   0.895003 0.916507 0.259118 -0.381440
N48   N     N_R   0.061902 0.091584 0.640151 0.263986
O31   O     O_R   0.041870 0.141673 0.603426 -0.268082
O32   O     O_R   0.105911 0.082733 0.746004 -0.386960
O33   O     O_3   0.837278 0.405031 0.475469 -0.703042
H45   H     H_    0.800101 0.381540 0.408619 0.364137
O34   O     O_3   0.879604 0.596245 0.312600 -0.781130
H46   H     H_    0.900074 0.627419 0.364842 0.331200
O35   O     O_3   0.880642 0.400458 0.317140 -0.749028
H47   H     H_    0.900132 0.369881 0.370462 0.340456
O36   O     O_3   0.839835 0.594874 0.474270 -0.711119
H48   H     H_    0.802365 0.617988 0.406867 0.358833
O37   O     O_3   0.621180 0.900434 0.685015 -0.745580
H49   H     H_    0.600856 0.869713 0.631831 0.341818
O38   O     O_3   0.657764 0.094529 0.523565 -0.712095
H50   H     H_    0.695988 0.117698 0.590780 0.360316
O39   O     O_3   0.658875 0.904725 0.521541 -0.703308
H51   H     H_    0.697313 0.881311 0.588330 0.366320
O40   O     O_3   0.622471 0.095988 0.689290 -0.779115
H52   H     H_    0.601205 0.127235 0.637027 0.331109

loop_
_geom_bond_atom_site_label_1
_geom_bond_atom_site_label_2
_geom_bond_distance
_ccdc_geom_bond_type
C32   N40   1.435910 S    
N39   O13   1.298672 A    
C76   H40   1.081223 S    
C58   H26   1.110784 S    
C8    N8    1.326425 A    
C2    N2    1.324178 A    
C53   N45   1.461680 S    
O36   H48   0.990287 S    
C8    C40   1.377459 A    
C46   C61   1.441368 S    
C65   C82   1.402997 A    
N29   Ni8   1.886773 S    
C22   C44   1.392862 A    
N46   O27   1.298591 A    
C28   N28   1.329193 A    
C31   N31   1.332544 A    
N4    N9    1.398624 A    
N44   O23   1.298746 A    
C55   N47   1.462026 S    
N31   Ni6   1.886774 S    
C55   C60   1.541981 S    
C70   C74   1.375564 A    
C92   C98   1.401149 A    
N39   O14   1.300862 A    
C78   C86   1.396019 A    
N45   O25   1.298672 A    
C17   N17   1.335940 A    
C65   C77   1.378676 A    
N8    N13   1.398624 A    
C69   H33   1.079524 S    
C26   N26   1.330369 A    
N1    Ni1   1.860583 S    
N43   O22   1.300353 A    
C96   C100  1.413258 A    
C51   C61   1.537023 S    
C68   C80   1.375097 A    
N40   O16   1.300727 A    
N33   O2    1.300675 A    
C6    H6    1.073307 S    
O38   H50   0.990555 S    
C6    N6    1.327381 A    
C20   C41   1.394015 A    
C24   N24   1.330931 A    
C58   C62   1.537354 S    
C67   C79   1.378264 A    
C60   C64   1.540354 S    
C11   C34   1.398185 A    
C3    C35   1.383547 A    
O37   H49   0.990815 S    
C50   N42   1.457219 S    
N37   O10   1.300486 A    
C53   C64   1.537895 S    
C33   C83   1.451766 S    
C54   C63   1.536773 S    
C20   H20   1.072564 S    
C38   C88   1.449679 S    
N44   O24   1.300386 A    
C10   H10   1.078393 S    
N34   O4    1.301031 A    
C15   H15   1.079604 S    
N38   O11   1.300400 A    
N6    Ni6   1.860583 S    
C48   C63   1.441937 S    
C23   H23   1.071833 S    
C23   C44   1.400215 A    
C27   C46   1.365969 A    
C55   C63   1.538428 S    
C67   C84   1.404382 A    
C24   H24   1.075962 S    
C3    N3    1.324338 A    
N22   N23   1.418932 A    
C4    H4    1.072837 S    
C47   C64   1.439248 S    
C72   C76   1.383475 A    
C43   C99   1.473374 S    
C94   C99   1.401823 A    
C20   N20   1.329975 A    
N3    N10   1.398624 A    
C91   C97   1.415951 A    
N5    N16   1.398611 A    
C59   C63   1.544194 S    
C45   C62   1.436406 S    
C30   N30   1.331310 A    
C19   C42   1.386430 A    
C25   C45   1.364961 A    
N6    N15   1.398611 A    
N25   Ni4   1.886773 S    
C29   N29   1.327684 A    
C8    H8    1.075605 S    
N7    N14   1.398624 A    
C15   N15   1.333039 A    
O39   H51   0.990314 S    
C90   O34   1.377162 S    
C70   C85   1.402998 A    
C16   N16   1.335030 A    
C69   C73   1.384072 A    
N48   O31   1.298670 A    
C30   N38   1.437312 S    
C4    N4    1.326878 A    
N20   Ni2   1.858067 S    
C5    C37   1.377708 A    
C90   C97   1.414461 A    
C25   N25   1.329784 A    
C25   N33   1.437459 S    
C76   C84   1.397822 A    
C89   O33   1.380371 S    
N28   Ni1   1.886775 S    
C95   C99   1.402739 A    
C89   C91   1.408598 A    
N3    Ni3   1.860240 S    
N24   Ni6   1.858067 S    
C18   C42   1.385845 A    
N9    Ni2   1.844707 S    
C32   C47   1.368817 A    
C54   N46   1.458571 S    
N35   O5    1.300379 A    
C18   H18   1.075019 S    
C75   C83   1.396663 A    
C73   C81   1.398027 A    
N29   N32   1.351670 A    
C49   C62   1.537147 S    
C9    N9    1.333073 A    
N30   N31   1.351670 A    
N19   Ni1   1.858066 S    
C71   C75   1.379651 A    
C54   C60   1.542021 S    
C7    H7    1.073587 S    
C22   H22   1.072661 S    
C51   N43   1.457186 S    
C79   H43   1.080621 S    
C10   C35   1.398965 A    
C91   O35   1.378225 S    
C30   C48   1.367173 A    
C80   C88   1.395954 A    
C21   C43   1.389627 A    
C13   N13   1.335459 A    
N34   O3    1.300658 A    
C5    N5    1.325942 A    
C75   H39   1.077844 S    
C42   C98   1.474266 S    
N21   N24   1.418932 A    
C27   N35   1.436576 S    
N43   O21   1.298742 A    
N35   O6    1.300952 A    
C57   H25   1.110359 S    
C14   C39   1.394141 A    
C36   C82   1.449574 S    
C66   H30   1.075921 S    
C18   N18   1.333903 A    
C94   C96   1.407354 A    
N47   O29   1.298678 A    
C22   N22   1.329565 A    
O34   H46   0.990873 S    
N17   N20   1.418932 A    
C71   H35   1.080010 S    
N13   Ni6   1.844707 S    
N41   O17   1.298757 A    
C66   C81   1.404740 A    
C1    H1    1.073072 S    
C71   C88   1.403038 A    
C19   N19   1.333972 A    
N26   Ni3   1.886772 S    
N42   O19   1.298812 A    
N48   O32   1.300659 A    
C39   C85   1.450878 S    
C21   N21   1.331315 A    
C69   C86   1.406289 A    
C95   O39   1.380335 S    
N22   Ni8   1.857728 S    
C49   C57   1.545098 S    
N32   Ni5   1.886775 S    
N38   O12   1.300899 A    
N47   O30   1.300707 A    
N42   O20   1.300283 A    
C89   C98   1.402056 A    
C72   C87   1.406253 A    
C31   N39   1.437596 S    
C12   N12   1.340502 A    
C26   N34   1.436482 S    
C13   H13   1.079871 S    
C12   C33   1.394050 A    
C31   C48   1.365872 A    
C29   C47   1.367198 A    
C19   H19   1.076075 S    
C52   N44   1.457406 S    
C2    H2    1.074404 S    
N36   O8    1.300831 A    
C59   H27   1.110413 S    
C27   N27   1.329670 A    
N25   N28   1.351670 A    
C7    C39   1.375120 A    
C10   N10   1.340418 A    
C94   O38   1.380169 S    
O33   H45   0.990264 S    
N12   Ni3   1.844711 S    
C28   C45   1.366505 A    
C11   N11   1.339930 A    
C56   N48   1.461753 S    
C37   C87   1.457214 S    
C9    C36   1.382439 A    
C1    C33   1.375295 A    
C2    C34   1.383139 A    
C74   H38   1.080597 S    
C34   C84   1.458901 S    
N40   O15   1.300456 A    
C5    H5    1.075681 S    
C21   H21   1.076508 S    
C14   N14   1.339849 A    
C56   C64   1.537010 S    
C57   C61   1.543906 S    
N46   O28   1.300486 A    
C78   H42   1.080639 S    
C13   C40   1.391300 A    
C50   C52   1.527687 S    
O40   H52   0.990993 S    
C56   C59   1.544576 S    
C41   C97   1.486437 S    
C68   C83   1.402974 A    
C93   C100  1.414945 A    
N7    Ni7   1.860240 S    
N16   Ni7   1.844711 S    
C65   H29   1.079839 S    
C24   C43   1.388787 A    
N27   Ni2   1.886774 S    
C60   H28   1.110492 S    
C26   C46   1.368149 A    
N45   O26   1.300645 A    
C11   H11   1.077772 S    
C53   C55   1.531508 S    
N30   Ni7   1.886772 S    
C53   C59   1.544923 S    
N1    N12   1.398611 A    
C49   N41   1.461236 S    
C68   H32   1.076092 S    
N2    N11   1.398611 A    
C80   H44   1.080581 S    
N36   O7    1.300568 A    
N21   Ni7   1.857729 S    
C6    C38   1.374414 A    
N33   O1    1.298911 A    
C66   C78   1.378621 A    
C7    N7    1.321291 A    
C29   N37   1.435489 S    
N2    Ni2   1.860583 S    
C70   H34   1.076528 S    
C77   H41   1.077755 S    
N23   Ni5   1.858066 S    
C67   H31   1.075709 S    
C50   C61   1.535979 S    
C90   C92   1.407910 A    
C93   C95   1.408065 A    
C16   C37   1.391563 A    
C15   C38   1.382257 A    
N11   Ni4   1.844710 S    
C16   H16   1.080014 S    
C4    C36   1.374557 A    
N37   O9    1.300178 A    
C44   C100  1.484116 S    
N10   Ni1   1.844706 S    
C54   C56   1.529916 S    
N8    Ni8   1.860240 S    
N18   Ni4   1.857728 S    
C3    H3    1.074565 S    
C17   C41   1.400832 A    
C50   C58   1.540273 S    
C96   O40   1.377399 S    
C79   C87   1.396024 A    
C17   H17   1.071942 S    
C28   N36   1.437289 S    
C92   O36   1.380064 S    
C52   C62   1.535331 S    
C1    N1    1.321707 A    
C12   H12   1.074220 S    
C35   C81   1.459886 S    
C32   N32   1.328542 A    
N26   N27   1.351670 A    
N14   Ni5   1.844706 S    
C77   C85   1.396270 A    
N18   N19   1.418932 A    
C51   C58   1.540571 S    
N41   O18   1.300620 A    
C40   C86   1.457845 S    
C52   C57   1.545091 S    
C14   H14   1.074213 S    
C49   C51   1.529497 S    
C93   O37   1.378402 S    
O35   H47   0.990833 S    
C72   H36   1.079461 S    
C73   H37   1.081255 S    
N17   Ni3   1.857729 S    
C23   N23   1.335917 A    
N15   Ni8   1.844710 S    
C9    H9    1.079697 S    
N5    Ni5   1.860583 S    
N4    Ni4   1.860240 S    
C74   C82   1.396310 A    
