data_mof_unit_62666.cif
_audit_creation_date              2013-03-05T16:18:48-0500
_audit_creation_method            fapswitch 2.2
_symmetry_space_group_name_H-M    P1
_symmetry_Int_Tables_number       1
_space_group_crystal_system       triclinic
_cell_length_a                    33.365029
_cell_length_b                    33.239889
_cell_length_c                    22.203796
_cell_angle_alpha                 89.999209
_cell_angle_beta                  90.004577
_cell_angle_gamma                 90.000029
_cell_volume                      24625.1167742

loop_
_atom_site_label
_atom_site_type_symbol
_atom_site_description
_atom_site_fract_x
_atom_site_fract_y
_atom_site_fract_z
_atom_type_partial_charge
O1    O     O_R   0.041070 0.458950 0.550320 -0.569755
O2    O     O_R   0.958930 0.541050 0.449680 -0.563231
O3    O     O_R   0.958930 0.541050 0.550320 -0.569852
O4    O     O_R   0.041070 0.458950 0.449680 -0.563323
O5    O     O_R   0.958930 0.458950 0.449680 -0.569860
O6    O     O_R   0.041070 0.541050 0.550320 -0.563334
O7    O     O_R   0.041070 0.541050 0.449680 -0.569805
O8    O     O_R   0.958930 0.458950 0.550320 -0.563302
O9    O     O_R   0.541070 0.958950 0.550320 -0.569841
O10   O     O_R   0.458930 0.041050 0.449680 -0.562970
O11   O     O_R   0.458930 0.041050 0.550320 -0.570061
O12   O     O_R   0.541070 0.958950 0.449680 -0.563247
O13   O     O_R   0.458930 0.958950 0.449680 -0.570064
O14   O     O_R   0.541070 0.041050 0.550320 -0.563166
O15   O     O_R   0.541070 0.041050 0.449680 -0.569888
O16   O     O_R   0.458930 0.958950 0.550320 -0.563050
C1    C     C_R   0.006160 0.465004 0.320558 0.024972
C2    C     C_R   0.993788 0.465013 0.679443 0.025324
C3    C     C_R   0.993837 0.534997 0.320558 0.025280
C4    C     C_R   0.006212 0.534988 0.679442 0.025212
C5    C     C_R   0.506221 0.965015 0.320555 0.025116
C6    C     C_R   0.493820 0.965007 0.679443 0.025296
C7    C     C_R   0.493772 0.034986 0.320559 0.026044
C8    C     C_R   0.506178 0.034994 0.679441 0.025041
C9    C     C_R   0.055430 0.446244 0.499954 0.865902
C10   C     C_R   0.944565 0.553755 0.499948 0.865705
C11   C     C_R   0.944565 0.446245 0.500048 0.865675
C12   C     C_R   0.055435 0.553755 0.500051 0.865949
C13   C     C_R   0.555435 0.946245 0.499952 0.865788
C14   C     C_R   0.444567 0.053765 0.499945 0.865160
C15   C     C_R   0.444565 0.946245 0.500049 0.865132
C16   C     C_R   0.555435 0.053755 0.500051 0.865814
Cu1   Cu    Cu3+1 1.000000 0.500000 0.559570 1.047934
Cu2   Cu    Cu3+1 0.000000 0.500000 0.440430 1.047900
Cu3   Cu    Cu3+1 0.500000 0.000000 0.559570 1.047834
Cu4   Cu    Cu3+1 0.500000 1.000000 0.440430 1.047943
N1    N     N_R   0.000000 0.500000 0.350920 -0.219658
N2    N     N_R   0.000000 0.500000 0.649080 -0.219694
N3    N     N_R   0.500000 1.000000 0.350920 -0.219767
N4    N     N_R   0.500000 1.000000 0.649080 -0.219675
C17   C     C_R   0.165439 0.714633 0.500677 0.596846
C18   C     C_R   0.834568 0.285360 0.500653 0.596851
C19   C     C_R   0.834569 0.714641 0.499339 0.596852
C20   C     C_R   0.165449 0.285394 0.498878 0.596867
C21   C     C_R   0.665432 0.214640 0.500658 0.596862
C22   C     C_R   0.334575 0.785350 0.500629 0.596873
C23   C     C_R   0.334593 0.214695 0.499998 0.596873
C24   C     C_R   0.665433 0.785362 0.499347 0.596857
N5    N     N_R   0.176759 0.675153 0.498788 -0.468449
N6    N     N_R   0.823246 0.324840 0.498775 -0.468444
N7    N     N_R   0.823248 0.675161 0.501207 -0.468445
N8    N     N_R   0.176756 0.324865 0.501245 -0.468529
N9    N     N_R   0.676753 0.175160 0.498789 -0.468450
N10   N     N_R   0.323254 0.824831 0.498773 -0.468445
N11   N     N_R   0.323268 0.175207 0.501305 -0.468486
N12   N     N_R   0.676755 0.824841 0.501226 -0.468446
C25   C     C_R   0.216296 0.664170 0.497345 0.598903
C26   C     C_R   0.783709 0.335822 0.497347 0.598894
C27   C     C_R   0.783710 0.664179 0.502630 0.598897
C28   C     C_R   0.216283 0.335849 0.503185 0.598917
C29   C     C_R   0.716291 0.164178 0.497366 0.598890
C30   C     C_R   0.283716 0.835814 0.497366 0.598854
C31   C     C_R   0.283727 0.164212 0.502174 0.598925
C32   C     C_R   0.716292 0.835823 0.502655 0.598890
C33   C     C_R   0.246790 0.693590 0.501001 -0.125447
C34   C     C_R   0.753216 0.306401 0.501011 -0.125442
C35   C     C_R   0.753217 0.693600 0.498972 -0.125437
C36   C     C_R   0.246797 0.306447 0.499584 -0.125486
C37   C     C_R   0.746784 0.193599 0.501025 -0.125433
C38   C     C_R   0.253224 0.806393 0.501030 -0.125414
C39   C     C_R   0.253248 0.193647 0.498510 -0.125499
C40   C     C_R   0.746785 0.806403 0.498990 -0.125438
C41   C     C_R   0.235316 0.734647 0.501055 -0.040191
C42   C     C_R   0.764691 0.265345 0.501054 -0.040191
C43   C     C_R   0.764692 0.734657 0.498940 -0.040192
C44   C     C_R   0.235330 0.265390 0.499017 -0.040172
C45   C     C_R   0.735309 0.234656 0.501058 -0.040192
C46   C     C_R   0.264699 0.765336 0.501052 -0.040199
C47   C     C_R   0.264716 0.234705 0.499027 -0.040177
C48   C     C_R   0.735310 0.765346 0.498945 -0.040192
C49   C     C_R   0.194425 0.745123 0.500876 -0.059354
C50   C     C_R   0.805582 0.254870 0.500858 -0.059350
C51   C     C_R   0.805583 0.745132 0.499141 -0.059352
C52   C     C_R   0.194441 0.254909 0.498673 -0.059393
C53   C     C_R   0.694418 0.245131 0.500857 -0.059364
C54   C     C_R   0.305589 0.754860 0.500833 -0.059366
C55   C     C_R   0.305604 0.245183 0.499789 -0.059379
C56   C     C_R   0.694419 0.754871 0.499141 -0.059354
C57   C     C_R   0.288164 0.683656 0.503219 0.328323
C58   C     C_R   0.711843 0.316335 0.503247 0.328332
C59   C     C_R   0.711843 0.683667 0.496731 0.328335
C60   C     C_R   0.288180 0.316395 0.497911 0.328328
C61   C     C_R   0.788158 0.183666 0.503265 0.328338
C62   C     C_R   0.211851 0.816326 0.503288 0.328353
C63   C     C_R   0.211887 0.183721 0.495728 0.328354
C64   C     C_R   0.788159 0.816336 0.496754 0.328336
C65   C     C_R   0.816838 0.214282 0.502081 -0.164770
C66   C     C_R   0.183170 0.785711 0.502110 -0.164775
C67   C     C_R   0.183198 0.214327 0.496923 -0.164745
C68   C     C_R   0.816839 0.785720 0.497930 -0.164764
C69   C     C_R   0.316844 0.714272 0.502035 -0.164757
C70   C     C_R   0.683162 0.285719 0.502069 -0.164750
C71   C     C_R   0.683163 0.714283 0.497916 -0.164759
C72   C     C_R   0.316858 0.285777 0.499111 -0.164743
O17   O     O_2   0.126168 0.724311 0.502695 -0.492069
O18   O     O_2   0.873839 0.275682 0.502655 -0.492084
O19   O     O_2   0.873840 0.724320 0.497341 -0.492065
O20   O     O_2   0.126189 0.275721 0.496394 -0.491941
O21   O     O_2   0.626161 0.224318 0.502656 -0.492020
O22   O     O_2   0.373847 0.775672 0.502609 -0.492040
O23   O     O_2   0.373872 0.224385 0.498561 -0.491977
O24   O     O_2   0.626162 0.775684 0.497344 -0.492056
O25   O     O_2   0.225729 0.624979 0.490712 -0.422186
O26   O     O_2   0.774273 0.375014 0.490723 -0.422227
O27   O     O_2   0.774275 0.624986 0.509243 -0.422228
O28   O     O_2   0.225677 0.375017 0.510245 -0.422122
O29   O     O_2   0.725726 0.124985 0.490752 -0.422233
O30   O     O_2   0.274280 0.875007 0.490763 -0.422347
O31   O     O_2   0.274268 0.124985 0.508239 -0.422173
O32   O     O_2   0.725728 0.875015 0.509281 -0.422230
C73   C     C_R   0.856133 0.382067 0.548052 -0.115083
C74   C     C_R   0.143878 0.617922 0.548057 -0.115048
C75   C     C_R   0.143997 0.382214 0.452103 -0.115108
C76   C     C_R   0.856132 0.617936 0.451931 -0.115071
C77   C     C_R   0.356150 0.882046 0.548065 -0.115088
C78   C     C_R   0.643868 0.117934 0.548066 -0.115044
C79   C     C_R   0.643869 0.882070 0.451951 -0.115059
C80   C     C_R   0.356452 0.118315 0.451643 -0.115037
C81   C     C_R   0.884682 0.412932 0.548654 0.301032
C82   C     C_R   0.115327 0.587058 0.548658 0.301054
C83   C     C_R   0.115436 0.413070 0.451502 0.301154
C84   C     C_R   0.884682 0.587070 0.451332 0.301036
C85   C     C_R   0.384696 0.912914 0.548669 0.300967
C86   C     C_R   0.615318 0.087069 0.548667 0.301042
C87   C     C_R   0.615320 0.912936 0.451349 0.301037
C88   C     C_R   0.385001 0.087454 0.450985 0.301016
C89   C     C_R   0.912082 0.416250 0.500068 -0.151393
C90   C     C_R   0.087919 0.583749 0.500075 -0.151240
C91   C     C_R   0.087911 0.416253 0.499945 -0.151180
C92   C     C_R   0.912083 0.583751 0.499922 -0.151382
C93   C     C_R   0.412084 0.916246 0.500070 -0.151794
C94   C     C_R   0.587918 0.083751 0.500076 -0.151380
C95   C     C_R   0.587919 0.916251 0.499934 -0.151414
C96   C     C_R   0.412098 0.083789 0.499907 -0.151926
C97   C     C_R   0.908985 0.389608 0.451131 -0.212068
C98   C     C_R   0.091009 0.610396 0.451143 -0.212018
C99   C     C_R   0.090880 0.389484 0.548743 -0.212319
C100  C     C_R   0.908988 0.610393 0.548860 -0.212058
C101  C     C_R   0.408979 0.889613 0.451121 -0.212190
C102  C     C_R   0.591013 0.110392 0.451137 -0.212024
C103  C     C_R   0.591015 0.889607 0.548869 -0.212042
C104  C     C_R   0.408709 0.110119 0.549183 -0.211246
H1    H     H_    0.929515 0.391642 0.413453 0.187928
H2    H     H_    0.070472 0.608367 0.413467 0.187888
H3    H     H_    0.070246 0.391418 0.586306 0.187731
H4    H     H_    0.929520 0.608358 0.586542 0.187922
H5    H     H_    0.429501 0.891658 0.413434 0.187988
H6    H     H_    0.570482 0.108357 0.413455 0.187903
H7    H     H_    0.570484 0.891640 0.586546 0.187921
H8    H     H_    0.429002 0.107831 0.587121 0.188330
C105  C     C_R   0.879869 0.359589 0.450668 -0.050611
C106  C     C_R   0.120127 0.640413 0.450682 -0.050606
C107  C     C_R   0.119996 0.359467 0.549203 -0.050607
C108  C     C_R   0.879873 0.640412 0.549320 -0.050622
C109  C     C_R   0.379866 0.859592 0.450657 -0.050665
C110  C     C_R   0.620129 0.140411 0.450676 -0.050618
C111  C     C_R   0.620131 0.859588 0.549333 -0.050609
C112  C     C_R   0.379601 0.140143 0.549677 -0.050877
C113  C     C_R   0.853495 0.355572 0.499236 0.252911
C114  C     C_R   0.146509 0.644422 0.499247 0.252912
C115  C     C_R   0.146505 0.355590 0.500776 0.253081
C116  C     C_R   0.853496 0.644430 0.500748 0.252921
C117  C     C_R   0.353503 0.855562 0.499236 0.252940
C118  C     C_R   0.646505 0.144428 0.499249 0.252923
C119  C     C_R   0.646506 0.855573 0.500765 0.252911
C120  C     C_R   0.353520 0.144482 0.500808 0.252976
C121  C     C_R   0.999997 0.500002 0.224434 0.116432
C122  C     C_R   0.999999 0.500001 0.775567 0.116387
C123  C     C_R   0.499991 0.000004 0.224433 0.116285
C124  C     C_R   0.499997 0.000002 0.775566 0.116412
C125  C     C_R   0.035670 0.499564 0.871506 0.709442
C126  C     C_R   0.964325 0.499643 0.128495 0.709443
C127  C     C_R   0.964327 0.500440 0.871496 0.709432
C128  C     C_R   0.035669 0.500364 0.128504 0.709400
C129  C     C_R   0.535667 0.999624 0.871506 0.709435
C130  C     C_R   0.464320 0.999583 0.128494 0.709503
C131  C     C_R   0.464323 0.000384 0.871495 0.709413
C132  C     C_R   0.535663 0.000431 0.128504 0.709393
N13   N     N_R   0.999998 0.500002 0.841128 -0.432646
N14   N     N_R   0.999997 0.500003 0.158873 -0.432651
N15   N     N_R   0.499995 0.000003 0.841127 -0.432644
N16   N     N_R   0.499992 0.000006 0.158872 -0.432644
C133  C     C_R   0.963293 0.499738 0.935597 -0.149004
C134  C     C_R   0.036702 0.499652 0.064404 -0.148991
C135  C     C_R   0.036703 0.500267 0.935607 -0.149010
C136  C     C_R   0.963293 0.500354 0.064394 -0.149009
C137  C     C_R   0.463289 0.999677 0.935596 -0.148996
C138  C     C_R   0.536698 0.999723 0.064404 -0.148993
C139  C     C_R   0.536699 0.000334 0.935607 -0.149010
C140  C     C_R   0.463288 0.000292 0.064393 -0.149039
C141  C     C_R   0.999998 0.500003 0.967811 -0.056890
C142  C     C_R   0.999997 0.500003 0.032189 -0.056898
C143  C     C_R   0.499994 0.000006 0.967811 -0.056893
C144  C     C_R   0.499993 0.000007 0.032189 -0.056893
C145  C     C_R   0.926767 0.499543 0.968302 0.249817
C146  C     C_R   0.073227 0.499365 0.031699 0.249815
C147  C     C_R   0.073229 0.500463 0.968322 0.249806
C148  C     C_R   0.926768 0.500642 0.031679 0.249808
C149  C     C_R   0.426763 0.999414 0.968300 0.249832
C150  C     C_R   0.573224 0.999502 0.031700 0.249814
C151  C     C_R   0.573224 0.000598 0.968322 0.249811
C152  C     C_R   0.426762 0.000512 0.031677 0.249805
O33   O     O_2   0.069900 0.497957 0.839357 -0.420530
O34   O     O_2   0.930091 0.498103 0.160643 -0.420530
O35   O     O_2   0.930097 0.502046 0.839337 -0.420566
O36   O     O_2   0.069903 0.501904 0.160662 -0.420592
O37   O     O_2   0.569900 0.998067 0.839358 -0.420543
O38   O     O_2   0.430090 0.997984 0.160642 -0.420446
O39   O     O_2   0.430091 0.001940 0.839336 -0.420609
O40   O     O_2   0.569894 0.002030 0.160663 -0.420588
C153  C     C_R   0.006330 0.463811 0.257062 0.232791
C154  C     C_R   0.993611 0.463821 0.742939 0.232821
C155  C     C_R   0.993664 0.536191 0.257062 0.232820
C156  C     C_R   0.006388 0.536181 0.742938 0.232801
C157  C     C_R   0.506392 0.963825 0.257059 0.232803
C158  C     C_R   0.493646 0.963815 0.742939 0.232804
C159  C     C_R   0.493592 0.036180 0.257063 0.232869
C160  C     C_R   0.506349 0.036188 0.742937 0.232775
H9    H     H_    0.010490 0.437617 0.346031 0.175713
H10   H     H_    0.989420 0.437632 0.653972 0.175760
H11   H     H_    0.989507 0.562382 0.346031 0.175728
H12   H     H_    0.010581 0.562368 0.653970 0.175784
H13   H     H_    0.510598 0.937635 0.346025 0.175836
H14   H     H_    0.489478 0.937623 0.653971 0.175780
H15   H     H_    0.489395 0.062364 0.346031 0.175929
H16   H     H_    0.510521 0.062377 0.653968 0.175820
N17   N     N_R   0.301929 0.643022 0.509825 0.177991
O41   O     O_R   0.292438 0.622801 0.557943 -0.231191
O42   O     O_R   0.330590 0.629705 0.475455 -0.253405
N18   N     N_R   0.698079 0.356968 0.509864 0.177991
O43   O     O_R   0.707584 0.377184 0.557982 -0.231242
O44   O     O_R   0.669408 0.370287 0.475509 -0.253402
N19   N     N_R   0.698079 0.643034 0.490101 0.177988
O45   O     O_R   0.669410 0.629711 0.524450 -0.253398
O46   O     O_R   0.707580 0.622824 0.441978 -0.231252
N20   N     N_R   0.301970 0.357057 0.491857 0.177960
O47   O     O_R   0.330452 0.370231 0.526693 -0.253386
O48   O     O_R   0.292724 0.377480 0.443820 -0.231175
N21   N     N_R   0.801922 0.143033 0.509893 0.177985
O49   O     O_R   0.792421 0.122821 0.558015 -0.231262
O50   O     O_R   0.830591 0.129711 0.475543 -0.253411
N22   N     N_R   0.198089 0.856959 0.509928 0.177978
O51   O     O_R   0.207603 0.877166 0.558050 -0.231330
O52   O     O_R   0.169412 0.870285 0.475589 -0.253434
N23   N     N_R   0.198161 0.143118 0.488544 0.177962
O53   O     O_R   0.169347 0.129632 0.522476 -0.253429
O54   O     O_R   0.207869 0.123135 0.440302 -0.231254
N24   N     N_R   0.801922 0.856970 0.490138 0.177986
O55   O     O_R   0.830594 0.870288 0.524494 -0.253415
O56   O     O_R   0.792418 0.877188 0.442021 -0.231253
H17   H     H_    0.848242 0.206025 0.503633 0.228158
H18   H     H_    0.151767 0.793968 0.503675 0.228162
H19   H     H_    0.151803 0.206073 0.494956 0.228155
H20   H     H_    0.848243 0.793978 0.496382 0.228161
H21   H     H_    0.348249 0.706014 0.503569 0.228163
H22   H     H_    0.651759 0.293976 0.503618 0.228169
H23   H     H_    0.651759 0.706026 0.496364 0.228164
H24   H     H_    0.348268 0.294045 0.497998 0.228155
H25   H     H_    0.835107 0.379175 0.584977 0.199952
H26   H     H_    0.164911 0.620808 0.584980 0.199959
H27   H     H_    0.165129 0.379425 0.415297 0.199845
H28   H     H_    0.835105 0.620829 0.415003 0.199955
H29   H     H_    0.335132 0.879143 0.584999 0.199933
H30   H     H_    0.664895 0.120827 0.584995 0.199950
H31   H     H_    0.664896 0.879180 0.415027 0.199952
H32   H     H_    0.335658 0.121453 0.414464 0.199735
N25   N     N_R   0.884073 0.441493 0.597210 0.143002
O57   O     O_R   0.883913 0.479879 0.585658 -0.295080
O58   O     O_R   0.876656 0.429474 0.651860 -0.266079
N26   N     N_R   0.115942 0.558492 0.597206 0.143020
O59   O     O_R   0.116092 0.520107 0.585646 -0.294857
O60   O     O_R   0.123375 0.570501 0.651858 -0.266049
N27   N     N_R   0.116155 0.441754 0.403112 0.143089
O61   O     O_R   0.123796 0.429891 0.348454 -0.266047
O62   O     O_R   0.116171 0.480112 0.414872 -0.295394
N28   N     N_R   0.884070 0.558511 0.402775 0.143023
O63   O     O_R   0.876650 0.570530 0.348124 -0.266073
O64   O     O_R   0.883912 0.520124 0.414325 -0.295078
N29   N     N_R   0.384096 0.941461 0.597242 0.142989
O65   O     O_R   0.383922 0.979850 0.585713 -0.295595
O66   O     O_R   0.376700 0.929426 0.651891 -0.266076
N30   N     N_R   0.615929 0.058510 0.597225 0.143017
O67   O     O_R   0.616087 0.020123 0.585677 -0.295100
O68   O     O_R   0.623349 0.070529 0.651875 -0.266050
N31   N     N_R   0.615929 0.941497 0.402795 0.142990
O69   O     O_R   0.623349 0.929481 0.348144 -0.266059
O70   O     O_R   0.616088 0.979884 0.414348 -0.295118
N32   N     N_R   0.384706 0.059258 0.401966 0.142589
O71   O     O_R   0.377995 0.071738 0.347330 -0.266241
O72   O     O_R   0.384079 0.020794 0.412902 -0.294250
H33   H     H_    0.877823 0.339354 0.412572 0.178831
H34   H     H_    0.122167 0.660652 0.412590 0.178817
H35   H     H_    0.121941 0.339126 0.587185 0.178680
H36   H     H_    0.877828 0.660646 0.587417 0.178822
H37   H     H_    0.377813 0.839366 0.412552 0.178820
H38   H     H_    0.622174 0.160645 0.412579 0.178812
H39   H     H_    0.622176 0.839352 0.587428 0.178826
H40   H     H_    0.377325 0.160131 0.588033 0.178814
N33   N     N_R   0.888899 0.498099 0.937891 0.192601
O73   O     O_R   0.865120 0.529100 0.939272 -0.212753
O74   O     O_R   0.875912 0.464126 0.916305 -0.203952
N34   N     N_R   0.111091 0.497815 0.062110 0.192599
O75   O     O_R   0.134966 0.528741 0.060702 -0.212715
O76   O     O_R   0.123974 0.463809 0.083724 -0.204014
N35   N     N_R   0.111097 0.501907 0.937921 0.192607
O77   O     O_R   0.134876 0.470906 0.939310 -0.212719
O78   O     O_R   0.124083 0.535880 0.916337 -0.203937
N36   N     N_R   0.888903 0.502193 0.062079 0.192597
O79   O     O_R   0.865028 0.471268 0.060666 -0.212707
O80   O     O_R   0.876022 0.536199 0.083690 -0.203970
N37   N     N_R   0.388898 0.997897 0.937889 0.192592
O81   O     O_R   0.365054 0.028846 0.939282 -0.212782
O82   O     O_R   0.375983 0.963900 0.916287 -0.203984
N38   N     N_R   0.611091 0.998028 0.062111 0.192600
O83   O     O_R   0.634901 0.029005 0.060712 -0.212748
O84   O     O_R   0.624044 0.964047 0.083718 -0.203953
N39   N     N_R   0.611090 0.002116 0.937922 0.192601
O85   O     O_R   0.634935 0.971167 0.939326 -0.212728
O86   O     O_R   0.624005 0.036112 0.916321 -0.203958
N40   N     N_R   0.388894 0.001989 0.062078 0.192590
O87   O     O_R   0.365082 0.971015 0.060671 -0.212761
O88   O     O_R   0.375944 0.035970 0.083681 -0.203871
N41   N     N_R   0.012872 0.425905 0.227050 0.163739
O89   O     O_R   0.998882 0.419316 0.173260 -0.294091
O90   O     O_R   0.030505 0.396500 0.255278 -0.275977
N42   N     N_R   0.987004 0.425924 0.772951 0.163777
O91   O     O_R   0.000969 0.419315 0.826751 -0.294119
O92   O     O_R   0.969330 0.396547 0.744717 -0.275703
N43   N     N_R   0.987119 0.574099 0.227050 0.163761
O93   O     O_R   0.001107 0.580689 0.173262 -0.294118
O94   O     O_R   0.969485 0.603501 0.255276 -0.275728
N44   N     N_R   0.012994 0.574078 0.772949 0.163770
O95   O     O_R   0.999028 0.580688 0.826744 -0.294128
O96   O     O_R   0.030669 0.603454 0.744718 -0.275684
N45   N     N_R   0.513004 0.925931 0.227046 0.163778
O97   O     O_R   0.499021 0.919316 0.173258 -0.294140
O98   O     O_R   0.530697 0.896561 0.255269 -0.275623
N46   N     N_R   0.487081 0.925912 0.772952 0.163768
O99   O     O_R   0.501064 0.919316 0.826745 -0.294122
O100  O     O_R   0.469432 0.896518 0.744723 -0.275662
N47   N     N_R   0.486973 0.074076 0.227054 0.163843
O101  O     O_R   0.500950 0.080696 0.173267 -0.294210
O102  O     O_R   0.469277 0.103441 0.255279 -0.274760
N48   N     N_R   0.512912 0.074093 0.772948 0.163750
O103  O     O_R   0.498926 0.080690 0.826734 -0.294146
O104  O     O_R   0.530563 0.103486 0.744722 -0.275637

loop_
_geom_bond_atom_site_label_1
_geom_bond_atom_site_label_2
_geom_bond_distance
_ccdc_geom_bond_type
N23   O54   1.301381 A    
C44   C47   1.414823 A    
C153  N41   1.442009 S    
C47   C55   1.408083 A    
O15   C16   1.287973 A    
C77   H29   1.083359 S    
N41   O89   1.300861 A    
O16   C15   1.286055 A    
C33   C57   1.420243 A    
C17   O17   1.349926 S    
C37   C61   1.420242 A    
O16   Cu3   1.944670 S    
C21   O21   1.349925 S    
C39   C63   1.420258 A    
C133  C141  1.418234 A    
C30   C38   1.413532 A    
C3    N1    1.360139 A    
C6    H14   1.081397 S    
C68   H20   1.083694 S    
C61   N21   1.434143 S    
N38   O83   1.300856 A    
C74   C114  1.399361 A    
C71   H23   1.083696 S    
C105  H33   1.082860 S    
C16   C94   1.472654 S    
C78   C118  1.399359 A    
C65   H17   1.083692 S    
C155  N43   1.442011 S    
O2    Cu2   1.944692 S    
C95   C103  1.405563 A    
C67   H19   1.083704 S    
C127  N13   1.368045 A    
C41   C49   1.408048 A    
N20   O48   1.301384 A    
C127  O35   1.347935 S    
C110  C118  1.398317 A    
N35   O78   1.301031 A    
N40   O87   1.300857 A    
C2    H10   1.081392 S    
C25   C33   1.413535 A    
C122  N13   1.455699 S    
C60   N20   1.434083 S    
N44   O95   1.300857 A    
O7    C12   1.287966 A    
C85   N29   1.436671 S    
C59   C71   1.397149 A    
O10   C14   1.286080 A    
C98   H2    1.083419 S    
C132  C138  1.423884 A    
C4    C156  1.410424 A    
O2    C10   1.286062 A    
C18   O18   1.349925 S    
C31   C39   1.413536 A    
C51   C68   1.400697 A    
C22   O22   1.349921 S    
C138  C144  1.418239 A    
N32   O71   1.301497 A    
C82   C90   1.418398 A    
O7    Cu2   1.944665 S    
C152  N40   1.433350 S    
C38   C62   1.420239 A    
O3    C10   1.287972 A    
C79   H31   1.083359 S    
N42   O91   1.300860 A    
C62   N22   1.434143 S    
C135  C141  1.418226 A    
Cu1   N2    1.987462 S    
C32   O32   1.348283 S    
O6    Cu1   1.944684 S    
N30   O68   1.301275 A    
Cu3   N4    1.987462 S    
C2    N2    1.360151 A    
C48   C56   1.408051 A    
N28   O64   1.301497 A    
C97   C105  1.392635 A    
C103  C111  1.392629 A    
O11   Cu3   1.944665 S    
N46   O99   1.300861 A    
C36   C60   1.420261 A    
N6    C113  1.436029 S    
C63   C67   1.397128 A    
C159  N47   1.442013 S    
C1    C153  1.410424 A    
C60   C72   1.397154 A    
C149  N37   1.433354 S    
C40   C64   1.420246 A    
C57   C69   1.397149 A    
C81   C89   1.418400 A    
C78   C86   1.400049 A    
N37   O81   1.300854 A    
O3    Cu1   1.944665 S    
C126  N14   1.368056 A    
C23   C55   1.400915 A    
N22   O51   1.301366 A    
C134  C142  1.418235 A    
C15   C93   1.472671 S    
O12   C13   1.286056 A    
C19   C51   1.400903 A    
C37   C45   1.417411 A    
N47   O101  1.300860 A    
C43   C51   1.408051 A    
C39   C47   1.417409 A    
O4    C9    1.286053 A    
C156  N44   1.442020 S    
N31   O70   1.301502 A    
C130  O38   1.347926 S    
N21   O49   1.301369 A    
C106  H34   1.082862 S    
C108  H36   1.082858 S    
N5    C114  1.436024 S    
C23   O23   1.349938 S    
C102  C110  1.392629 A    
N5    C25   1.369117 A    
N34   O75   1.300865 A    
C76   C84   1.400053 A    
C87   N31   1.436662 S    
C58   C70   1.397149 A    
N36   O80   1.301030 A    
N8    C28   1.369100 A    
C27   C35   1.413532 A    
O5    C11   1.287976 A    
N9    C29   1.369118 A    
O6    C12   1.286058 A    
C42   C45   1.414820 A    
N11   C31   1.369109 A    
C111  H39   1.082856 S    
N12   C32   1.369123 A    
C73   C81   1.400044 A    
C7    H15   1.081392 S    
C20   N8    1.366194 A    
C87   C95   1.418395 A    
C78   H30   1.083360 S    
C21   N9    1.366224 A    
N25   O57   1.301493 A    
C125  C135  1.423888 A    
N33   O74   1.301033 A    
C133  C145  1.418706 A    
C100  C108  1.392630 A    
C101  C109  1.392637 A    
N26   O59   1.301493 A    
N39   O86   1.301036 A    
C74   H26   1.083361 S    
C25   O25   1.348281 S    
C103  H7    1.083418 S    
C136  C148  1.418712 A    
C8    H16   1.081392 S    
C31   O31   1.348297 S    
C66   H18   1.083694 S    
C140  C144  1.418229 A    
N29   O65   1.301494 A    
C135  C147  1.418714 A    
C129  C139  1.423884 A    
C18   N6    1.366223 A    
C24   O24   1.349928 S    
C128  N14   1.368048 A    
C28   O28   1.348279 S    
C35   C43   1.417408 A    
C61   C65   1.397149 A    
O15   Cu4   1.944665 S    
C99   H3    1.083422 S    
C111  C119  1.398323 A    
C75   H27   1.083360 S    
C112  C120  1.398306 A    
C108  C116  1.398321 A    
N20   O47   1.301167 A    
C76   H28   1.083358 S    
C121  N14   1.455701 S    
Cu4   N3    1.987462 S    
C124  N15   1.455701 S    
C6    C158  1.410423 A    
C36   C44   1.417408 A    
C109  H37   1.082858 S    
C150  N38   1.433356 S    
C132  N16   1.368042 A    
N25   O58   1.301276 A    
N24   O55   1.301128 A    
C40   C48   1.417408 A    
C99   C107  1.392606 A    
C90   C98   1.405567 A    
C128  C134  1.423884 A    
C64   C68   1.397146 A    
C124  C158  1.420066 A    
N18   O43   1.301363 A    
C123  C159  1.420058 A    
C138  C150  1.418706 A    
N11   C120  1.435937 S    
C83   C91   1.418354 A    
N7    C27   1.369120 A    
N38   O84   1.301035 A    
N48   O103  1.300857 A    
N27   O61   1.301308 A    
C26   O26   1.348280 S    
C125  O33   1.347930 S    
C121  C153  1.420069 A    
C53   C70   1.400695 A    
C73   H25   1.083359 S    
Cu2   N1    1.987462 S    
Cu3   Cu4   2.645358 S    
C44   C52   1.408079 A    
C34   C58   1.420242 A    
C98   C106  1.392628 A    
C11   C89   1.472655 S    
N40   O88   1.301036 A    
C4    H12   1.081393 S    
C89   C97   1.405568 A    
N7    C116  1.436028 S    
C9    C91   1.472499 S    
C86   N30   1.436674 S    
C10   C92   1.472658 S    
C80   C88   1.399923 A    
N44   O96   1.301619 A    
C128  O36   1.347939 S    
C38   C46   1.417410 A    
C49   C66   1.400694 A    
C62   C66   1.397148 A    
C77   C85   1.400044 A    
N19   O45   1.301131 A    
C13   C95   1.472654 S    
C149  C152  1.407692 A    
C14   C96   1.472960 S    
C17   N5    1.366221 A    
C151  N39   1.433348 S    
C125  N13   1.368055 A    
C5    H13   1.081392 S    
O11   C14   1.288125 A    
C24   C56   1.400902 A    
N45   O98   1.301612 A    
C107  C115  1.398289 A    
N41   O90   1.301615 A    
N35   O77   1.300865 A    
C139  C143  1.418231 A    
C130  C140  1.423888 A    
N32   O72   1.301545 A    
C42   C50   1.408051 A    
C83   N27   1.436692 S    
C104  C112  1.392613 A    
C129  N15   1.368055 A    
C132  O40   1.347936 S    
C79   C119  1.399357 A    
C80   C120  1.399253 A    
C29   O29   1.348279 S    
N6    C26   1.369120 A    
C57   N17   1.434143 S    
C12   C90   1.472645 S    
N42   O92   1.301618 A    
N31   O69   1.301292 A    
C1    H9    1.081400 S    
N10   C30   1.369116 A    
C124  C160  1.420067 A    
C123  C157  1.420061 A    
C86   C94   1.418403 A    
N43   O93   1.300861 A    
C106  C114  1.398315 A    
C17   C49   1.400902 A    
C22   N10   1.366223 A    
C35   C59   1.420247 A    
C3    C155  1.410424 A    
C19   O19   1.349925 S    
C121  C155  1.420062 A    
C160  N48   1.442014 S    
C147  N35   1.433340 S    
C50   C65   1.400695 A    
C157  N45   1.442012 S    
N22   O52   1.301125 A    
C69   H21   1.083693 S    
C102  H6    1.083420 S    
C75   C83   1.400079 A    
C146  C147  1.407679 A    
C52   C67   1.400677 A    
O13   C15   1.287987 A    
O14   C16   1.286061 A    
C20   C52   1.400882 A    
C145  N33   1.433345 S    
N47   O102  1.301609 A    
C84   C92   1.418403 A    
C85   C93   1.418410 A    
C94   C102  1.405571 A    
N39   O85   1.300855 A    
C88   C96   1.418449 A    
C19   N7    1.366225 A    
C127  C133  1.423888 A    
N34   O76   1.301034 A    
C82   N26   1.436677 S    
C2    C154  1.410423 A    
C30   O30   1.348280 S    
O1    Cu1   1.944692 S    
C55   C72   1.400685 A    
C154  N42   1.442020 S    
C28   C36   1.413550 A    
C96   C104  1.405664 A    
O9    Cu3   1.944692 S    
O8    C11   1.286056 A    
O10   Cu4   1.944692 S    
C100  H4    1.083417 S    
C101  H5    1.083415 S    
C75   C115  1.399339 A    
C34   C42   1.417407 A    
C73   C113  1.399357 A    
C143  C144  1.429423 A    
C104  H8    1.083375 S    
C110  H38   1.082861 S    
N27   O62   1.301493 A    
C141  C142  1.429429 A    
C18   C50   1.400903 A    
C77   C117  1.399354 A    
C92   C100  1.405568 A    
C93   C101  1.405577 A    
C131  O39   1.347937 S    
N33   O73   1.300864 A    
C91   C99   1.405524 A    
C140  C152  1.418717 A    
C129  O37   1.347928 S    
C131  C137  1.423887 A    
N10   C117  1.436024 S    
N30   O67   1.301493 A    
N26   O60   1.301274 A    
N28   O63   1.301275 A    
C109  C117  1.398316 A    
C33   C41   1.417412 A    
C80   H32   1.083356 S    
N29   O66   1.301277 A    
C26   C34   1.413529 A    
C84   N28   1.436671 S    
C123  N16   1.455701 S    
N19   O46   1.301365 A    
C76   C116  1.399360 A    
C41   C46   1.414817 A    
C81   N25   1.436674 S    
O12   Cu4   1.944665 S    
C43   C48   1.414819 A    
C131  N15   1.368042 A    
O9    C13   1.287977 A    
C107  H35   1.082854 S    
C46   C54   1.408047 A    
O1    C9    1.287894 A    
C122  C156  1.420067 A    
N8    C115  1.435928 S    
N46   O100  1.301613 A    
C88   N32   1.436368 S    
N9    C118  1.436029 S    
C146  N34   1.433355 S    
C20   O20   1.349930 S    
C134  C146  1.418704 A    
O4    Cu2   1.944665 S    
N21   O50   1.301122 A    
N12   C119  1.436024 S    
O13   Cu4   1.944689 S    
O14   Cu3   1.944684 S    
N37   O82   1.301034 A    
C21   C53   1.400905 A    
N36   O79   1.300869 A    
C158  N46   1.442015 S    
C4    N2    1.360141 A    
C5    N3    1.360146 A    
C6    N4    1.360144 A    
O5    Cu2   1.944689 S    
N18   O44   1.301127 A    
Cu1   Cu2   2.645358 S    
C1    N1    1.360139 A    
C64   N24   1.434142 S    
N43   O94   1.301618 A    
C59   N19   1.434142 S    
N48   O104  1.301615 A    
N17   O42   1.301120 A    
C126  C136  1.423886 A    
C136  C142  1.418225 A    
N23   O53   1.301148 A    
C63   N23   1.434096 S    
N24   O56   1.301369 A    
C56   C71   1.400697 A    
C23   N11   1.366201 A    
C145  C148  1.407680 A    
C29   C37   1.413534 A    
C97   H1    1.083415 S    
C24   N12   1.366226 A    
C112  H40   1.082823 S    
C148  N36   1.433348 S    
C72   H24   1.083709 S    
C7    C159  1.410414 A    
C5    C157  1.410420 A    
C58   N18   1.434143 S    
C105  C113  1.398318 A    
C8    C160  1.410420 A    
C7    N3    1.360152 A    
C8    N4    1.360140 A    
C137  C143  1.418243 A    
C139  C151  1.418716 A    
O8    Cu1   1.944670 S    
C32   C40   1.413530 A    
C130  N16   1.368051 A    
C79   C87   1.400046 A    
C137  C149  1.418708 A    
C45   C53   1.408047 A    
C27   O27   1.348281 S    
C150  C151  1.407690 A    
C70   H22   1.083693 S    
C126  O34   1.347930 S    
C122  C154  1.420068 A    
N45   O97   1.300860 A    
N17   O41   1.301367 A    
C54   C69   1.400695 A    
C3    H11   1.081401 S    
C74   C82   1.400051 A    
C22   C54   1.400907 A    
