data_mof_unit_38151.cif
_audit_creation_date              2012-12-10T18:43:08-0500
_audit_creation_method            fapswitch 2.2
_symmetry_space_group_name_H-M    P1
_symmetry_Int_Tables_number       1
_space_group_crystal_system       triclinic
_cell_length_a                    18.115393
_cell_length_b                    18.105126
_cell_length_c                    18.069441
_cell_angle_alpha                 120.027045
_cell_angle_beta                  90.067121
_cell_angle_gamma                 59.897155
_cell_volume                      4184.8471553

loop_
_atom_site_label
_atom_site_type_symbol
_atom_type_description
_atom_site_fract_x
_atom_site_fract_y
_atom_site_fract_z
_atom_type_partial_charge
C1    C     C_R   0.891628 0.216652 0.608239 0.502486
C2    C     C_3   0.550683 0.897904 0.949054 0.066130
C3    C     C_3   0.447687 0.035050 0.078476 -0.126269
C4    C     C_3   0.552250 0.964947 0.921782 -0.124130
C5    C     C_3   0.988974 0.423511 0.446038 -0.133503
C6    C     C_3   0.011393 0.576288 0.553953 -0.144970
C7    C     C_3   0.081504 0.405470 0.451325 -0.157544
C8    C     C_3   0.918646 0.594625 0.548908 -0.167261
C9    C     C_3   0.051078 0.500531 0.449327 0.038923
C10   C     C_3   0.949073 0.499288 0.550694 0.040327
C11   C     C_3   0.959686 0.518493 0.444523 0.281350
C12   C     C_R   0.108352 0.783353 0.391759 0.502462
C13   C     C_3   0.040220 0.481440 0.555380 0.275567
C14   C     C_3   0.983097 0.033858 0.446569 -0.106986
C15   C     C_3   0.016844 0.966165 0.553411 -0.106528
C16   C     C_R   0.608303 0.783254 0.891652 0.503640
C17   C     C_R   0.391690 0.216742 0.108436 0.504008
C18   C     C_3   0.956848 0.965065 0.447451 -0.124421
C19   C     C_3   0.043096 0.034953 0.552524 -0.124123
C20   C     C_3   0.051032 0.897947 0.449332 0.066600
C21   C     C_3   0.948915 0.102069 0.550648 0.066437
C22   C     C_3   0.078174 0.964951 0.447617 -0.124891
C23   C     C_3   0.517974 0.404112 0.447157 -0.124421
C24   C     C_3   0.921765 0.035071 0.552360 -0.124951
C25   C     C_3   0.983233 0.429683 0.983050 -0.105290
C26   C     C_3   0.016833 0.570253 0.016882 -0.105888
C27   C     C_3   0.956905 0.525867 0.078307 -0.121535
C28   C     C_3   0.043160 0.474068 0.921624 -0.122277
C29   C     C_3   0.051048 0.500429 0.051027 0.064436
C30   C     C_3   0.949013 0.499511 0.948910 0.064323
C31   C     C_3   0.078270 0.404307 0.956660 -0.127192
C32   C     C_3   0.921797 0.595630 0.043274 -0.127194
C33   C     C_3   0.585622 0.436251 0.988852 0.206446
C34   C     C_3   0.481987 0.595831 0.552830 -0.124577
C35   C     C_3   0.414338 0.564310 0.011554 0.206830
C36   C     C_3   0.521378 0.404209 0.959476 0.244339
C37   C     C_3   0.478567 0.596425 0.040934 0.236963
C38   C     C_3   0.448233 0.500688 0.051888 0.038311
C39   C     C_3   0.551713 0.499805 0.948503 0.039050
C40   C     C_R   0.608579 0.500189 0.891769 0.545130
C41   C     C_R   0.391420 0.499937 0.108336 0.544993
C42   C     C_3   0.513440 0.533134 0.082405 -0.190375
C43   C     C_3   0.486540 0.467411 0.918037 -0.183606
C44   C     C_R   0.892076 0.499416 0.608257 0.529485
C45   C     C_3   0.446780 0.966077 0.983222 -0.106675
C46   C     C_R   0.108042 0.500459 0.391750 0.529516
C47   C     C_R   0.891692 0.499800 0.891599 0.508216
C48   C     C_R   0.108331 0.500177 0.108378 0.507919
C49   C     C_R   0.608447 0.499948 0.608214 0.500004
C50   C     C_R   0.391544 0.500036 0.391781 0.499015
C51   C     C_3   0.587159 0.430161 0.446503 -0.109996
C52   C     C_3   0.412799 0.569790 0.553483 -0.107979
C53   C     C_3   0.516708 0.526451 0.447937 -0.129299
C54   C     C_3   0.483220 0.473503 0.552061 -0.126436
C55   C     C_3   0.448508 0.500333 0.449413 0.068621
C56   C     C_3   0.553169 0.033904 0.017029 -0.104842
C57   C     C_3   0.551457 0.499610 0.550586 0.068734
C58   C     C_3   0.608625 0.230358 0.834775 0.024736
C59   C     C_3   0.566198 0.195596 0.762889 -0.272060
C60   C     C_3   0.636150 0.115296 0.667770 -0.494145
C61   C     C_3   0.398489 0.767004 0.167348 0.014860
C62   C     C_3   0.366361 0.877714 0.201134 -0.253150
C63   C     C_3   0.300949 0.957848 0.298513 -0.492546
C64   C     C_3   0.830878 0.581967 0.403499 0.008528
C65   C     C_3   0.806715 0.505950 0.386333 -0.270716
C66   C     C_3   0.707183 0.553269 0.394879 -0.482494
C67   C     C_3   0.447531 0.034896 0.956830 -0.123982
C68   C     C_3   0.162738 0.448266 0.607689 0.011243
C69   C     C_3   0.238056 0.335378 0.571845 -0.262290
C70   C     C_3   0.330456 0.317177 0.562767 -0.490521
C71   C     C_3   0.552415 0.965083 0.043419 -0.125242
C72   C     C_3   0.449270 0.102087 0.051186 0.067070
H1    H     H_    0.528934 0.548321 0.404194 0.105207
H2    H     H_    0.077391 0.452838 0.856338 0.123225
H3    H     H_    0.968561 0.371987 0.968287 0.137726
H4    H     H_    0.031506 0.627948 0.031645 0.137276
H5    H     H_    0.143470 0.325952 0.922284 0.111114
H6    H     H_    0.856598 0.673986 0.077649 0.111356
H7    H     H_    0.524345 0.558365 0.148900 0.101233
H8    H     H_    0.475987 0.441955 0.851399 0.102883
H9    H     H_    0.659611 0.372916 0.403499 0.123283
H10   H     H_    0.340348 0.627061 0.596490 0.125006
H11   H     H_    0.531541 0.325621 0.402815 0.107045
H12   H     H_    0.470567 0.451771 0.595759 0.105907
H13   H     H_    0.468454 0.674307 0.597139 0.106964
H14   H     H_    0.403479 0.065688 0.922459 0.110161
H15   H     H_    0.596463 0.934280 0.077786 0.110027
H16   H     H_    0.403984 0.936481 0.968502 0.130809
H17   H     H_    0.595970 0.063492 0.031771 0.132441
H18   H     H_    0.403782 0.065879 0.143731 0.106366
H19   H     H_    0.596164 0.934063 0.856510 0.108663
H20   H     H_    0.149024 0.329374 0.411407 0.100677
H21   H     H_    0.851851 0.671365 0.591135 0.096566
H22   H     H_    0.978989 0.361402 0.402802 0.123265
H23   H     H_    0.922634 0.934217 0.403315 0.110745
H24   H     H_    0.022842 0.637122 0.596996 0.125512
H25   H     H_    0.661832 0.161213 0.832414 0.155878
H26   H     H_    0.643575 0.258870 0.817829 0.149503
H27   H     H_    0.536876 0.160641 0.776467 0.173460
H28   H     H_    0.510770 0.264486 0.766344 0.161907
H29   H     H_    0.664887 0.149475 0.652026 0.142872
H30   H     H_    0.603406 0.091339 0.617288 0.145021
H31   H     H_    0.691711 0.044863 0.662225 0.147072
H32   H     H_    0.434126 0.747226 0.211637 0.121911
H33   H     H_    0.338067 0.765350 0.172097 0.171578
H34   H     H_    0.077303 0.065810 0.596664 0.110529
H35   H     H_    0.425747 0.881173 0.197888 0.169801
H36   H     H_    0.331824 0.897856 0.156588 0.177623
H37   H     H_    0.240094 0.957276 0.302974 0.150020
H38   H     H_    0.279118 0.037238 0.320991 0.145350
H39   H     H_    0.334490 0.940155 0.344548 0.141773
H40   H     H_    0.676819 0.337888 0.007660 0.331764
H41   H     H_    0.323145 0.662692 0.992761 0.332460
H42   H     H_    0.806790 0.609962 0.360182 0.153833
H43   H     H_    0.794023 0.652953 0.474508 0.111001
H44   H     H_    0.849386 0.432443 0.317215 0.179983
H45   H     H_    0.968367 0.063422 0.403606 0.127894
H46   H     H_    0.819409 0.486991 0.436659 0.165013
H47   H     H_    0.663224 0.625958 0.464100 0.141781
H48   H     H_    0.692269 0.496402 0.382527 0.151101
H49   H     H_    0.691746 0.571352 0.344144 0.146981
H50   H     H_    0.161324 0.501499 0.675873 0.152566
H51   H     H_    0.178840 0.467714 0.563045 0.118808
H52   H     H_    0.224638 0.317793 0.618994 0.172198
H53   H     H_    0.239045 0.281111 0.504423 0.156241
H54   H     H_    0.346094 0.332267 0.514435 0.145100
H55   H     H_    0.383516 0.234765 0.536880 0.142858
H56   H     H_    0.031587 0.936603 0.596374 0.128166
H57   H     H_    0.331572 0.369482 0.629751 0.147502
H58   H     H_    0.143332 0.934038 0.403616 0.105029
H59   H     H_    0.856585 0.066002 0.596346 0.106789
H60   H     H_    0.922681 0.547086 0.143588 0.123131
O1    O     O_3   0.750010 0.499980 0.749990 -0.449382
O2    O     O_R   0.305750 0.265450 0.132730 -0.547589
O3    O     O_R   0.867280 0.265410 0.571220 -0.549456
O4    O     O_R   0.132720 0.734590 0.428780 -0.549541
O5    O     O_R   0.571230 0.734580 0.867270 -0.542062
O6    O     O_R   0.428770 0.265420 0.132730 -0.541578
O7    O     O_R   0.694200 0.438470 0.867270 -0.500915
O8    O     O_R   0.305800 0.561530 0.132730 -0.500664
O9    O     O_R   0.867340 0.561470 0.694210 -0.514134
O10   O     O_R   0.132660 0.438530 0.305790 -0.512485
O11   O     O_R   0.867310 0.438430 0.867270 -0.540945
O12   O     O_3   0.249990 0.500020 0.250010 -0.449776
O13   O     O_R   0.132690 0.561570 0.132730 -0.541254
O14   O     O_R   0.694200 0.438520 0.571220 -0.553115
O15   O     O_R   0.305800 0.561480 0.428780 -0.553632
O16   O     O_R   0.867340 0.561440 0.867270 -0.536395
O17   O     O_R   0.132660 0.438560 0.132730 -0.535843
O18   O     O_R   0.571190 0.561530 0.694210 -0.547183
O19   O     O_R   0.428810 0.438470 0.305790 -0.547062
O20   O     O_3   0.542037 0.303748 0.921932 -0.556167
O21   O     O_3   0.458098 0.696560 0.077201 -0.554028
O22   O     O_3   0.676792 0.367732 0.974259 -0.676317
O23   O     O_R   0.571190 0.561490 0.867270 -0.531905
O24   O     O_3   0.323191 0.632469 0.025801 -0.678051
O25   O     O_3   0.925501 0.532524 0.378796 -0.553751
O26   O     O_3   0.078134 0.462570 0.617411 -0.554496
O27   O     O_R   0.428810 0.438510 0.132730 -0.532291
O28   O     O_R   0.867310 0.438490 0.571220 -0.563506
O29   O     O_R   0.132690 0.561510 0.428780 -0.561213
O30   O     O_R   0.867280 0.265380 0.694210 -0.541700
O31   O     O_R   0.132720 0.734620 0.305790 -0.541811
O32   O     O_R   0.694250 0.734550 0.867270 -0.547407
Zn1   Zn    Zn3+2 0.618190 0.587870 0.793920 0.937398
Zn2   Zn    Zn3+2 0.381810 0.412130 0.206080 0.937533
Zn3   Zn    Zn3+2 0.793940 0.412090 0.793920 0.959645
Zn4   Zn    Zn3+2 0.206060 0.587910 0.206080 0.958978
Zn5   Zn    Zn3+2 0.793970 0.587840 0.793920 0.949422
Zn6   Zn    Zn3+2 0.206030 0.412160 0.206080 0.949988
Zn7   Zn    Zn3+2 0.793940 0.412130 0.618200 0.913980
Zn8   Zn    Zn3+2 0.206060 0.587870 0.381800 0.914357

loop_
_geom_bond_atom_site_label_1
_geom_bond_atom_site_label_2
_ccdc_geom_bond_type
C70   H55   S    
C25   C31   S    
C59   C60   S    
C15   C19   S    
C1    C21   S    
C18   H23   S    
C47   O11   A    
C26   C29   S    
C27   C29   S    
C59   H27   S    
C14   C18   S    
C3    C71   S    
C16   O5    A    
C58   H26   S    
C28   H2    S    
C6    C9    S    
C54   H12   S    
C5    H22   S    
C46   O10   A    
C16   O32   A    
C26   C32   S    
C33   C39   S    
C23   H11   S    
C49   O18   A    
O12   Zn4   S    
C3    H18   S    
C18   C24   S    
C33   C42   S    
C14   C21   S    
C35   C37   S    
C5    C11   S    
O1    Zn3   S    
C60   H30   S    
C62   H36   S    
O8    Zn4   S    
C40   O7    A    
O12   Zn6   S    
C33   C36   S    
C49   C57   S    
C67   C72   S    
C37   C42   S    
O1    Zn5   S    
C41   O8    A    
C41   O27   A    
O29   Zn8   S    
C50   O19   A    
O4    Zn8   S    
C52   C54   S    
C68   C69   S    
C56   C72   S    
C46   O29   A    
C64   O25   S    
C45   C67   S    
C34   C57   S    
C26   H4    S    
C65   H46   S    
C40   O23   A    
C17   O6    A    
C51   C57   S    
O3    Zn7   S    
C60   H31   S    
C35   C43   S    
C51   H9    S    
C52   C55   S    
O10   Zn6   S    
C4    H19   S    
C70   H54   S    
C69   H53   S    
C9    C46   S    
C64   H43   S    
H40   O22   S    
C48   O17   A    
C22   H58   S    
C63   H39   S    
C59   H28   S    
O32   Zn5   S    
C61   C62   S    
C58   H25   S    
C68   O26   S    
C68   H51   S    
O5    Zn1   S    
C58   O20   S    
C31   H5    S    
C53   C55   S    
C2    C45   S    
C15   C20   S    
C64   H42   S    
C29   C48   S    
C10   C44   S    
O17   Zn6   S    
C37   O21   S    
C30   C47   S    
C61   H32   S    
C35   O24   S    
C38   C41   S    
C68   H50   S    
C39   C40   S    
C5    C7    S    
C33   O22   S    
C36   O20   S    
C39   C43   S    
C62   H35   S    
C69   H52   S    
C43   H8    S    
O18   Zn1   S    
C3    C45   S    
C70   H57   S    
O12   Zn2   S    
C25   H3    S    
C34   H13   S    
C63   H37   S    
C2    C4    S    
C19   H34   S    
C50   O15   A    
C62   C63   S    
O1    Zn1   S    
C23   C51   S    
C7    C13   S    
C14   H45   S    
C48   O13   A    
C12   C20   S    
O9    Zn5   S    
O16   Zn5   S    
C66   H49   S    
O7    Zn3   S    
C9    C11   S    
O11   Zn3   S    
C34   C53   S    
C71   H15   S    
C45   H16   S    
C6    C8    S    
C8    C10   S    
C56   H17   S    
C52   H10   S    
C20   C22   S    
C1    O30   A    
C65   C66   S    
C6    H24   S    
C66   H47   S    
C12   O4    A    
C44   O28   A    
C65   H44   S    
H41   O24   S    
C2    C71   S    
C13   O26   S    
C61   H33   S    
O15   Zn8   S    
C11   O25   S    
C23   C54   S    
C44   O9    A    
C25   C30   S    
C7    C9    S    
C47   O16   A    
C15   C24   S    
C67   H14   S    
C19   C21   S    
C27   C32   S    
C34   C52   S    
C28   C31   S    
C53   H1    S    
C8    H21   S    
C10   C13   S    
C61   O21   S    
C4    C67   S    
C27   H60   S    
C23   C55   S    
C2    C16   S    
C25   C27   S    
O19   Zn2   S    
O12   Zn8   S    
C26   C28   S    
C50   C55   S    
O27   Zn2   S    
O6    Zn2   S    
C64   C65   S    
C14   C22   S    
C63   H38   S    
C28   C30   S    
O31   Zn4   S    
C58   C59   S    
C5    C10   S    
C29   C31   S    
C1    O3    A    
C12   O31   A    
C30   C32   S    
C24   H59   S    
C15   H56   S    
O23   Zn1   S    
C8    C11   S    
C7    H20   S    
C36   C38   S    
O28   Zn7   S    
C49   O14   A    
C3    C72   S    
C18   C20   S    
O1    Zn7   S    
C69   C70   S    
C32   H6    S    
O30   Zn3   S    
C38   C42   S    
C42   H7    S    
C17   C72   S    
C37   C39   S    
C19   C22   S    
O2    Zn6   S    
C21   C24   S    
C17   O2    A    
C35   C38   S    
C36   C43   S    
C66   H48   S    
C51   C53   S    
O14   Zn7   S    
C54   C57   S    
C4    C56   S    
C60   H29   S    
C56   C71   S    
C6    C13   S    
O13   Zn4   S    
