data_mof_unit_62691.cif
_audit_creation_date              2013-03-05T15:47:54-0500
_audit_creation_method            fapswitch 2.2
_symmetry_space_group_name_H-M    P1
_symmetry_Int_Tables_number       1
_space_group_crystal_system       triclinic
_cell_length_a                    27.943099
_cell_length_b                    22.229324
_cell_length_c                    20.801556
_cell_angle_alpha                 89.993974
_cell_angle_beta                  52.72318
_cell_angle_gamma                 89.84869
_cell_volume                      10281.438113

loop_
_atom_site_label
_atom_site_type_symbol
_atom_site_description
_atom_site_fract_x
_atom_site_fract_y
_atom_site_fract_z
_atom_type_partial_charge
C1    C     C_R   0.925576 0.581912 0.729048 -0.138569
C2    C     C_R   0.899705 0.435090 0.736075 -0.117121
C3    C     C_R   0.397169 0.063416 0.735308 -0.119295
C4    C     C_R   0.425116 0.918618 0.729527 -0.139910
H1    H     H_    0.930689 0.561424 0.771754 0.106295
H2    H     H_    0.890076 0.463467 0.784820 0.112674
H3    H     H_    0.387066 0.035352 0.784489 0.113221
H4    H     H_    0.429627 0.939552 0.772546 0.106841
N1    N     N_R   0.945170 0.558260 0.657960 -0.044251
N2    N     N_R   0.945170 0.441740 0.657960 -0.045956
N3    N     N_R   0.445170 0.058260 0.657960 -0.046244
N4    N     N_R   0.445170 0.941740 0.657960 -0.043511
C5    C     C_R   0.885177 0.428604 0.453018 0.343743
C6    C     C_R   0.914598 0.587800 0.412742 0.413320
C7    C     C_R   0.381410 0.931140 0.460743 0.348270
C8    C     C_R   0.412041 0.087152 0.415234 0.402122
N5    N     N_R   0.933380 0.440900 0.450980 -0.080541
N6    N     N_R   0.933380 0.559100 0.450980 -0.087577
N7    N     N_R   0.433380 0.940900 0.450980 -0.080446
N8    N     N_R   0.433380 0.059100 0.450980 -0.087367
C9    C     C_R   0.909979 0.651857 0.497041 -0.182027
C10   C     C_R   0.892495 0.358394 0.521599 -0.190798
C11   C     C_R   0.410349 0.152040 0.496138 -0.208417
C12   C     C_R   0.387053 0.864160 0.534364 -0.181997
H5    H     H_    0.912350 0.694278 0.520446 0.130368
H6    H     H_    0.887380 0.316148 0.550292 0.128685
H7    H     H_    0.414705 0.195072 0.516365 0.130538
H8    H     H_    0.377822 0.826984 0.573663 0.137244
N9    N     N_R   0.935930 0.600780 0.495700 -0.063029
N10   N     N_R   0.935930 0.399220 0.495700 -0.059740
N11   N     N_R   0.435930 0.100780 0.495700 -0.061319
N12   N     N_R   0.435930 0.899220 0.495700 -0.062294
C13   C     C_R   0.897180 0.361435 0.665010 -0.105453
C14   C     C_R   0.920444 0.652101 0.656826 -0.089015
C15   C     C_R   0.421234 0.847904 0.657174 -0.111128
C16   C     C_R   0.392931 0.134732 0.662867 -0.104465
H9    H     H_    0.886521 0.319292 0.651130 0.105048
H10   H     H_    0.920456 0.695673 0.633658 0.104645
H11   H     H_    0.422459 0.803862 0.634115 0.106290
H12   H     H_    0.378748 0.172796 0.645947 0.113799
N13   N     N_R   0.942620 0.398370 0.613240 -0.044238
N14   N     N_R   0.942620 0.601630 0.613240 -0.045109
N15   N     N_R   0.442620 0.898370 0.613240 -0.044668
N16   N     N_R   0.442620 0.101630 0.613240 -0.045741
C17   C     C_R   0.909917 0.640470 0.729146 0.106174
C18   C     C_R   0.868231 0.385780 0.740993 0.084829
C19   C     C_R   0.363286 0.110395 0.739049 0.083985
C20   C     C_R   0.409428 0.860086 0.730233 0.107954
C21   C     C_R   0.858208 0.378254 0.499191 -0.012836
C22   C     C_R   0.895265 0.644296 0.445729 -0.029935
C23   C     C_R   0.351333 0.884743 0.514710 -0.019745
C24   C     C_R   0.393221 0.143847 0.447632 -0.013837
C25   C     C_R   0.115274 0.434358 0.542136 -0.122017
C26   C     C_R   0.094764 0.580015 0.575224 -0.143347
C27   C     C_R   0.611438 0.931373 0.549928 -0.126496
C28   C     C_R   0.595636 0.079684 0.573962 -0.135964
H13   H     H_    0.129108 0.461505 0.571277 0.108885
H14   H     H_    0.095705 0.559548 0.621628 0.104869
H15   H     H_    0.624007 0.958264 0.580784 0.107405
H16   H     H_    0.596608 0.059517 0.620486 0.105992
N17   N     N_R   0.064810 0.441760 0.549020 -0.045448
N18   N     N_R   0.064810 0.558240 0.549020 -0.042478
N19   N     N_R   0.564810 0.941760 0.549020 -0.044236
N20   N     N_R   0.564810 0.058240 0.549020 -0.043664
C29   C     C_R   0.101175 0.560969 0.264755 -0.065809
C30   C     C_R   0.071184 0.420959 0.271283 -0.135520
C31   C     C_R   0.574371 0.078257 0.269740 -0.111907
C32   C     C_R   0.598935 0.937112 0.264047 -0.103467
N21   N     N_R   0.053030 0.555470 0.342040 -0.040946
N22   N     N_R   0.053030 0.444530 0.342040 -0.045299
N23   N     N_R   0.553030 0.055470 0.342040 -0.046054
N24   N     N_R   0.553030 0.944530 0.342040 -0.041321
C33   C     C_R   0.090165 0.650308 0.503408 -0.114029
C34   C     C_R   0.111590 0.364309 0.468215 -0.095153
C35   C     C_R   0.591734 0.149689 0.500807 -0.093505
C36   C     C_R   0.606323 0.858987 0.480203 -0.105075
H17   H     H_    0.086897 0.694401 0.484329 0.125777
H18   H     H_    0.122136 0.326695 0.428660 0.127123
H19   H     H_    0.589612 0.193441 0.479832 0.126861
H20   H     H_    0.613081 0.816678 0.450515 0.118027
N25   N     N_R   0.062260 0.600860 0.504300 -0.050033
N26   N     N_R   0.062260 0.399140 0.504300 -0.050417
N27   N     N_R   0.562260 0.100860 0.504300 -0.049398
N28   N     N_R   0.562260 0.899140 0.504300 -0.049110
C37   C     C_R   0.075394 0.346676 0.341481 -0.112871
C38   C     C_R   0.105476 0.635392 0.335885 -0.097945
C39   C     C_R   0.602268 0.861103 0.333955 -0.101928
C40   C     C_R   0.577301 0.152761 0.341105 -0.114227
H21   H     H_    0.074722 0.302008 0.362673 0.128634
H22   H     H_    0.120183 0.673773 0.351536 0.132584
H23   H     H_    0.614724 0.819554 0.346934 0.124944
H24   H     H_    0.576809 0.197364 0.362325 0.127783
N29   N     N_R   0.055570 0.396370 0.386760 -0.052511
N30   N     N_R   0.055570 0.603630 0.386760 -0.054597
N31   N     N_R   0.555570 0.896370 0.386760 -0.051860
N32   N     N_R   0.555570 0.103630 0.386760 -0.050853
Ni1   Ni    Ni4+2 0.004930 0.500000 0.602560 0.217731
Ni2   Ni    Ni4+2 0.504930 0.000000 0.602560 0.217259
Ni3   Ni    Ni4+2 0.993260 0.500000 0.397440 0.280589
Ni4   Ni    Ni4+2 0.493260 0.000000 0.397440 0.280408
Ni5   Ni    Ni4+2 0.999100 0.599910 0.500000 0.218231
Ni6   Ni    Ni4+2 0.999100 0.400090 0.500000 0.223461
Ni7   Ni    Ni4+2 0.499100 0.099910 0.500000 0.217530
Ni8   Ni    Ni4+2 0.499100 0.900090 0.500000 0.222755
C41   C     C_R   0.145957 0.386550 0.490455 0.072022
C42   C     C_R   0.111903 0.637537 0.546385 0.088780
C43   C     C_R   0.639126 0.880226 0.505277 0.076445
C44   C     C_R   0.613467 0.136845 0.543823 0.079188
C45   C     C_R   0.134596 0.608850 0.260605 0.063884
C46   C     C_R   0.085678 0.361314 0.269742 0.082170
C47   C     C_R   0.589084 0.137645 0.268656 0.078895
C48   C     C_R   0.630718 0.887337 0.258917 0.075587
C49   C     C_3   0.706703 0.253451 0.931090 0.214988
C50   C     C_3   0.786509 0.785127 0.918200 0.221096
C51   C     C_3   0.292858 0.705894 0.915196 0.219761
C52   C     C_3   0.193703 0.238387 0.934962 0.221189
C53   C     C_3   0.296059 0.791895 0.993231 -0.417845
C54   C     C_3   0.182216 0.146385 0.016257 -0.414086
C55   C     C_3   0.680999 0.349625 0.012994 -0.413867
C56   C     C_3   0.806363 0.708334 0.990434 -0.422871
C57   C     C_3   0.254949 0.755503 0.071802 0.211107
C58   C     C_3   0.140174 0.183300 0.095490 0.212260
C59   C     C_3   0.637767 0.313064 0.091968 0.211348
C60   C     C_3   0.763270 0.743454 0.069839 0.213231
H25   H     H_    0.326284 0.821714 0.996864 0.206194
H26   H     H_    0.207076 0.111494 0.023793 0.206834
H27   H     H_    0.700205 0.388439 0.024077 0.206695
H28   H     H_    0.842067 0.685530 0.989989 0.206566
H29   H     H_    0.655564 0.368651 0.992363 0.199662
H30   H     H_    0.780981 0.672208 0.985989 0.195819
H31   H     H_    0.267973 0.821898 0.985425 0.196847
H32   H     H_    0.154852 0.122112 0.002152 0.198559
H33   H     H_    0.207291 0.765129 0.097506 0.124413
H34   H     H_    0.093145 0.179379 0.115961 0.119944
H35   H     H_    0.592602 0.311624 0.105710 0.125762
H36   H     H_    0.716677 0.726923 0.099369 0.119204
C61   C     C_1   0.186880 0.631327 0.188677 0.015660
C62   C     C_1   0.103352 0.320401 0.207201 0.016538
C63   C     C_1   0.606232 0.178481 0.206844 0.027522
C64   C     C_1   0.682928 0.865111 0.187079 0.012677
C65   C     C_3   0.732758 0.308403 0.946786 0.212674
C66   C     C_3   0.835851 0.751595 0.917368 0.206326
C67   C     C_3   0.334461 0.748876 0.920038 0.208362
C68   C     C_3   0.227778 0.188850 0.945735 0.206657
C69   C     C_3   0.663759 0.217991 0.010656 -0.518375
C70   C     C_3   0.745449 0.820755 0.997557 -0.532848
C71   C     C_3   0.253226 0.669517 0.994227 -0.527371
C72   C     C_3   0.151946 0.274384 0.014858 -0.527017
C73   C     C_3   0.267409 0.687049 0.053176 0.204222
C74   C     C_3   0.158878 0.250773 0.078980 0.201991
C75   C     C_3   0.662010 0.247607 0.079503 0.201320
C76   C     C_3   0.766018 0.811665 0.051307 0.201959
C77   C     C_3   0.334707 0.673287 0.011665 -0.342998
C78   C     C_3   0.225613 0.257005 0.044825 -0.343212
C79   C     C_3   0.726667 0.248495 0.054568 -0.353389
C80   C     C_3   0.831516 0.834741 0.004504 -0.340240
C81   C     C_3   0.768043 0.285152 0.977241 -0.461570
C82   C     C_3   0.873292 0.798668 0.924532 -0.453324
C83   C     C_3   0.374688 0.710482 0.932551 -0.456043
C84   C     C_3   0.265944 0.219754 0.967388 -0.462583
C85   C     C_1   0.226965 0.653924 0.127153 -0.014562
C86   C     C_1   0.124078 0.287363 0.151173 -0.008957
C87   C     C_1   0.626653 0.211503 0.151298 -0.002187
C88   C     C_1   0.723948 0.843501 0.125577 -0.010899
C89   C     C_1   0.775513 0.340338 0.873083 -0.007893
C90   C     C_1   0.871976 0.716500 0.844555 -0.025518
C91   C     C_1   0.369460 0.784816 0.847571 -0.027338
C92   C     C_1   0.269714 0.156232 0.871432 -0.004446
C93   C     C_1   0.816491 0.362519 0.812250 -0.002100
C94   C     C_1   0.892848 0.683027 0.789252 0.016695
C95   C     C_1   0.390751 0.818101 0.791859 0.012547
C96   C     C_1   0.310526 0.133544 0.810254 0.000244
H37   H     H_    0.806609 0.256441 0.930422 0.171843
H38   H     H_    0.895713 0.830022 0.872232 0.177207
H39   H     H_    0.403527 0.679583 0.880319 0.173657
H40   H     H_    0.300270 0.249693 0.917264 0.172003
H41   H     H_    0.786985 0.323592 0.989525 0.203737
H42   H     H_    0.909166 0.775810 0.923654 0.205122
H43   H     H_    0.405059 0.740143 0.936074 0.202748
H44   H     H_    0.290633 0.185410 0.976158 0.205560
H45   H     H_    0.744359 0.223198 0.885976 0.105592
H46   H     H_    0.808603 0.817323 0.866759 0.108798
H47   H     H_    0.321334 0.673968 0.864072 0.107702
H48   H     H_    0.227073 0.269893 0.886558 0.105938
C97   C     C_1   0.134382 0.679631 0.573197 -0.016791
C98   C     C_1   0.202525 0.364516 0.466012 -0.009692
C99   C     C_1   0.634847 0.179270 0.571426 -0.009678
C100  C     C_1   0.693662 0.856544 0.485474 -0.011114
C101  C     C_2   0.185313 0.755676 0.610494 -0.316057
C102  C     C_2   0.301020 0.317685 0.434012 -0.315401
C103  C     C_2   0.684150 0.258150 0.607252 -0.292944
C104  C     C_2   0.792453 0.811472 0.453609 -0.329790
C105  C     C_2   0.700722 0.310021 0.567212 0.360702
C106  C     C_2   0.827827 0.775678 0.389777 0.372700
C107  C     C_2   0.195187 0.811824 0.582637 0.366952
C108  C     C_2   0.328633 0.272216 0.381653 0.369701
C109  C     C_1   0.754657 0.336295 0.546107 0.014299
C110  C     C_1   0.859485 0.730345 0.398473 0.009127
C111  C     C_1   0.247459 0.841029 0.563955 0.013869
C112  C     C_1   0.357645 0.228379 0.397457 0.011064
C113  C     C_1   0.155373 0.714374 0.593649 0.153008
C114  C     C_1   0.248886 0.345015 0.448916 0.158556
C115  C     C_1   0.654792 0.214997 0.592103 0.144974
C116  C     C_1   0.739613 0.837344 0.469656 0.159509
C117  C     C_1   0.802028 0.355064 0.525094 0.068517
C118  C     C_1   0.878689 0.691273 0.416513 0.075536
C119  C     C_1   0.294298 0.861612 0.543151 0.073367
C120  C     C_1   0.376048 0.190428 0.418286 0.074481
H49   H     H_    0.705078 0.242297 0.634380 0.145502
H50   H     H_    0.796159 0.812037 0.502747 0.135388
H51   H     H_    0.210575 0.737024 0.630080 0.140400
H52   H     H_    0.309127 0.325893 0.478221 0.134336
Br1   Br    Br    0.665959 0.276559 0.884649 -0.546096
Br2   Br    Br    0.738270 0.731529 0.903373 -0.542793
Br3   Br    Br    0.242583 0.747821 0.892904 -0.543777
Br4   Br    Br    0.148136 0.205603 0.899825 -0.533796
Br5   Br    Br    0.264410 0.782508 0.153085 -0.498323
Br6   Br    Br    0.140322 0.149308 0.182090 -0.506149
Br7   Br    Br    0.626541 0.353516 0.183730 -0.515997
Br8   Br    Br    0.781219 0.726515 0.145564 -0.457681
H53   H     H_    0.343767 0.624465 0.997280 0.165683
H54   H     H_    0.239539 0.305064 0.031198 0.163401
H55   H     H_    0.744576 0.201759 0.044014 0.163431
H56   H     H_    0.833484 0.883414 0.990595 0.164709
H57   H     H_    0.679688 0.170567 0.001487 0.174013
H58   H     H_    0.747022 0.869386 0.983466 0.174730
H59   H     H_    0.261638 0.620579 0.980035 0.174110
H60   H     H_    0.163864 0.322954 0.002893 0.176239
Br9   Br    Br    0.858714 0.466090 0.397099 -0.439733
Br10  Br    Br    0.952831 0.575648 0.299678 -0.459139
Br11  Br    Br    0.354328 0.963487 0.403046 -0.417211
Br12  Br    Br    0.443000 0.073618 0.304821 -0.473210
H61   H     H_    0.346413 0.684216 0.052754 0.213615
H62   H     H_    0.232270 0.241992 0.089964 0.217862
H63   H     H_    0.727069 0.268010 0.103517 0.214608
H64   H     H_    0.847556 0.829961 0.041817 0.219460
Br13  Br    Br    0.155078 0.846719 0.542308 -0.445965
Br14  Br    Br    0.313950 0.252428 0.305071 -0.443380
Br15  Br    Br    0.668373 0.339322 0.513625 -0.454410
Br16  Br    Br    0.821487 0.768854 0.303109 -0.403000
H65   H     H_    0.111874 0.533022 0.215176 0.111314
H66   H     H_    0.065716 0.442320 0.229360 0.135430
H67   H     H_    0.571015 0.057014 0.225889 0.145472
H68   H     H_    0.609102 0.964766 0.214621 0.107660
H69   H     H_    0.204710 0.677462 0.023419 0.220115
H70   H     H_    0.104155 0.270607 0.038497 0.217110
H71   H     H_    0.617551 0.216601 0.027807 0.222543
H72   H     H_    0.697825 0.806314 0.030760 0.217584

loop_
_geom_bond_atom_site_label_1
_geom_bond_atom_site_label_2
_geom_bond_distance
_ccdc_geom_bond_type
C103  C105  1.331587 D    
C60   Br8   1.957161 S    
C78   H54   1.114281 S    
C13   C18   1.376396 A    
C27   H15   1.080237 S    
C79   C81   1.529706 S    
C6    N6    1.348672 A    
C44   C99   1.412336 S    
C109  C117  1.191357 T    
C14   N14   1.334451 A    
C49   Br1   1.955125 S    
C52   Br4   1.954223 S    
C35   N27   1.339392 A    
C17   C94   1.400415 S    
C36   N28   1.345596 A    
C40   N32   1.329714 A    
C19   C96   1.408249 S    
C51   C71   1.543396 S    
C47   C63   1.400935 S    
N25   Ni5   1.820630 S    
C64   C88   1.184153 T    
C2    C18   1.371700 A    
C7    N7    1.357075 A    
C104  C106  1.333956 D    
N1    N14   1.371000 A    
N27   Ni7   1.820630 S    
C68   C92   1.445553 S    
N3    Ni2   1.857848 S    
C1    H1    1.081814 S    
C50   C66   1.556479 S    
C53   C67   1.549159 S    
C72   C74   1.550618 S    
N19   Ni2   1.856797 S    
C39   H23   1.076659 S    
N17   N26   1.359730 A    
C55   H27   1.112647 S    
C26   H14   1.081681 S    
C23   C119  1.420024 S    
C110  C118  1.193517 T    
C15   C20   1.372611 A    
C49   C69   1.549050 S    
C50   Br2   1.960564 S    
N18   Ni1   1.862784 S    
C99   C115  1.191253 T    
C70   H72   1.113494 S    
N13   Ni6   1.880952 S    
C98   C114  1.196519 T    
C16   C19   1.379198 A    
C45   C61   1.406617 S    
C54   C58   1.555550 S    
C97   C113  1.194251 T    
C4    H4    1.081785 S    
C73   C77   1.551008 S    
N15   Ni8   1.880952 S    
C105  Br15  1.923833 S    
C102  H52   1.087622 S    
C38   N30   1.334367 A    
C52   C68   1.556368 S    
C40   C47   1.375136 A    
C37   N29   1.333878 A    
C82   H38   1.112822 S    
C84   H44   1.114310 S    
C40   H24   1.082019 S    
N30   Ni5   1.882454 S    
C49   C65   1.556119 S    
C39   N31   1.335066 A    
C69   H71   1.112489 S    
N1    Ni1   1.857848 S    
C3    H3    1.080031 S    
N12   Ni8   1.820884 S    
C75   C79   1.548772 S    
C4    N4    1.336149 A    
C15   N15   1.338868 A    
N4    Ni2   1.863819 S    
C102  C108  1.334668 D    
C12   C23   1.365516 A    
N20   Ni2   1.862784 S    
C60   C76   1.555073 S    
C35   C44   1.381390 A    
C112  C120  1.196415 T    
C83   H39   1.112811 S    
N2    N13   1.371402 A    
N5    N10   1.344853 A    
C84   H40   1.114387 S    
N10   Ni6   1.820884 S    
C28   C44   1.371362 A    
C2    H2    1.080380 S    
C25   N17   1.337973 A    
C66   C82   1.551247 S    
C9    H5    1.081732 S    
N7    N12   1.344853 A    
C111  C119  1.194433 T    
C9    C22   1.366947 A    
N16   Ni7   1.880793 S    
C107  C111  1.422439 S    
C11   H7    1.081490 S    
C89   C93   1.184574 T    
C74   C86   1.445522 S    
C49   H45   1.113711 S    
C58   H34   1.112951 S    
C6    Br10  1.923733 S    
C79   H55   1.114541 S    
C6    C22   1.373853 A    
N9    Ni5   1.820785 S    
N24   N31   1.447715 A    
C1    N1    1.334464 A    
C76   C80   1.551493 S    
C16   H12   1.078898 S    
N22   N29   1.447715 A    
C56   C66   1.549394 S    
C50   C70   1.539423 S    
C8    C24   1.373488 A    
N21   N30   1.448136 A    
C101  H51   1.087631 S    
C83   H43   1.112944 S    
C108  C112  1.425996 S    
C52   C72   1.552464 S    
C33   C42   1.380439 A    
C37   H21   1.081946 S    
C102  C114  1.426779 S    
C60   H36   1.114065 S    
C91   C95   1.188033 T    
C39   C48   1.381167 A    
C70   H58   1.114030 S    
C51   Br3   1.959401 S    
C101  C113  1.422972 S    
C50   H46   1.113705 S    
C9    N9    1.336760 A    
C43   C100  1.415790 S    
C8    Br12  1.925098 S    
C13   H9    1.074914 S    
C28   H16   1.081647 S    
C27   N19   1.333985 A    
C32   N24   1.335198 A    
N11   Ni7   1.820785 S    
C41   C98   1.421045 S    
C77   C83   1.554847 S    
N2    Ni1   1.863819 S    
C15   H11   1.081576 S    
C12   N12   1.339583 A    
N20   N27   1.359331 A    
C78   C84   1.531939 S    
N31   Ni8   1.882110 S    
C36   C43   1.384435 A    
C66   C90   1.437252 S    
C20   C95   1.406648 S    
C101  C107  1.333322 D    
C7    C23   1.375430 A    
N8    Ni4   1.870131 S    
C79   H63   1.113137 S    
C8    N8    1.353621 A    
C104  H50   1.088083 S    
C78   H62   1.113018 S    
C28   N20   1.334901 A    
N26   Ni6   1.820521 S    
C77   H61   1.111616 S    
N3    N16   1.371000 A    
C62   C86   1.188862 T    
N6    N9    1.345245 A    
C81   H41   1.114397 S    
C30   C46   1.380021 A    
C26   C42   1.370875 A    
C30   H66   1.081770 S    
N5    Ni3   1.876165 S    
C67   C91   1.444007 S    
C69   C75   1.549838 S    
C10   H6    1.075081 S    
C14   C17   1.371422 A    
C33   N25   1.342973 A    
C10   C21   1.367033 A    
C5    C21   1.367682 A    
C22   C118  1.418707 S    
C46   C62   1.408223 S    
C65   C81   1.547425 S    
N18   N25   1.359331 A    
C31   H67   1.080643 S    
C90   C94   1.184226 T    
C104  C116  1.421553 S    
C75   C87   1.437776 S    
C63   C87   1.184440 T    
C103  C115  1.417697 S    
C38   H22   1.080182 S    
C55   C65   1.551975 S    
C56   H30   1.113058 S    
C16   N16   1.339218 A    
C68   C84   1.548550 S    
C72   H70   1.112367 S    
C53   C57   1.541309 S    
C48   C64   1.400389 S    
C2    N2    1.332863 A    
N14   Ni5   1.880793 S    
N21   Ni3   1.821269 S    
C34   N26   1.343187 A    
N22   Ni3   1.815453 S    
C12   H8    1.078565 S    
C4    C20   1.371313 A    
N24   Ni4   1.815453 S    
C31   C47   1.379826 A    
C29   N21   1.338022 A    
C77   H53   1.112795 S    
C59   Br7   1.955519 S    
C29   C45   1.385648 A    
C37   C46   1.377039 A    
C25   H13   1.079933 S    
C58   Br6   1.955720 S    
C59   H35   1.112978 S    
C7    Br11  1.904533 S    
C14   H10   1.081698 S    
N29   Ni6   1.882110 S    
C57   Br5   1.957446 S    
C107  Br13  1.922463 S    
C59   C75   1.557385 S    
N17   Ni1   1.856797 S    
C38   C45   1.384402 A    
C36   H20   1.076781 S    
C42   C97   1.417325 S    
C21   C117  1.414238 S    
C76   C88   1.437155 S    
N6    Ni3   1.870131 S    
C51   H47   1.113512 S    
N7    Ni4   1.876165 S    
C56   H28   1.112919 S    
C67   C83   1.552074 S    
N23   N32   1.448136 A    
C55   C59   1.555505 S    
C72   H60   1.113559 S    
N4    N15   1.371402 A    
C71   C73   1.549882 S    
N23   Ni4   1.821269 S    
C34   H18   1.080785 S    
C54   C68   1.551659 S    
C18   C93   1.400928 S    
C5    N5    1.350382 A    
N19   N28   1.359730 A    
C80   H56   1.112831 S    
C100  C116  1.193517 T    
C13   N13   1.339773 A    
C65   C89   1.437812 S    
C80   C82   1.554389 S    
C82   H42   1.112907 S    
C103  H49   1.087729 S    
C10   N10   1.341863 A    
C32   H68   1.078261 S    
C34   C41   1.386149 A    
C61   C85   1.187931 T    
N28   Ni8   1.820521 S    
C1    C17   1.371785 A    
C11   C24   1.365923 A    
C106  C110  1.421231 S    
C71   H59   1.113788 S    
C29   H65   1.079180 S    
C80   H64   1.111625 S    
C105  C109  1.417172 S    
C52   H48   1.113462 S    
C3    C19   1.377902 A    
C55   H29   1.111796 S    
C57   C73   1.555895 S    
C31   N23   1.337578 A    
C51   C67   1.556346 S    
C69   H57   1.113828 S    
C53   H31   1.112983 S    
C70   C76   1.548878 S    
C58   C74   1.557992 S    
C3    N3    1.336423 A    
C5    Br9   1.905964 S    
C54   H32   1.111711 S    
C25   C41   1.378089 A    
C92   C96   1.188916 T    
C73   C85   1.443945 S    
C30   N22   1.338868 A    
C71   H69   1.113285 S    
C81   H37   1.114597 S    
C74   C78   1.548487 S    
N32   Ni7   1.882454 S    
C27   C43   1.370780 A    
C108  Br14  1.921557 S    
C33   H17   1.081633 S    
C26   N18   1.336730 A    
C54   H26   1.112540 S    
C106  Br16  1.921372 S    
C53   H25   1.112950 S    
C35   H19   1.082012 S    
C57   H33   1.114065 S    
C32   C48   1.380008 A    
C56   C60   1.540716 S    
C11   N11   1.340614 A    
N8    N11   1.345245 A    
C24   C120  1.423788 S    
