data_mof_unit_30409.cif
_audit_creation_date              2012-12-10T16:41:54-0500
_audit_creation_method            fapswitch 2.2
_symmetry_space_group_name_H-M    P1
_symmetry_Int_Tables_number       1
_space_group_crystal_system       triclinic
_cell_length_a                    10.872686
_cell_length_b                    8.680501
_cell_length_c                    7.452332
_cell_angle_alpha                 102.991941
_cell_angle_beta                  94.096228
_cell_angle_gamma                 92.284314
_cell_volume                      682.466081487

loop_
_atom_site_label
_atom_site_type_symbol
_atom_type_description
_atom_site_fract_x
_atom_site_fract_y
_atom_site_fract_z
_atom_type_partial_charge
C1    C     C_R   0.496545 0.199747 0.453239 0.877490
C2    C     C_2   0.506218 0.968235 0.572975 -0.367978
C3    C     C_R   0.265514 0.505433 0.503214 0.881273
C4    C     C_R   0.503993 0.800273 0.546737 0.864082
C5    C     C_R   0.734649 0.500626 0.497489 0.860321
C6    C     C_2   0.927988 0.544935 0.363735 0.488972
C7    C     C_2   0.866761 0.495200 0.492521 -0.395118
C8    C     C_2   0.061510 0.526194 0.359966 -0.260457
C9    C     C_2   0.134553 0.524985 0.512452 -0.397704
C10   C     C_2   0.495040 0.031818 0.426959 -0.372268
Cu1   Cu    Cu3+1 0.513740 0.517380 0.684380 0.954004
Cu2   Cu    Cu3+1 0.486260 0.482620 0.315620 0.960866
H1    H     H_    0.913787 0.448978 0.600630 0.122118
H2    H     H_    0.099927 0.516528 0.227483 0.187017
H3    H     H_    0.099989 0.546136 0.648272 0.152260
H4    H     H_    0.484708 0.960162 0.286270 0.179470
H5    H     H_    0.516829 0.039897 0.713650 0.182437
H6    H     H_    0.403565 0.378078 0.948671 0.223819
H7    H     H_    0.596522 0.621798 0.051260 0.238872
N1    N     N_2   0.465540 0.456420 0.038510 -0.218774
N2    N     N_2   0.534460 0.543580 0.961490 -0.207625
O1    O     O_R   0.508930 0.286130 0.619780 -0.584639
O2    O     O_R   0.485720 0.256780 0.308360 -0.587194
O3    O     O_R   0.333540 0.514670 0.655670 -0.594028
O4    O     O_R   0.310330 0.485320 0.344250 -0.582397
O5    O     O_R   0.514280 0.743220 0.691640 -0.588714
O6    O     O_R   0.491070 0.713870 0.380220 -0.595273
O7    O     O_R   0.689670 0.514680 0.655750 -0.584603
O8    O     O_R   0.666460 0.485330 0.344330 -0.534150
O9    O     O_3   0.864093 0.593912 0.220084 -0.592568
C11   C     C_3   0.897758 0.754381 0.225905 0.035691
H8    H     H_    0.880706 0.772543 0.083519 0.167957
H9    H     H_    0.997636 0.787060 0.267453 0.134962
C12   C     C_3   0.817378 0.864490 0.353007 -0.358888
H10   H     H_    0.718526 0.832337 0.306606 0.228246
H11   H     H_    0.834047 0.849728 0.496884 0.203581
C13   C     C_3   0.845160 0.037807 0.350830 -0.889371
H12   H     H_    0.943470 0.073547 0.398349 0.254465
H13   H     H_    0.785941 0.113891 0.445028 0.254807
H14   H     H_    0.825556 0.056677 0.209233 0.259042

loop_
_geom_bond_atom_site_label_1
_geom_bond_atom_site_label_2
_ccdc_geom_bond_type
C4    O5    A    
Cu1   Cu2   S    
C11   H9    S    
C6    C7    D    
C3    C9    S    
Cu2   O8    S    
C12   C13   S    
Cu1   O1    S    
C2    C4    S    
C11   H8    S    
C3    O4    A    
Cu2   O4    S    
Cu2   N1    S    
C9    H3    S    
C11   C12   S    
C1    O1    A    
C13   H13   S    
C10   H4    S    
C2    H5    S    
Cu2   O2    S    
C3    O3    A    
C13   H12   S    
Cu1   O7    S    
C6    C8    S    
H7    N2    S    
C1    O2    A    
C13   H14   S    
C12   H11   S    
O9    C11   S    
Cu2   O6    S    
C5    O7    A    
C5    O8    A    
Cu1   O3    S    
C7    H1    S    
C4    O6    A    
N1    N2    D    
H6    N1    S    
C12   H10   S    
C5    C7    S    
C8    H2    S    
Cu1   O5    S    
C6    O9    S    
Cu1   N2    S    
C1    C10   S    
C8    C9    D    
C2    C10   D    
