data_mof_unit_31113.cif
_audit_creation_date              2012-12-10T17:18:21-0500
_audit_creation_method            fapswitch 2.2
_symmetry_space_group_name_H-M    P1
_symmetry_Int_Tables_number       1
_space_group_crystal_system       triclinic
_cell_length_a                    10.175991
_cell_length_b                    10.818369
_cell_length_c                    14.920285
_cell_angle_alpha                 90.394116
_cell_angle_beta                  80.811071
_cell_angle_gamma                 95.172579
_cell_volume                      1614.80992024

loop_
_atom_site_label
_atom_site_type_symbol
_atom_type_description
_atom_site_fract_x
_atom_site_fract_y
_atom_site_fract_z
_atom_type_partial_charge
C1    C     C_R   0.555967 0.731832 0.494253 0.981335
C2    C     C_2   0.073628 0.493422 0.491086 0.003160
C3    C     C_R   0.500677 0.501968 0.672983 0.931889
C4    C     C_R   0.500203 0.499560 0.326797 0.914537
C5    C     C_R   0.417079 0.403699 0.194025 -0.051004
C6    C     C_R   0.592103 0.579352 0.806353 -0.080204
C7    C     C_R   0.502621 0.492949 0.230193 -0.195592
C8    C     C_R   0.503026 0.495597 0.768754 -0.207638
C9    C     C_R   0.601185 0.569062 0.174691 0.068366
C10   C     C_R   0.429946 0.395410 0.818786 0.051079
C11   C     C_R   0.621275 0.551202 0.080631 0.058153
C12   C     C_R   0.444316 0.267453 0.501878 1.002463
C13   C     C_R   0.443650 0.379363 0.910395 0.059414
C14   C     C_R   0.531175 0.465771 0.043052 -0.019003
C15   C     C_R   0.531429 0.466085 0.949077 -0.013707
C16   C     C_R   0.436447 0.384544 0.099479 0.060709
C17   C     C_R   0.615514 0.557549 0.894679 0.062337
C18   C     C_R   0.728147 0.617128 0.022607 -0.047230
C19   C     C_R   0.372857 0.280212 0.965057 -0.053208
C20   C     C_2   0.299887 0.341499 0.254512 0.965341
C21   C     C_2   0.643255 0.699268 0.759017 0.947748
C22   C     C_2   0.850450 0.670068 0.057059 0.933468
C23   C     C_R   0.723758 0.621655 0.929180 0.019446
C24   C     C_2   0.311319 0.167624 0.925104 0.936932
C25   C     C_2   0.613290 0.106140 0.386208 0.951051
C26   C     C_2   0.479908 0.937468 0.617553 0.934947
C27   C     C_R   0.368506 0.283745 0.059714 0.016865
C28   C     C_2   0.587004 0.858878 0.469007 -0.376319
C29   C     C_2   0.415371 0.134136 0.503103 -0.352855
C30   C     C_2   0.527719 0.948877 0.517085 -0.081540
C31   C     C_2   0.514721 0.064580 0.468928 -0.050870
C32   C     C_2   0.928827 0.515075 0.502294 0.015924
H1    H     H_    0.330401 0.096024 0.551596 0.146395
H2    H     H_    0.262245 0.366183 0.760186 0.208787
H3    H     H_    0.996714 0.641424 0.129225 0.354757
H4    H     H_    0.339203 0.019341 0.844078 0.360865
H5    H     H_    0.845367 0.775098 0.882144 0.260213
H6    H     H_    0.921934 0.640692 0.876013 0.195717
H7    H     H_    0.203979 0.168779 0.109996 0.250637
H8    H     H_    0.349756 0.099346 0.091364 0.209911
H9    H     H_    0.801058 0.107461 0.317340 0.351059
H10   H     H_    0.393609 0.831351 0.725595 0.351384
H11   H     H_    0.132325 0.608082 0.663531 0.217354
H12   H     H_    0.631936 0.871842 0.398441 0.168954
H13   H     H_    0.163991 0.721144 0.584539 0.227325
H14   H     H_    0.849621 0.350426 0.351462 0.242793
H15   H     H_    0.840352 0.268735 0.448206 0.236830
H16   H     H_    0.112326 0.426666 0.441450 0.174626
H17   H     H_    0.892805 0.590027 0.545250 0.194395
H18   H     H_    0.231293 0.224285 0.359324 0.337046
H19   H     H_    0.749327 0.788383 0.648801 0.343687
H20   H     H_    0.731053 0.645562 0.255680 0.235723
H21   H     H_    0.597218 0.727311 0.249841 0.170749
H22   H     H_    0.386817 0.275093 0.719433 0.220843
N1    N     N_2   0.842700 0.448880 0.462930 -0.104683
N2    N     N_2   0.157300 0.551120 0.537070 -0.101987
N3    N     N_3   0.668419 0.675026 0.212656 -0.431642
N4    N     N_3   0.336591 0.314716 0.777713 -0.417630
N5    N     N_3   0.834717 0.680444 0.867631 -0.429402
N6    N     N_3   0.305679 0.179590 0.114842 -0.415523
N7    N     N_3   0.108864 0.636043 0.601541 -0.396147
N8    N     N_3   0.886649 0.347832 0.412747 -0.386248
O1    O     O_R   0.431060 0.692470 0.507460 -0.576756
O2    O     O_R   0.318787 0.260979 0.323107 -0.769224
O3    O     O_2   0.619528 0.796962 0.797366 -0.591485
O4    O     O_R   0.720747 0.701026 0.672817 -0.793369
O5    O     O_2   0.893856 0.777984 0.040547 -0.604110
O6    O     O_R   0.915176 0.595538 0.109133 -0.777141
O7    O     O_2   0.190904 0.139587 0.943367 -0.602929
O8    O     O_R   0.392060 0.093799 0.866664 -0.729929
O9    O     O_2   0.578056 0.166955 0.326890 -0.580689
O10   O     O_R   0.745504 0.075701 0.376564 -0.827615
O11   O     O_2   0.489164 0.029403 0.665087 -0.595630
O12   O     O_R   0.568940 0.307530 0.492540 -0.610641
O13   O     O_R   0.425025 0.824270 0.657932 -0.806448
O14   O     O_R   0.651120 0.659650 0.483670 -0.609827
O15   O     O_R   0.348880 0.340350 0.516330 -0.620696
O16   O     O_R   0.389960 0.516440 0.644050 -0.623230
O17   O     O_R   0.610040 0.483560 0.355950 -0.604564
O18   O     O_R   0.610030 0.483620 0.620260 -0.570690
O19   O     O_R   0.389970 0.516380 0.379740 -0.624199
O20   O     O_2   0.186901 0.360612 0.243456 -0.623971
Zn1   Zn    Zn3+2 0.353060 0.521920 0.515880 0.976545
Zn2   Zn    Zn3+2 0.646940 0.478080 0.484120 1.003821

loop_
_geom_bond_atom_site_label_1
_geom_bond_atom_site_label_2
_ccdc_geom_bond_type
C25   C31   S    
C11   C18   A    
H8    N6    S    
C20   O20   D    
C12   C29   S    
H18   O2    S    
O18   Zn2   S    
O14   Zn2   S    
H15   N8    S    
C24   O8    S    
C5    C20   S    
C23   N5    S    
H10   O13   S    
C17   C23   A    
H14   N8    S    
C10   N4    S    
C12   O12   A    
C27   N6    S    
O17   Zn2   S    
C21   O4    S    
C11   C14   A    
O15   Zn1   S    
N1    N8    S    
C29   H1    S    
C26   O11   D    
C2    C32   S    
C5    C16   A    
O16   Zn1   S    
C4    O19   A    
C1    C28   S    
C25   O9    D    
C19   C27   A    
C32   N1    D    
C16   C27   A    
C4    C7    S    
C3    O18   A    
C1    O1    A    
O19   Zn1   S    
H4    O8    S    
C24   O7    D    
C32   H17   S    
C13   C19   A    
C18   C23   A    
C4    O17   A    
C3    C8    S    
C5    C7    A    
H21   N3    S    
C6    C8    A    
C2    H16   S    
C6    C21   S    
C28   H12   S    
O1    Zn1   S    
H19   O4    S    
C20   O2    S    
C12   O15   A    
C26   O13   S    
N2    N7    S    
C25   O10   S    
C9    C11   A    
C22   O6    S    
H5    N5    S    
H9    O10   S    
C26   C30   S    
C13   C15   A    
C14   C16   A    
H11   N7    S    
N2    Zn1   S    
H22   N4    S    
C15   C17   A    
C6    C17   A    
C21   O3    D    
C18   C22   S    
C1    O14   A    
O12   Zn2   S    
C10   C13   A    
C28   C30   D    
C19   C24   S    
C29   C31   D    
C2    N2    D    
C30   C31   S    
H3    O6    S    
H7    N6    S    
H13   N7    S    
C9    N3    S    
C22   O5    D    
H20   N3    S    
H6    N5    S    
C7    C9    A    
C8    C10   A    
H2    N4    S    
C14   C15   A    
N1    Zn2   S    
C3    O16   A    
