data_mof_unit_55075.cif
_audit_creation_date              2012-12-11T14:39:30-0500
_audit_creation_method            fapswitch 2.2
_symmetry_space_group_name_H-M    P1
_symmetry_Int_Tables_number       1
_space_group_crystal_system       triclinic
_cell_length_a                    7.19562
_cell_length_b                    13.80315
_cell_length_c                    16.658309
_cell_angle_alpha                 90.000646
_cell_angle_beta                  98.15697
_cell_angle_gamma                 89.999089
_cell_volume                      1637.8013968

loop_
_atom_site_label
_atom_site_type_symbol
_atom_type_description
_atom_site_fract_x
_atom_site_fract_y
_atom_site_fract_z
_atom_type_partial_charge
O1    O     O_R   0.525340 0.338340 0.164530 -0.532387
O2    O     O_R   0.474660 0.661660 0.835470 -0.532382
O3    O     O_R   0.974660 0.838340 0.835470 -0.532385
O4    O     O_R   0.025340 0.161660 0.164530 -0.532382
O5    O     O_R   0.253520 0.352000 0.336710 -0.539413
O6    O     O_R   0.746480 0.648000 0.663290 -0.539398
O7    O     O_R   0.246480 0.852000 0.663290 -0.539409
O8    O     O_R   0.753520 0.148000 0.336710 -0.539393
O9    O     O_R   0.083330 0.168380 0.337300 -0.527263
O10   O     O_R   0.916670 0.831620 0.662700 -0.527240
O11   O     O_R   0.416670 0.668380 0.662700 -0.527272
O12   O     O_R   0.583330 0.331620 0.337300 -0.527245
C1    C     C_R   0.434676 0.373906 0.360141 0.730415
C2    C     C_R   0.565324 0.626100 0.639851 0.730492
C3    C     C_R   0.065317 0.873907 0.639860 0.730431
C4    C     C_R   0.934682 0.126091 0.360140 0.730488
O13   O     O_R   0.195840 0.349670 0.165140 -0.542698
O14   O     O_R   0.804160 0.650330 0.834860 -0.542695
O15   O     O_R   0.304160 0.849670 0.834860 -0.542692
O16   O     O_R   0.695840 0.150330 0.165140 -0.542691
C5    C     C_R   0.355822 0.370927 0.136522 0.767547
C6    C     C_R   0.644185 0.629089 0.863489 0.767585
C7    C     C_R   0.144182 0.870922 0.863482 0.767548
C8    C     C_R   0.855816 0.129087 0.136513 0.767577
O17   O     O_3   0.387830 0.193120 0.250910 -0.364639
O18   O     O_3   0.612170 0.806880 0.749090 -0.364625
O19   O     O_3   0.112170 0.693120 0.749090 -0.364664
O20   O     O_3   0.887830 0.306880 0.250910 -0.364635
V1    V     V_3+5 0.113010 0.264540 0.250910 1.477570
V2    V     V_3+5 0.886990 0.735460 0.749090 1.477579
V3    V     V_3+5 0.386990 0.764540 0.749090 1.477574
V4    V     V_3+5 0.613010 0.235460 0.250910 1.477602
H1    H     H_    0.947285 0.774535 0.280133 0.159415
H2    H     H_    0.052698 0.225440 0.719869 0.159388
H3    H     H_    0.553468 0.274524 0.719942 0.159409
H4    H     H_    0.446970 0.725457 0.280083 0.159372
C9    C     C_R   0.047554 0.202884 0.518445 -0.153581
C10   C     C_R   0.952638 0.797102 0.481571 -0.153583
C11   C     C_R   0.452259 0.702895 0.481535 -0.153537
C12   C     C_R   0.547519 0.297106 0.518427 -0.153550
C13   C     C_R   0.074212 0.244982 0.594806 -0.127330
C14   C     C_R   0.925978 0.754993 0.405213 -0.127363
C15   C     C_R   0.425513 0.744997 0.405159 -0.127330
C16   C     C_R   0.574411 0.254996 0.594804 -0.127364
C17   C     C_R   0.053856 0.189486 0.662182 -0.107300
C18   C     C_R   0.946142 0.810488 0.337819 -0.107356
C19   C     C_R   0.445881 0.689498 0.337784 -0.107270
C20   C     C_R   0.554353 0.310485 0.662220 -0.107295
C21   C     C_R   0.015994 0.090406 0.654237 0.095322
C22   C     C_R   0.983920 0.909578 0.345754 0.095334
C23   C     C_R   0.483839 0.590408 0.345745 0.095408
C24   C     C_R   0.516410 0.409571 0.654279 0.095447
C25   C     C_R   0.020346 0.042653 0.578704 0.033849
C26   C     C_R   0.979625 0.957333 0.421290 0.033855
C27   C     C_R   0.479556 0.542656 0.421289 0.033806
C28   C     C_R   0.520505 0.457330 0.578716 0.033820
C29   C     C_R   0.017028 0.101749 0.508616 0.036774
C30   C     C_R   0.983008 0.898236 0.491384 0.036782
C31   C     C_R   0.482873 0.601755 0.491375 0.036753
C32   C     C_R   0.517063 0.398237 0.508615 0.036770
C33   C     C_R   0.018684 0.939994 0.569752 -0.148640
C34   C     C_R   0.981309 0.059994 0.430244 -0.148674
C35   C     C_R   0.481298 0.439994 0.430246 -0.148641
C36   C     C_R   0.518705 0.559997 0.569752 -0.148705
H5    H     H_    0.052841 0.250888 0.467589 0.130324
H6    H     H_    0.947501 0.749099 0.532439 0.130282
H7    H     H_    0.446970 0.750900 0.532392 0.130332
H8    H     H_    0.552607 0.249105 0.467550 0.130301
H9    H     H_    0.098168 0.322238 0.601069 0.156677
H10   H     H_    0.902209 0.677737 0.398966 0.156695
H11   H     H_    0.401452 0.822262 0.398880 0.156693
H12   H     H_    0.598363 0.177743 0.601057 0.156713
H13   H     H_    0.137903 0.067214 0.057027 0.163039
H14   H     H_    0.862093 0.932803 0.942964 0.163041
H15   H     H_    0.362088 0.567221 0.942985 0.163015
H16   H     H_    0.637925 0.432812 0.057037 0.163030
C37   C     C_2   0.152093 0.940813 0.932287 -0.296934
C38   C     C_2   0.847903 0.059203 0.067704 -0.296917
C39   C     C_2   0.347912 0.440820 0.067721 -0.296923
C40   C     C_2   0.652100 0.559207 0.932298 -0.296891
C41   C     C_2   0.997018 0.964939 0.965931 -0.092895
C42   C     C_2   0.002979 0.035078 0.034059 -0.092891
C43   C     C_2   0.502990 0.464947 0.034074 -0.092865
C44   C     C_2   0.497024 0.535086 0.965948 -0.092867
H17   H     H_    0.713284 0.027110 0.044179 0.128252
H18   H     H_    0.286713 0.972907 0.955812 0.128253
H19   H     H_    0.786729 0.527115 0.955819 0.128238
H20   H     H_    0.213284 0.472911 0.044199 0.128236
I1    I     I_    0.868875 0.038028 0.746261 -0.446201
I2    I     I_    0.130945 0.961957 0.253709 -0.446234
I3    I     I_    0.631069 0.538035 0.253740 -0.446168
I4    I     I_    0.369339 0.461898 0.746331 -0.446221

loop_
_geom_bond_atom_site_label_1
_geom_bond_atom_site_label_2
_ccdc_geom_bond_type
O1    C5    A    
C12   C32   A    
C27   C31   A    
O13   V1    S    
O3    C7    A    
C40   C44   D    
O15   V3    S    
C41   C42   S    
C29   C34   A    
C31   C36   A    
C22   C26   A    
C32   C35   A    
O20   V1    S    
O9    C4    A    
C10   C14   A    
C40   H19   S    
O10   C3    A    
C26   C30   A    
O4    C8    A    
O11   C2    A    
H15   C44   S    
C14   H10   S    
H4    C19   S    
C14   C18   A    
O10   V2    S    
C23   I3    S    
C10   C30   A    
C25   C33   A    
C22   I2    S    
O16   C8    A    
C27   C35   A    
O2    C6    A    
C28   C36   A    
O14   V2    S    
C37   C41   D    
O5    C1    A    
O4    V1    S    
O9    V1    S    
C30   C33   A    
O7    C3    A    
O11   V3    S    
O18   V3    S    
O8    C4    A    
O12   V4    S    
O19   V2    S    
H1    C18   S    
C4    C34   S    
H3    C20   S    
H16   C43   S    
C39   H20   S    
O5    V1    S    
O7    V3    S    
O8    V4    S    
C10   H6    S    
C25   C29   A    
C19   C23   A    
C26   C34   A    
O1    V4    S    
O13   C5    A    
C28   C32   A    
C9    H5    S    
O2    V3    S    
O3    V2    S    
O15   C7    A    
O6    C2    A    
C38   C42   D    
C43   C44   S    
C1    C35   S    
C17   C21   A    
C11   C31   A    
C5    C39   S    
C3    C33   S    
H2    C17   S    
C7    C37   S    
C2    C36   S    
C38   H17   S    
C8    C38   S    
O6    V2    S    
C37   H18   S    
C24   I4    S    
H14   C41   S    
H13   C42   S    
C13   H9    S    
O16   V4    S    
C15   H11   S    
O14   C6    A    
C11   H7    S    
C21   I1    S    
C11   C15   A    
C18   C22   A    
C6    C40   S    
C39   C43   D    
O17   V4    S    
C21   C25   A    
C16   H12   S    
C23   C27   A    
C9    C13   A    
C16   C20   A    
C12   C16   A    
O12   C1    A    
C12   H8    S    
C13   C17   A    
C20   C24   A    
C15   C19   A    
C9    C29   A    
C24   C28   A    
