data_mof_unit_13957.cif
_audit_creation_date              2012-12-10T19:00:49-0500
_audit_creation_method            fapswitch 2.2
_symmetry_space_group_name_H-M    P1
_symmetry_Int_Tables_number       1
_space_group_crystal_system       triclinic
_cell_length_a                    15.070998
_cell_length_b                    10.811669
_cell_length_c                    9.56873
_cell_angle_alpha                 89.662006
_cell_angle_beta                  90.893562
_cell_angle_gamma                 91.04184
_cell_volume                      1558.68222638

loop_
_atom_site_label
_atom_site_type_symbol
_atom_type_description
_atom_site_fract_x
_atom_site_fract_y
_atom_site_fract_z
_atom_type_partial_charge
C1    C     C_R   0.505099 0.262933 0.500585 0.803958
C2    C     C_R   0.187299 0.432815 0.593487 -0.219087
C3    C     C_R   0.232248 0.505754 0.495652 -0.144945
C4    C     C_R   0.328970 0.502677 0.498738 0.851423
C5    C     C_R   0.184864 0.575942 0.394683 -0.072072
C6    C     C_R   0.492828 0.062922 0.619312 0.153633
C7    C     C_R   0.520233 0.130858 0.503487 -0.137986
C8    C     C_R   0.564447 0.068852 0.394888 -0.046859
C9    C     C_R   0.562294 0.937219 0.393386 -0.023883
C10   C     C_R   0.515611 0.871454 0.499517 -0.175332
C11   C     C_R   0.489229 0.936721 0.616262 0.049115
C12   C     C_R   0.904593 0.570160 0.406623 0.112722
C13   C     C_3   0.408784 0.930074 0.706485 -0.217804
C14   C     C_3   0.413196 0.071461 0.709856 -0.503874
C15   C     C_R   0.555789 0.577627 0.074417 0.220698
C16   C     C_R   0.503779 0.737701 0.499482 0.834556
C17   C     C_R   0.438251 0.431872 0.071142 0.057798
C18   C     C_R   0.439512 0.432480 0.922501 -0.008632
C19   C     C_R   0.555029 0.578669 0.927258 0.244088
C20   C     C_3   0.653697 0.583276 0.922280 -0.456120
C21   C     C_3   0.654856 0.579219 0.080475 -0.485633
C22   C     C_R   0.670936 0.496185 0.501000 0.831777
C23   C     C_R   0.959210 0.340157 0.685523 -0.158853
C24   C     C_R   0.812656 0.567752 0.409265 -0.235579
C25   C     C_R   0.767514 0.490653 0.502604 -0.145638
C26   C     C_R   0.814336 0.411834 0.595465 -0.061715
C27   C     C_R   0.908332 0.415657 0.595627 0.037418
C28   C     C_R   0.953066 0.495258 0.500209 0.061299
C29   C     C_2   0.611094 0.870209 0.285288 0.438953
C30   C     C_2   0.326740 0.877677 0.634636 0.914995
C31   C     C_2   0.369092 0.352639 0.137350 0.408542
C32   C     C_2   0.764919 0.322155 0.685240 0.825024
C33   C     C_2   0.232871 0.649059 0.286544 0.860111
C34   C     C_R   0.051354 0.347473 0.685702 -0.177757
C35   C     C_2   0.612081 0.141354 0.285330 0.468534
C36   C     C_R   0.095232 0.426608 0.592700 0.113342
C37   C     C_R   0.046565 0.499105 0.496990 0.061016
C38   C     C_R   0.091137 0.575162 0.398103 0.033271
C39   C     C_R   0.040608 0.650075 0.307238 -0.149898
C40   C     C_R   0.948527 0.647472 0.311709 -0.178035
Cu1   Cu    Cu3+1 0.500000 0.499980 0.640670 0.985099
Cu2   Cu    Cu3+1 0.500000 0.500020 0.359330 0.958590
H1    H     H_    0.775658 0.627776 0.339328 0.171039
H2    H     H_    0.929112 0.274465 0.756559 0.195531
H3    H     H_    0.088483 0.289675 0.757819 0.168496
H4    H     H_    0.224538 0.377348 0.668077 0.160941
H5    H     H_    0.071405 0.712625 0.233125 0.181846
H6    H     H_    0.911501 0.706121 0.240355 0.169218
H7    H     H_    0.575487 0.812312 0.210602 0.083747
H8    H     H_    0.226134 0.752435 0.640566 0.336091
H9    H     H_    0.374799 0.320189 0.243095 0.134820
H10   H     H_    0.742515 0.254671 0.878778 0.353593
H11   H     H_    0.252655 0.680958 0.081356 0.346468
H12   H     H_    0.423329 0.886600 0.809780 0.165623
H13   H     H_    0.645599 0.227849 0.312340 0.089108
H14   H     H_    0.357062 0.118885 0.656516 0.204025
H15   H     H_    0.430825 0.108486 0.815024 0.213507
H16   H     H_    0.393021 0.375496 0.862877 0.169555
H17   H     H_    0.681581 0.499404 0.875419 0.253117
H18   H     H_    0.679152 0.672358 0.878675 0.204442
H19   H     H_    0.682521 0.491915 0.123233 0.233298
H20   H     H_    0.683084 0.665014 0.127578 0.212644
N1    N     N_R   0.500570 0.500930 0.147930 -0.231983
N2    N     N_R   0.500570 0.500890 0.852020 -0.210956
O1    O     O_R   0.500000 0.319640 0.618810 -0.558474
O2    O     O_2   0.300628 0.920874 0.523233 -0.555163
O3    O     O_R   0.280461 0.779399 0.697124 -0.750620
O4    O     O_2   0.302666 0.320319 0.071405 -0.555320
O5    O     O_2   0.709640 0.251837 0.632520 -0.609755
O6    O     O_R   0.780925 0.318807 0.829528 -0.778246
O7    O     O_2   0.288704 0.726805 0.321232 -0.558103
O8    O     O_R   0.215075 0.626845 0.144966 -0.735908
O9    O     O_2   0.612481 0.107291 0.163910 -0.543549
O10   O     O_R   0.500010 0.319680 0.381230 -0.639650
O11   O     O_R   0.370250 0.499950 0.618800 -0.569353
O12   O     O_R   0.370260 0.499990 0.381220 -0.595648
O13   O     O_R   0.499990 0.680320 0.618770 -0.574545
O14   O     O_R   0.500000 0.680360 0.381190 -0.579475
O15   O     O_R   0.629740 0.500010 0.618780 -0.580181
O16   O     O_R   0.629750 0.500050 0.381200 -0.599092
O17   O     O_2   0.691659 0.881311 0.278255 -0.547351

loop_
_geom_bond_atom_site_label_1
_geom_bond_atom_site_label_2
_ccdc_geom_bond_type
C14   H14   S    
Cu2   O16   S    
Cu1   Cu2   S    
C19   C20   S    
C7    C8    A    
C29   H7    S    
C2    H4    S    
C26   C32   S    
C26   C27   A    
C12   C28   A    
C1    O10   A    
C36   C37   A    
C22   O15   A    
Cu1   O13   S    
C38   C39   A    
Cu1   O11   S    
C16   O13   A    
C4    O11   A    
C33   O8    S    
C18   H16   S    
C8    C9    A    
C22   C25   S    
C5    C33   S    
C1    O1    A    
C23   C27   A    
C20   H18   S    
C9    C10   A    
C16   O14   A    
C30   O3    S    
C9    C29   S    
C13   C14   S    
C31   O4    D    
Cu2   O10   S    
C35   H13   S    
C13   C30   S    
C24   C25   A    
C39   C40   A    
Cu1   O1    S    
C25   C26   A    
C23   H2    S    
C8    C35   S    
C12   C40   A    
C15   C19   A    
C29   O17   D    
C37   C38   A    
C6    C14   S    
C19   N2    A    
C23   C34   A    
C17   C18   A    
C34   H3    S    
C20   H17   S    
C21   H20   S    
C30   O2    D    
Cu2   O14   S    
C17   C31   S    
C3    C4    S    
C6    C11   A    
C39   H5    S    
C13   H12   S    
H8    O3    S    
C2    C36   A    
C40   H6    S    
C14   H15   S    
C35   O9    D    
C1    C7    S    
C32   O5    D    
C21   H19   S    
C31   H9    S    
C3    C5    A    
Cu1   O15   S    
C32   O6    S    
C6    C7    A    
C12   C24   A    
Cu2   O12   S    
C2    C3    A    
C22   O16   A    
C10   C16   S    
C17   N1    A    
C11   C13   S    
C18   N2    A    
C28   C37   A    
C34   C36   A    
C4    O12   A    
H10   O6    S    
C10   C11   A    
C33   O7    D    
C15   C21   S    
C20   C21   S    
C27   C28   A    
C24   H1    S    
C15   N1    A    
Cu1   N2    S    
C5    C38   A    
H11   O8    S    
Cu2   N1    S    
