data_mof_unit_29917.cif
_audit_creation_date              2012-12-11T14:00:01-0500
_audit_creation_method            fapswitch 2.2
_symmetry_space_group_name_H-M    P1
_symmetry_Int_Tables_number       1
_space_group_crystal_system       triclinic
_cell_length_a                    11.294712
_cell_length_b                    11.260133
_cell_length_c                    18.890395
_cell_angle_alpha                 89.354361
_cell_angle_beta                  90.224767
_cell_angle_gamma                 120.597465
_cell_volume                      2067.83344624

loop_
_atom_site_label
_atom_site_type_symbol
_atom_type_description
_atom_site_fract_x
_atom_site_fract_y
_atom_site_fract_z
_atom_type_partial_charge
C1    C     C_R   0.585040 0.443662 0.858962 0.530527
C2    C     C_R   0.447985 0.583673 0.358521 0.567517
C3    C     C_R   0.137172 0.551324 0.357884 0.548733
C4    C     C_R   0.460534 0.942029 0.349357 0.546788
C5    C     C_2   0.002569 0.505912 0.579921 0.300246
C6    C     C_2   0.512759 0.501260 0.576631 0.314826
C7    C     C_2   0.555800 0.135979 0.563979 0.272601
C8    C     C_2   0.512833 0.017263 0.415667 0.298681
C9    C     C_2   0.440045 0.565101 0.435819 0.295348
C10   C     C_2   0.133162 0.554751 0.435395 0.306659
C11   C     C_2   0.069081 0.437176 0.474321 0.313748
C12   C     C_R   0.520592 0.062375 0.851545 0.556355
C13   C     C_2   0.539780 0.656942 0.478638 0.297546
C14   C     C_2   0.444280 0.070926 0.447365 0.294540
C15   C     C_2   0.438734 0.069501 0.525545 0.264267
C16   C     C_2   0.533943 0.625479 0.555610 0.286575
C17   C     C_2   0.067777 0.445773 0.551823 0.300178
C18   C     C_2   0.013628 0.510862 0.917853 0.284976
C19   C     C_2   0.563978 0.425353 0.936467 0.296803
C20   C     C_2   0.492118 0.977551 0.914288 0.284330
C21   C     C_2   0.507311 0.003849 0.079269 0.257987
C22   C     C_2   0.519646 0.500340 0.082854 0.266109
C23   C     C_R   0.935992 0.457997 0.852666 0.578707
C24   C     C_2   0.999643 0.509017 0.077106 0.271842
C25   C     C_2   0.045315 0.621031 0.032660 0.011058
C26   C     C_2   0.428874 0.388260 0.045967 0.070303
C27   C     C_2   0.550669 0.945979 0.031068 0.037047
C28   C     C_2   0.592097 0.009914 0.962488 0.046378
C29   C     C_2   0.442623 0.394131 0.967669 0.064043
C30   C     C_2   0.001087 0.603558 0.958684 0.021167
C31   C     C_3   0.154070 0.766010 0.051911 -0.360388
C32   C     C_3   0.300382 0.269705 0.078918 -0.402929
C33   C     C_3   0.551327 0.813595 0.040999 -0.352295
C34   C     C_R   0.482794 0.540523 0.149504 0.538919
C35   C     C_3   0.742940 0.115648 0.953274 -0.323335
C36   C     C_3   0.318825 0.374102 0.926390 -0.386787
C37   C     C_3   0.950968 0.698161 0.931749 -0.363453
C38   C     C_R   0.066629 0.523706 0.146082 0.542550
C39   C     C_R   0.458177 0.936576 0.147708 0.523857
C40   C     C_R   0.543178 0.481330 0.648895 0.601686
C41   C     C_R   0.551531 0.137352 0.641894 0.565693
C42   C     C_R   0.938850 0.459457 0.649277 0.556426
Cr1   Cr    Cr6+3 0.464030 0.233680 0.750360 1.050917
Cr2   Cr    Cr6+3 0.766320 0.230350 0.750360 1.053295
Cr3   Cr    Cr6+3 0.769650 0.535970 0.750360 1.028714
Cr4   Cr    Cr6+3 0.233680 0.464030 0.249640 1.040302
Cr5   Cr    Cr6+3 0.230350 0.766320 0.249640 1.041499
Cr6   Cr    Cr6+3 0.535970 0.769650 0.249640 1.040742
H1    H     H_    0.952668 0.237370 0.480458 0.343551
H2    H     H_    0.753983 0.254058 0.564318 0.325597
H3    H     H_    0.474678 0.318495 0.551453 0.324381
H4    H     H_    0.910646 0.612552 0.563149 0.350953
H5    H     H_    0.179292 0.840916 0.007909 0.175147
H6    H     H_    0.117892 0.804347 0.095792 0.163453
H7    H     H_    0.249059 0.765089 0.064593 0.166283
H8    H     H_    0.258285 0.177650 0.044499 0.143988
H9    H     H_    0.324321 0.240423 0.131045 0.143549
H10   H     H_    0.220143 0.297894 0.085542 0.154806
H11   H     H_    0.568280 0.776475 0.989869 0.161605
H12   H     H_    0.719781 0.820536 0.489419 0.342098
H13   H     H_    0.638023 0.833523 0.076183 0.172160
H14   H     H_    0.451059 0.731230 0.062372 0.137102
H15   H     H_    0.801765 0.123009 0.001936 0.148578
H16   H     H_    0.787605 0.085247 0.909791 0.150184
H17   H     H_    0.756204 0.218481 0.942646 0.197299
H18   H     H_    0.235954 0.359004 0.962666 0.161023
H19   H     H_    0.346488 0.465589 0.892247 0.178406
H20   H     H_    0.274663 0.278658 0.894602 0.168755
H21   H     H_    0.957825 0.770962 0.972931 0.129096
H22   H     H_    0.014004 0.760015 0.885761 0.132413
H23   H     H_    0.318682 0.140175 0.440891 0.344883
H24   H     H_    0.841736 0.639786 0.917466 0.198292
H25   H     H_    0.874463 0.313741 0.094344 0.332058
H26   H     H_    0.711262 0.651568 0.086836 0.339287
H27   H     H_    0.475696 0.151493 0.104571 0.328656
H28   H     H_    0.301941 0.856833 0.885754 0.329947
H29   H     H_    0.724336 0.406735 0.944881 0.300734
H30   H     H_    0.163836 0.515696 0.970333 0.315630
H31   H     H_    0.240206 0.945021 0.521784 0.355692
H32   H     H_    0.566835 0.806353 0.580147 0.357172
H33   H     H_    0.146354 0.328222 0.563029 0.358391
H34   H     H_    0.247198 0.754534 0.434483 0.325635
H35   H     H_    0.271307 0.383250 0.430810 0.358495
H36   H     H_    0.675203 0.000837 0.418331 0.374066
O1    O     O_R   0.434100 0.092480 0.829780 -0.521774
O2    O     O_R   0.362730 0.477510 0.175360 -0.517995
O3    O     O_R   0.114780 0.637270 0.175360 -0.520256
O4    O     O_R   0.522490 0.885220 0.175360 -0.522564
O5    O     O_R   0.432250 0.092620 0.670380 -0.444017
O6    O     O_R   0.907380 0.339630 0.670380 -0.486927
O7    O     O_R   0.660370 0.567750 0.670380 -0.481784
O8    O     O_R   0.092620 0.432250 0.329620 -0.451838
O9    O     O_R   0.339630 0.907380 0.329620 -0.488059
O10   O     O_R   0.567750 0.660370 0.329620 -0.432854
O11   O     O_R   0.475790 0.362860 0.676880 -0.528085
O12   O     O_R   0.907520 0.341620 0.829780 -0.479805
O13   O     O_R   0.637140 0.112930 0.676880 -0.488462
O14   O     O_R   0.887070 0.524210 0.676880 -0.523730
O15   O     O_R   0.362860 0.475790 0.323120 -0.523648
O16   O     O_R   0.112930 0.637140 0.323120 -0.480506
O17   O     O_R   0.524210 0.887070 0.323120 -0.522499
O18   O     O_3   0.666667 0.333333 0.749450 -0.332967
O19   O     O_3   0.333333 0.666667 0.250550 -0.327102
O20   O     O_3   0.998941 0.308771 0.442949 -0.680537
O21   O     O_3   0.652508 0.773540 0.450851 -0.692774
O22   O     O_3   0.357846 0.100158 0.408512 -0.685275
O23   O     O_R   0.658380 0.565900 0.829780 -0.510064
O24   O     O_3   0.311743 0.993481 0.558373 -0.671006
O25   O     O_3   0.561044 0.725684 0.605213 -0.692690
O26   O     O_3   0.108646 0.371594 0.593951 -0.686824
O27   O     O_3   0.206003 0.679452 0.470064 -0.690940
O28   O     O_3   0.325632 0.453813 0.466589 -0.737168
O29   O     O_3   0.611531 0.004574 0.452895 -0.682108
O30   O     O_3   0.679333 0.217249 0.529077 -0.676988
O31   O     O_3   0.496179 0.404838 0.526732 -0.689999
O32   O     O_3   0.968041 0.584659 0.536844 -0.671006
O33   O     O_3   0.896714 0.380850 0.054966 -0.677042
O34   O     O_R   0.092480 0.434100 0.170220 -0.519504
O35   O     O_3   0.642550 0.595512 0.050412 -0.694271
O36   O     O_3   0.503269 0.121363 0.061760 -0.672804
O37   O     O_3   0.360276 0.869483 0.927645 -0.746570
O38   O     O_3   0.659118 0.412851 0.977159 -0.625677
O39   O     O_3   0.086528 0.449551 0.940265 -0.701744
O40   O     O_R   0.341620 0.907520 0.170220 -0.532995
O41   O     O_R   0.565900 0.658380 0.170220 -0.533930
O42   O     O_R   0.477510 0.362730 0.824640 -0.517871
O43   O     O_R   0.637270 0.114780 0.824640 -0.534910
O44   O     O_R   0.885220 0.522490 0.824640 -0.571095

loop_
_geom_bond_atom_site_label_1
_geom_bond_atom_site_label_2
_ccdc_geom_bond_type
C25   C31   S    
C41   O5    A    
C5    C42   S    
C19   O38   S    
C26   C32   S    
H36   O29   S    
C37   H21   S    
C32   H10   S    
C4    C8    S    
C17   O26   S    
H1    O20   S    
C36   H19   S    
Cr2   O43   S    
C12   O43   A    
C27   C33   S    
H26   O35   S    
C29   C36   S    
C24   O33   S    
Cr1   O5    S    
Cr6   O10   S    
C12   O1    A    
H28   O37   S    
C39   O4    A    
C7    O30   S    
C21   O36   S    
Cr3   O14   S    
C42   O14   A    
C36   H18   S    
C31   H5    S    
C5    C17   D    
C35   H17   S    
Cr3   O44   S    
C40   O7    A    
C23   O12   A    
Cr4   O34   S    
C34   O2    A    
C9    C13   D    
H29   O38   S    
Cr6   O41   S    
C3    O16   A    
C28   C35   S    
C33   H14   S    
H32   O25   S    
C24   C38   S    
Cr6   O4    S    
C35   H16   S    
C18   C30   D    
C18   O39   S    
C9    O28   S    
C7    C15   D    
C21   C27   D    
C33   H11   S    
C37   H22   S    
C32   H9    S    
C42   O6    A    
Cr1   O42   S    
C16   O25   S    
H4    O32   S    
C22   O35   S    
C22   C34   S    
C1    C19   S    
Cr5   O19   S    
C18   C23   S    
Cr1   O1    S    
C2    O10   A    
H25   O33   S    
C1    O42   A    
C13   O21   S    
Cr3   O18   S    
Cr2   O18   S    
C20   C28   D    
Cr6   O19   S    
H3    O31   S    
C39   O40   A    
C30   C37   S    
C3    O8    A    
H2    O30   S    
Cr5   O3    S    
C15   O24   S    
Cr2   O12   S    
Cr2   O13   S    
Cr1   O11   S    
C21   C39   S    
C4    O17   A    
C12   C20   S    
Cr5   O9    S    
C10   O27   S    
C24   C25   D    
H30   O39   S    
C20   O37   S    
C11   O20   S    
C8    O29   S    
C1    O23   A    
C2    O15   A    
C5    O32   S    
C41   O13   A    
C37   H24   S    
C40   O11   A    
C19   C29   D    
Cr2   O6    S    
C25   C30   S    
C11   C17   S    
C8    C14   D    
C14   C15   S    
H27   O36   S    
C36   H20   S    
Cr4   O19   S    
C38   O3    A    
H34   O27   S    
Cr4   O15   S    
C13   C16   S    
Cr1   O18   S    
C3    C10   S    
Cr5   O40   S    
C34   O41   A    
Cr6   O17   S    
H31   O24   S    
C6    C40   S    
C7    C41   S    
C31   H6    S    
Cr3   O7    S    
C6    O31   S    
C10   C11   D    
Cr5   O16   S    
C6    C16   D    
C4    O9    A    
C38   O34   A    
C14   O22   S    
Cr4   O8    S    
H33   O26   S    
C26   C29   S    
C33   H13   S    
C22   C26   D    
H23   O22   S    
C27   C28   S    
H35   O28   S    
C35   H15   S    
C31   H7    S    
C2    C9    S    
C32   H8    S    
H12   O21   S    
Cr3   O23   S    
C23   O44   A    
Cr4   O2    S    
