data_mof_unit_12026.cif
_audit_creation_date              2013-03-05T16:18:14-0500
_audit_creation_method            fapswitch 2.2
_symmetry_space_group_name_H-M    P1
_symmetry_Int_Tables_number       1
_space_group_crystal_system       triclinic
_cell_length_a                    8.27298
_cell_length_b                    19.095153
_cell_length_c                    22.79549
_cell_angle_alpha                 99.996203
_cell_angle_beta                  90.216204
_cell_angle_gamma                 91.799477
_cell_volume                      3544.51880918

loop_
_atom_site_label
_atom_site_type_symbol
_atom_site_description
_atom_site_fract_x
_atom_site_fract_y
_atom_site_fract_z
_atom_type_partial_charge
P1    P     P_3+3 0.933470 0.664380 0.557030 0.479588
O1    O     O_2   0.108070 0.674980 0.540650 -0.361957
O2    O     O_3   0.861930 0.586170 0.535430 -0.352634
O3    O     O_3   0.366390 0.628250 0.433820 -0.344447
O4    O     O_2   0.290636 0.749208 0.492418 -0.413151
O5    O     O_3   0.950712 0.672816 0.634824 -0.595426
O6    O     O_3   0.294771 0.747269 0.378023 -0.519393
H1    H     H_    0.382652 0.675348 0.307676 0.116083
C1    C     C_3   0.337655 0.777278 0.281803 -0.266949
H2    H     H_    0.232325 0.750479 0.255952 0.199995
H3    H     H_    0.302752 0.830716 0.304869 0.170533
P2    P     P_3+3 0.383600 0.440030 0.365120 0.475415
P3    P     P_3+3 0.947678 0.586111 0.324859 0.475501
O7    O     O_2   0.211060 0.461230 0.357810 -0.359828
O8    O     O_3   0.958150 0.591500 0.402390 -0.365123
O9    O     O_2   0.084313 0.538591 0.296576 -0.374570
O10   O     O_3   0.374957 0.347153 0.345481 -0.556597
O11   O     O_3   0.000317 0.669693 0.308060 -0.490100
C2    C     C_3   0.878353 0.716237 0.329941 0.412524
H4    H     H_    0.869536 0.720315 0.379070 0.092170
H5    H     H_    0.760594 0.697468 0.308052 0.056020
C3    C     C_3   0.919633 0.789881 0.316071 -0.905242
H6    H     H_    0.816622 0.825389 0.327605 0.229114
H7    H     H_    0.027034 0.813538 0.342660 0.256858
C4    C     C_3   0.820398 0.374468 0.342009 0.412739
H8    H     H_    0.697146 0.386667 0.358318 0.094065
H9    H     H_    0.902707 0.421804 0.354678 0.124574
C5    C     C_3   0.814875 0.354972 0.274409 -0.918118
H10   H     H_    0.731218 0.308332 0.260593 0.273713
H11   H     H_    0.771815 0.400051 0.254587 0.222464
H12   H     H_    0.937680 0.341768 0.257236 0.265558
Ba1   Ba    Ba6+2 0.157290 0.533910 0.474710 1.583632
C6    C     C_3   0.821664 0.711027 0.664425 0.872037
H13   H     H_    0.711314 0.707593 0.635849 -0.045189
C7    C     C_3   0.874423 0.789639 0.683809 -1.064268
H14   H     H_    0.984569 0.794145 0.712829 0.276223
H15   H     H_    0.774998 0.819493 0.708596 0.264158
H16   H     H_    0.901892 0.815344 0.644934 0.219790
C8    C     C_3   0.320413 0.317303 0.393933 0.450213
H17   H     H_    0.197171 0.335009 0.405467 0.082591
H18   H     H_    0.402040 0.332462 0.433126 0.139035
C9    C     C_3   0.316588 0.236686 0.376514 -0.976292
H19   H     H_    0.231231 0.219620 0.338644 0.271485
H20   H     H_    0.276664 0.211793 0.414676 0.217282
H21   H     H_    0.439352 0.218202 0.363366 0.269439
P4    P     P_3+3 0.876840 0.335610 0.442930 0.465390
O12   O     O_2   0.702240 0.324970 0.459330 -0.362448
O13   O     O_3   0.948380 0.413820 0.464520 -0.405519
O14   O     O_3   0.443920 0.371740 0.566130 -0.368198
O15   O     O_3   0.876324 0.316368 0.365012 -0.559067
P5    P     P_3+3 0.859980 0.423885 0.675917 0.488410
O16   O     O_3   0.358830 0.538360 0.571050 -0.392970
O17   O     O_3   0.852160 0.408490 0.597560 -0.390617
O18   O     O_2   0.688804 0.445599 0.697776 -0.372520
O19   O     O_3   0.878540 0.343207 0.701852 -0.536895
Ba2   Ba    Ba6+2 0.652900 0.466090 0.525240 1.594087
P6    P     P_3+3 0.391608 0.719315 0.437876 0.437789
C10   C     C_3   0.392855 0.732903 0.327343 0.327452
H22   H     H_    0.521219 0.747460 0.338048 0.010728
O20   O     O_3   0.451480 0.461630 0.428900 -0.410953
C11   C     C_3   0.359340 0.691336 0.630638 0.411602
H23   H     H_    0.400477 0.678188 0.583669 0.112680
H24   H     H_    0.231827 0.675687 0.635227 0.160355
C12   C     C_3   0.376443 0.771471 0.651080 -0.953210
H25   H     H_    0.502624 0.790346 0.645412 0.237365
H26   H     H_    0.294938 0.798881 0.624176 0.237753
H27   H     H_    0.342793 0.785402 0.698633 0.282214
P7    P     P_3+3 0.420942 0.564735 0.645577 0.505722
O21   O     O_2   0.599240 0.538720 0.642170 -0.305260
O22   O     O_3   0.451002 0.656695 0.667474 -0.541280
H28   H     H_    0.944646 0.786413 0.267740 0.275988
C13   C     C_3   0.895942 0.288230 0.653071 0.476793
H29   H     H_    0.795558 0.286430 0.620150 0.162299
H30   H     H_    0.013232 0.296032 0.631671 0.013053
C14   C     C_3   0.893745 0.217360 0.674980 -0.963683
H31   H     H_    0.902274 0.173079 0.636644 0.222010
H32   H     H_    0.997255 0.215722 0.705817 0.260198
H33   H     H_    0.779121 0.210001 0.698665 0.281755
P8    P     P_3+3 0.416060 0.281914 0.567204 0.411861
C15   C     C_3   0.390811 0.296849 0.680306 0.404707
H34   H     H_    0.266755 0.272430 0.675450 0.043929
O23   O     O_2   0.532143 0.247064 0.519009 -0.415921
O24   O     O_3   0.490029 0.263573 0.634559 -0.519075
H35   H     H_    0.385965 0.355093 0.680311 0.102413
H36   H     H_    0.378570 0.309665 0.776416 0.259067
C16   C     C_3   0.459553 0.286366 0.740009 -0.895790
H37   H     H_    0.580856 0.313084 0.747490 0.287090
H38   H     H_    0.469939 0.228666 0.740929 0.248189
C17   C     C_R   0.958193 0.197746 0.468692 -0.306841
H39   H     H_    0.875171 0.176191 0.432899 0.159204
C18   C     C_R   0.990622 0.272125 0.479298 0.311604
C19   C     C_R   0.142016 0.186676 0.548809 -0.335559
H40   H     H_    0.183881 0.162032 0.584995 0.143409
C20   C     C_R   0.207594 0.254063 0.544681 0.218548
C21   C     C_R   0.676267 0.809442 0.446805 -0.368509
H41   H     H_    0.639891 0.828318 0.407293 0.131599
C22   C     C_R   0.601419 0.746379 0.458294 0.208875
C23   C     C_R   0.873414 0.801914 0.523197 -0.293646
H42   H     H_    0.972144 0.822791 0.552720 0.140159
C24   C     C_R   0.821186 0.730202 0.522660 0.223477
C25   C     C_R   0.024959 0.153067 0.506723 0.096936
C26   C     C_R   0.121189 0.298837 0.515432 -0.457688
H43   H     H_    0.162022 0.353635 0.517769 0.159678
C27   C     C_R   0.802770 0.844212 0.483850 0.139318
C28   C     C_R   0.678616 0.705716 0.493675 -0.374473
H44   H     H_    0.626549 0.654467 0.499007 0.153040
C29   C     C_R   0.239414 0.032947 0.530208 -0.172709
C30   C     C_R   0.336283 0.980100 0.544202 -0.122065
C31   C     C_R   0.292444 0.909936 0.523843 -0.111219
C32   C     C_R   0.144715 0.893271 0.494651 -0.148935
C33   C     C_R   0.025268 0.944580 0.496464 0.050048
C34   C     C_R   0.077621 0.018320 0.509924 0.104669
C35   C     C_R   0.860830 0.922508 0.482140 -0.076977
C36   C     C_R   0.754857 0.977976 0.471989 0.100739
C37   C     C_R   0.807056 0.051626 0.486713 0.058137
C38   C     C_R   0.970055 0.073652 0.502519 -0.070344
C39   C     C_R   0.595754 0.964678 0.447629 -0.168191
C40   C     C_R   0.502893 0.018740 0.433027 -0.106948
C41   C     C_R   0.546143 0.088483 0.455608 -0.104962
C42   C     C_R   0.689167 0.103307 0.487745 -0.155412
H45   H     H_    0.301599 0.082974 0.532507 0.142718
H46   H     H_    0.455708 0.993609 0.563282 0.139246
H47   H     H_    0.378888 0.869724 0.527546 0.160805
H48   H     H_    0.121432 0.839770 0.471569 0.196036
H49   H     H_    0.529375 0.915627 0.442602 0.137939
H50   H     H_    0.385730 0.006245 0.411672 0.136697
H51   H     H_    0.463493 0.130108 0.451537 0.155759
H52   H     H_    0.710690 0.155895 0.512421 0.186152
H53   H     H_    0.336648 0.330732 0.039948 0.173776
H54   H     H_    0.244413 0.329565 0.938519 0.171530
C43   C     C_R   0.643990 0.523272 0.335017 -0.502863
C44   C     C_R   0.359736 0.569171 0.950522 -0.075668
C45   C     C_R   0.311050 0.567164 0.890845 0.551827
O25   O     O_2   0.318198 0.621646 0.869500 -0.542327
N1    N     N_R   0.254365 0.504134 0.856454 -0.169626
C46   C     C_R   0.242572 0.442331 0.880464 0.517740
O26   O     O_2   0.189226 0.387354 0.850081 -0.594994
C47   C     C_R   0.293502 0.442181 0.939677 -0.048750
C48   C     C_R   0.352303 0.506089 0.974821 -0.013329
C49   C     C_R   0.416399 0.632757 0.986377 -0.096599
C50   C     C_R   0.465079 0.633769 0.045220 -0.094213
C51   C     C_R   0.460068 0.571089 0.069883 -0.064123
C52   C     C_R   0.404017 0.506955 0.034513 -0.016622
C53   C     C_R   0.288495 0.379552 0.964419 -0.116215
C54   C     C_R   0.341743 0.380217 0.022797 -0.110119
C55   C     C_R   0.399865 0.443703 0.058538 -0.053248
C56   C     C_R   0.454367 0.445362 0.117650 0.523139
N2    N     N_R   0.506557 0.508958 0.152682 -0.168017
C57   C     C_R   0.509089 0.571320 0.129240 0.540591
C58   C     C_2   0.059624 0.487978 0.773608 -0.168180
C59   C     C_3   0.017398 0.492056 0.709193 0.351042
C60   C     C_1   0.302656 0.519209 0.695617 0.259876
C61   C     C_2   0.341511 0.519451 0.751929 -0.189328
C62   C     C_2   0.213473 0.502745 0.794244 0.126980
C63   C     C_R   0.706970 0.542954 0.235443 -0.207625
C64   C     C_R   0.749945 0.548875 0.295676 0.159399
C65   C     C_R   0.500540 0.487026 0.314309 0.299708
C66   C     C_R   0.455141 0.481966 0.254277 -0.187070
C67   C     C_R   0.556608 0.511034 0.214299 0.130177
O27   O     O_2   0.457024 0.390047 0.137685 -0.583204
O28   O     O_2   0.552691 0.627382 0.160368 -0.565554
C68   C     C_2   0.168201 0.487518 0.671703 -0.469764
H55   H     H_    0.507525 0.683924 0.071306 0.192090
H56   H     H_    0.790011 0.562953 0.205184 0.169179
H57   H     H_    0.423178 0.682115 0.969052 0.182331
H58   H     H_    0.465379 0.530952 0.767379 0.179273
H59   H     H_    0.964116 0.477955 0.803920 0.157190
H60   H     H_    0.341433 0.455465 0.238761 0.175654
H61   H     H_    0.678662 0.527253 0.381323 0.173675
H62   H     H_    0.169167 0.454477 0.627748 0.152895
N3    N     N_R   0.780279 0.681143 0.717828 0.256904
O29   O     O_R   0.675195 0.711804 0.755689 -0.352470
O30   O     O_R   0.852076 0.625173 0.729295 -0.398439
I1    I     I_    0.526521 0.794417 0.221641 -0.357955

loop_
_geom_bond_atom_site_label_1
_geom_bond_atom_site_label_2
_geom_bond_distance
_ccdc_geom_bond_type
C11   O22   1.391832 S    
C52   C55   1.409643 A    
N3    O29   1.306001 A    
C65   C66   1.403935 A    
C61   H58   1.085673 S    
C29   C34   1.417906 A    
C21   H41   1.072004 S    
C15   H35   1.114136 S    
C43   C64   1.393874 A    
C36   C37   1.440082 A    
C66   H60   1.082381 S    
N1    C46   1.385359 Am   
C8    H18   1.109696 S    
H36   C16   1.109176 S    
C44   C48   1.410246 A    
N3    O30   1.303479 A    
C24   C28   1.377884 A    
N1    C62   1.452202 S    
P3    O11   1.747378 S    
P7    C60   1.820378 S    
C51   C57   1.410318 A    
C5    H10   1.110680 S    
C7    H15   1.114424 S    
C1    C10   1.526535 S    
C15   O24   1.405040 S    
C15   H34   1.110927 S    
C16   H38   1.111619 S    
C37   C38   1.425915 A    
C30   C31   1.376343 A    
O1    Ba1   2.889520 S    
P1    O1    1.509572 D    
O10   C8    1.398044 S    
C11   H24   1.097710 S    
C32   C33   1.408971 A    
Ba1   O16   2.740226 S    
C15   C16   1.520393 S    
C35   C36   1.444276 A    
C32   H48   1.076050 S    
C40   C41   1.377402 A    
C48   C52   1.422040 A    
C56   N2    1.388027 Am   
P7    O21   1.569100 D    
C43   C65   1.393198 A    
P2    O10   1.751281 S    
C29   C30   1.386700 A    
P2    C65   1.843266 S    
C17   C18   1.415621 A    
H54   C53   1.083288 S    
C1    H2    1.109901 S    
O6    C10   1.406906 S    
H53   C54   1.083230 S    
O19   C13   1.401698 S    
O16   P7    1.756134 S    
H1    C10   1.113025 S    
C11   H23   1.113568 S    
P5    C59   1.873283 S    
C61   C62   1.499191 S    
P2    Ba1   3.413373 S    
Ba1   O13   2.804037 S    
O2    Ba1   2.929427 S    
C9    H20   1.108007 S    
C13   C14   1.521267 S    
C56   O27   1.222114 D    
P1    C24   1.861764 S    
C54   C55   1.407890 A    
C8    C9    1.520857 S    
C3    H6    1.109595 S    
P4    O13   1.584289 S    
C63   C67   1.413184 A    
P1    O5    1.757420 S    
C12   H27   1.109127 S    
O8    Ba1   2.713663 S    
C7    H16   1.106066 S    
C49   C50   1.395781 A    
P8    C20   1.833494 S    
C13   H30   1.105198 S    
C30   H46   1.083353 S    
C8    H17   1.102633 S    
Ba2   O21   2.826571 S    
C16   H37   1.110325 S    
O11   C2    1.401063 S    
P4    C18   1.859462 S    
C4    H8    1.104492 S    
P1    Ba1   3.442338 S    
Ba2   O20   2.739601 S    
P1    O2    1.584322 S    
N2    C67   1.456409 S    
C12   H26   1.111395 S    
O3    P6    1.731217 S    
C11   C12   1.522170 S    
C14   H31   1.109643 S    
P3    C64   1.838101 S    
C4    O15   1.397226 S    
C1    H3    1.111058 S    
O2    Ba2   2.804472 S    
C68   H62   1.087662 S    
C59   C68   1.511108 S    
P6    C22   1.830473 S    
C2    C3    1.522860 S    
C19   C20   1.399134 A    
C6    H13   1.113096 S    
C1    I1    2.137559 S    
C33   C35   1.431007 A    
C21   C22   1.402137 A    
N2    C57   1.386891 Am   
C14   H32   1.110501 S    
O3    Ba1   2.739686 S    
C19   C25   1.417849 A    
C46   C47   1.413010 A    
P2    O7    1.512311 D    
C50   H55   1.083379 S    
C23   C24   1.420902 A    
P3    O8    1.754086 S    
C45   O25   1.222562 D    
C3    H7    1.112015 S    
C57   O28   1.220551 D    
C9    H19   1.110560 S    
C29   H45   1.063712 S    
C18   C26   1.384999 A    
C6    N3    1.468620 S    
C3    H28   1.112773 S    
C34   C38   1.434077 A    
C21   C27   1.415709 A    
C55   C56   1.414119 A    
O17   Ba2   2.714378 S    
C49   H57   1.083278 S    
O13   Ba2   2.930321 S    
P4    O12   1.509809 D    
C43   H61   1.082013 S    
C33   C34   1.440526 A    
C17   C25   1.437802 A    
C58   C59   1.523735 S    
C5    H12   1.110782 S    
C31   H47   1.079216 S    
O7    Ba1   2.826465 S    
C13   H29   1.112927 S    
P8    O23   1.538312 D    
C41   C42   1.384668 A    
C42   H52   1.071635 S    
C63   H56   1.082642 S    
C44   C49   1.406723 A    
O14   Ba2   2.739214 S    
C28   H44   1.083146 S    
P4    O15   1.750177 S    
C39   C40   1.390630 A    
O5    C6    1.418072 S    
O4    P6    1.536495 D    
C53   C54   1.398026 A    
P5    O18   1.547938 D    
C12   H25   1.108997 S    
C2    H4    1.111884 S    
C5    H11   1.106848 S    
C10   H22   1.104766 S    
C22   C28   1.380564 A    
C47   C53   1.407567 A    
C31   C32   1.390562 A    
P8    O24   1.745745 S    
C66   C67   1.412578 A    
C23   C27   1.440680 A    
C58   H59   1.085780 S    
C19   H40   1.079188 S    
C6    C7    1.538240 S    
Ba1   Ba2   4.542135 S    
C44   C45   1.411059 A    
P5    O19   1.754085 S    
C37   C42   1.406484 A    
C26   H43   1.081732 S    
C14   H33   1.110096 S    
O6    P6    1.749212 S    
C36   C39   1.424746 A    
C47   C48   1.409964 A    
C4    C5    1.521343 S    
C27   C35   1.562932 S    
P2    O20   1.539611 S    
O14   P8    1.727873 S    
C60   C61   1.321313 D    
C20   C26   1.385351 A    
P7    O22   1.749817 S    
C23   H42   1.077609 S    
C58   C62   1.359292 D    
P3    O9    1.543900 D    
P4    Ba2   3.442926 S    
C63   C64   1.401542 A    
C45   N1    1.384670 Am   
C25   C38   1.555975 S    
Ba1   O20   2.940873 S    
C51   C52   1.408396 A    
C46   O26   1.221778 D    
C7    H14   1.116301 S    
C40   H50   1.083977 S    
P5    O17   1.759748 S    
C17   H39   1.080894 S    
C50   C51   1.407485 A    
C39   H49   1.059228 S    
C9    H21   1.110851 S    
C60   C68   1.318814 D    
O16   Ba2   2.939951 S    
O12   Ba2   2.890256 S    
C2    H5    1.113029 S    
C4    H9    1.110557 S    
C41   H51   1.080348 S    
