data_mof_unit_42260.cif
_audit_creation_date              2012-12-10T17:28:32-0500
_audit_creation_method            fapswitch 2.2
_symmetry_space_group_name_H-M    P1
_symmetry_Int_Tables_number       1
_space_group_crystal_system       triclinic
_cell_length_a                    10.639431
_cell_length_b                    11.935785
_cell_length_c                    12.865808
_cell_angle_alpha                 93.680959
_cell_angle_beta                  89.99872
_cell_angle_gamma                 87.607997
_cell_volume                      1629.03122631

loop_
_atom_site_label
_atom_site_type_symbol
_atom_type_description
_atom_site_fract_x
_atom_site_fract_y
_atom_site_fract_z
_atom_type_partial_charge
C1    C     C_R   0.499343 0.522647 0.700573 0.920793
C2    C     C_R   0.537519 0.551251 0.132631 -0.341424
C3    C     C_R   0.474675 0.452438 0.973849 0.137362
C4    C     C_R   0.525324 0.547562 0.026151 0.137362
C5    C     C_R   0.402882 0.950237 0.388413 -0.335632
C6    C     C_R   0.597120 0.049763 0.611587 -0.335630
C7    C     C_R   0.410144 0.834582 0.400700 0.035523
C8    C     C_R   0.589855 0.165418 0.599301 0.035519
C9    C     C_R   0.538271 0.860718 0.550614 -0.049624
C10   C     C_R   0.461731 0.139281 0.449385 -0.049626
C11   C     C_R   0.534286 0.977453 0.541200 0.087569
C12   C     C_R   0.500657 0.477353 0.299427 0.920786
C13   C     C_R   0.465716 0.022547 0.458799 0.087567
C14   C     C_R   0.739666 0.504177 0.514024 0.887538
C15   C     C_R   0.260336 0.495822 0.485971 0.887542
C16   C     C_R   0.895095 0.327710 0.607902 -0.178682
C17   C     C_R   0.104905 0.672280 0.392075 -0.178693
C18   C     C_R   0.955824 0.222147 0.610080 -0.145149
C19   C     C_R   0.044177 0.777844 0.389895 -0.145134
C20   C     C_R   0.066178 0.198323 0.552706 0.236404
C21   C     C_R   0.933828 0.801670 0.447275 0.236408
C22   C     C_R   0.119041 0.283819 0.499751 -0.135719
C23   C     C_R   0.497442 0.462523 0.187882 -0.101354
C24   C     C_R   0.880967 0.716176 0.500236 -0.135736
C25   C     C_R   0.064230 0.394417 0.505525 0.038301
C26   C     C_R   0.935774 0.605577 0.494460 0.038303
C27   C     C_R   0.944142 0.411793 0.548728 0.084144
C28   C     C_R   0.055859 0.588201 0.451255 0.084147
C29   C     C_R   0.125140 0.488262 0.470018 -0.219192
C30   C     C_R   0.874864 0.511734 0.529970 -0.219191
C31   C     C_3   0.869924 0.916412 0.450696 -0.924295
C32   C     C_3   0.130080 0.083581 0.549279 -0.924291
C33   C     C_R   0.502558 0.537477 0.812118 -0.101356
C34   C     C_R   0.562481 0.638117 0.971564 -0.308778
C35   C     C_R   0.437518 0.361883 0.028436 -0.308778
C36   C     C_R   0.551875 0.633810 0.863267 0.443685
C37   C     C_R   0.448125 0.366190 0.136733 0.443685
C38   C     C_R   0.462480 0.448749 0.867369 -0.341423
H1    H     H_    0.349374 0.982607 0.324418 0.146912
H2    H     H_    0.423216 0.375541 0.827071 0.180739
H3    H     H_    0.601064 0.710919 0.012852 0.136523
H4    H     H_    0.398936 0.289081 0.987148 0.136523
H5    H     H_    0.409012 0.175891 0.387157 0.161781
H6    H     H_    0.590991 0.824108 0.612841 0.161781
H7    H     H_    0.636507 0.221610 0.654467 0.122889
H8    H     H_    0.363492 0.778390 0.345534 0.122890
H9    H     H_    0.922575 0.975117 0.405179 0.248760
H10   H     H_    0.773945 0.910361 0.417502 0.253267
H11   H     H_    0.862512 0.951497 0.532601 0.239914
H12   H     H_    0.650628 0.017392 0.675582 0.146911
H13   H     H_    0.077420 0.024879 0.594790 0.248761
H14   H     H_    0.137498 0.048500 0.467373 0.239915
H15   H     H_    0.226060 0.089626 0.582477 0.253264
H16   H     H_    0.375186 0.219961 0.145181 0.323057
H17   H     H_    0.624815 0.780038 0.854818 0.323057
H18   H     H_    0.809792 0.343844 0.653152 0.142774
H19   H     H_    0.190212 0.656144 0.346829 0.142769
H20   H     H_    0.914974 0.158567 0.654415 0.131084
H21   H     H_    0.085024 0.841422 0.345553 0.131082
H22   H     H_    0.200816 0.261701 0.451775 0.164166
H23   H     H_    0.799194 0.738296 0.548213 0.164168
H24   H     H_    0.576784 0.624459 0.172929 0.180739
N1    N     N_R   0.523130 0.207800 0.519340 -0.101360
N2    N     N_R   0.476870 0.792200 0.480660 -0.101361
O1    O     O_R   0.506170 0.421700 0.658830 -0.653403
O2    O     O_3   0.592709 0.719809 0.806455 -0.785258
O3    O     O_R   0.493830 0.578300 0.341170 -0.653405
O4    O     O_R   0.491330 0.609310 0.646410 -0.564117
O5    O     O_R   0.508670 0.390690 0.353590 -0.564120
O6    O     O_R   0.690650 0.406190 0.506220 -0.613100
O7    O     O_R   0.309350 0.593810 0.493780 -0.613098
O8    O     O_R   0.675800 0.593810 0.493800 -0.625834
O9    O     O_R   0.324200 0.406190 0.506200 -0.625835
O10   O     O_3   0.407291 0.280191 0.193545 -0.785259
Zn1   Zn    Zn3+2 0.509910 0.374730 0.508290 0.959743
Zn2   Zn    Zn3+2 0.490090 0.625270 0.491710 0.959745

loop_
_geom_bond_atom_site_label_1
_geom_bond_atom_site_label_2
_ccdc_geom_bond_type
C37   O10   S    
C24   H23   S    
C9    N2    A    
O9    Zn1   S    
C10   N1    A    
O8    Zn2   S    
C1    O4    A    
C1    C33   S    
C21   C31   S    
C12   C23   S    
C28   C29   A    
C35   C37   A    
C14   C30   S    
C22   H22   S    
O7    Zn2   S    
C36   O2    S    
C33   C36   A    
C35   H4    S    
C8    H7    S    
C32   H14   S    
H16   O10   S    
C18   H20   S    
C3    C38   A    
C22   C25   A    
C1    O1    A    
C5    C13   A    
C16   C27   A    
C31   H9    S    
C27   C30   A    
C14   O6    A    
C34   H3    S    
C31   H11   S    
C15   C29   S    
C25   C29   A    
C12   O3    A    
C4    C34   A    
C7    H8    S    
C6    C11   A    
C5    C7    A    
C6    C8    A    
C19   H21   S    
C23   C37   A    
C2    C4    A    
C16   H18   S    
C32   H13   S    
C3    C35   A    
N2    Zn2   S    
C6    H12   S    
C9    C11   A    
C15   O9    A    
C12   O5    A    
C20   C22   A    
C26   C30   A    
C31   H10   S    
C5    H1    S    
O4    Zn2   S    
C3    C4    A    
C32   H15   S    
O6    Zn1   S    
H17   O2    S    
C20   C32   S    
C9    H6    S    
C19   C21   A    
C10   H5    S    
C17   C28   A    
C14   O8    A    
C24   C26   A    
C10   C13   A    
C25   C27   A    
C15   O7    A    
C26   C28   A    
C33   C38   A    
O1    Zn1   S    
C38   H2    S    
C11   C13   A    
N1    Zn1   S    
C17   C19   A    
C34   C36   A    
O5    Zn1   S    
C18   C20   A    
C7    N2    A    
C8    N1    A    
C16   C18   A    
C21   C24   A    
C2    C23   A    
O3    Zn2   S    
C2    H24   S    
C17   H19   S    
