data_mof_unit_20196.cif
_audit_creation_date              2012-12-11T14:19:33-0500
_audit_creation_method            fapswitch 2.2
_symmetry_space_group_name_H-M    P1
_symmetry_Int_Tables_number       1
_space_group_crystal_system       triclinic
_cell_length_a                    19.437353
_cell_length_b                    7.232457
_cell_length_c                    17.757022
_cell_angle_alpha                 89.998076
_cell_angle_beta                  107.778804
_cell_angle_gamma                 89.996035
_cell_volume                      2377.06269224

loop_
_atom_site_label
_atom_site_type_symbol
_atom_type_description
_atom_site_fract_x
_atom_site_fract_y
_atom_site_fract_z
_atom_type_partial_charge
O1    O     O_R   0.414820 0.494320 0.416790 -0.538014
O2    O     O_R   0.585180 0.994320 0.583210 -0.538041
O3    O     O_R   0.560270 0.819500 0.430140 -0.552278
O4    O     O_R   0.439730 0.319500 0.569860 -0.552307
C1    C     C_R   0.582182 0.655803 0.416054 0.767353
C2    C     C_R   0.417819 0.155809 0.583948 0.767392
O5    O     O_R   0.413840 0.823740 0.407440 -0.545218
O6    O     O_R   0.586160 0.323740 0.592560 -0.545224
O7    O     O_R   0.437710 0.998590 0.560350 -0.517892
O8    O     O_R   0.562290 0.498590 0.439650 -0.517895
C3    C     C_R   0.388402 0.654738 0.384465 0.774826
C4    C     C_R   0.611596 0.154723 0.615537 0.774800
O9    O     O_3   0.508000 0.662290 0.550200 -0.376594
O10   O     O_3   0.492000 0.162290 0.449800 -0.376569
V1    V     V_3+5 0.498520 0.935380 0.490690 1.508508
V2    V     V_3+5 0.501480 0.435380 0.509310 1.508477
C5    C     C_2   0.780140 0.256275 0.794242 -0.201992
C6    C     C_2   0.219800 0.756397 0.205818 -0.201777
C7    C     C_2   0.829866 0.118335 0.806662 -0.162388
C8    C     C_2   0.170153 0.618268 0.193332 -0.162442
H1    H     H_    0.785812 0.360629 0.839738 0.153717
H2    H     H_    0.214058 0.860948 0.160383 0.153900
C9    C     C_2   0.716943 0.280096 0.721913 -0.154827
C10   C     C_2   0.283010 0.780152 0.278141 -0.154843
C11   C     C_2   0.675393 0.137181 0.686379 -0.287148
C12   C     C_2   0.324605 0.637237 0.313622 -0.287118
H3    H     H_    0.701600 0.420115 0.701589 0.164120
H4    H     H_    0.298315 0.920149 0.298515 0.164201
H5    H     H_    0.688483 0.999027 0.710543 0.146368
H6    H     H_    0.311555 0.499115 0.289419 0.146481
C13   C     C_R   0.303647 0.260986 0.609898 -0.027804
C14   C     C_R   0.696387 0.760839 0.390151 -0.027954
C15   C     C_R   0.366612 0.148338 0.631431 -0.164718
C16   C     C_R   0.633396 0.648313 0.368580 -0.164686
C17   C     C_R   0.378685 0.025319 0.696886 -0.023619
C18   C     C_R   0.621303 0.525382 0.303097 -0.023593
C19   C     C_R   0.321707 0.992912 0.730202 -0.003930
C20   C     C_R   0.678274 0.492963 0.269769 -0.003904
C21   C     C_R   0.266000 0.126592 0.717471 0.003686
C22   C     C_R   0.734007 0.626555 0.282538 0.003726
C23   C     C_R   0.258193 0.263838 0.658818 0.113628
C24   C     C_R   0.741844 0.763700 0.341232 0.113712
C25   C     C_R   0.319347 0.836488 0.778428 -0.025542
C26   C     C_R   0.680600 0.336615 0.221496 -0.025593
C27   C     C_R   0.271940 0.836470 0.824197 -0.240851
C28   C     C_R   0.727992 0.336629 0.175710 -0.240817
C29   C     C_R   0.222817 0.980790 0.818889 0.102047
C30   C     C_R   0.777145 0.480872 0.181061 0.102067
C31   C     C_R   0.218078 0.123791 0.763893 0.016365
C32   C     C_R   0.781926 0.623763 0.236110 0.016337
C33   C     C_R   0.165684 0.264420 0.755479 0.061661
C34   C     C_R   0.834352 0.764300 0.244568 0.061684
C35   C     C_R   0.160662 0.403691 0.698961 -0.187723
C36   C     C_R   0.839412 0.903461 0.301136 -0.187692
C37   C     C_R   0.205459 0.402357 0.651014 -0.116627
C38   C     C_R   0.794611 0.902127 0.349079 -0.116561
C39   C     C_R   0.176804 0.980002 0.866193 -0.247441
C40   C     C_R   0.823153 0.480098 0.133751 -0.247490
C41   C     C_R   0.125923 0.121549 0.860623 -0.127362
C42   C     C_R   0.874070 0.621556 0.139369 -0.127410
C43   C     C_R   0.119543 0.264229 0.803679 0.223214
C44   C     C_R   0.880482 0.764142 0.196354 0.223254
H7    H     H_    0.271596 0.719461 0.862344 0.115719
H8    H     H_    0.728304 0.219693 0.137521 0.115705
H9    H     H_    0.181321 0.869156 0.908586 0.134763
H10   H     H_    0.818603 0.369344 0.091314 0.134735
H11   H     H_    0.121946 0.515214 0.691219 0.178436
H12   H     H_    0.878162 0.014900 0.308919 0.178405
H13   H     H_    0.199837 0.515062 0.609504 0.168836
H14   H     H_    0.800261 0.014762 0.390623 0.168875
O11   O     O_R   0.937810 0.773680 0.060480 -0.545147
O12   O     O_R   0.062190 0.273680 0.939520 -0.545145
O13   O     O_R   0.086190 0.439740 0.092580 -0.508676
O14   O     O_R   0.913810 0.939740 0.907420 -0.508754
C45   C     C_R   0.110693 0.608677 0.116919 0.720435
C46   C     C_R   0.889311 0.108694 0.883082 0.720573
O15   O     O_R   0.939760 0.444210 0.069890 -0.539504
O16   O     O_R   0.060240 0.944210 0.930110 -0.539456
O17   O     O_R   0.914790 0.269640 0.916760 -0.547874
O18   O     O_R   0.085210 0.769640 0.083240 -0.547839
C47   C     C_R   0.920610 0.613090 0.086590 0.708374
C48   C     C_R   0.079387 0.113088 0.913406 0.708524
O19   O     O_3   0.992050 0.601530 0.949880 -0.375486
O20   O     O_3   0.007950 0.101530 0.050120 -0.375457
V3    V     V_3+5 0.001480 0.328340 0.009300 1.456831
V4    V     V_3+5 0.998520 0.828340 0.990700 1.456839
N1    N     N_2   0.066033 0.405148 0.792128 -0.540983
H15   H     H_    0.068817 0.486058 0.840649 0.281993
C49   C     C_3   0.993863 0.350740 0.746079 -0.448484
H16   H     H_    0.972657 0.243064 0.777610 0.173476
H17   H     H_    0.994085 0.296465 0.687615 0.204521
H18   H     H_    0.957492 0.472705 0.736171 0.223117
N2    N     N_2   0.933986 0.905053 0.207900 -0.540968
H19   H     H_    0.931193 0.985950 0.159371 0.282000
C50   C     C_3   0.006161 0.850630 0.253935 -0.448779
H20   H     H_    0.027350 0.742885 0.222420 0.173354
H21   H     H_    0.005960 0.796449 0.312421 0.204502
H22   H     H_    0.042534 0.972575 0.263798 0.223143
C51   C     C_2   0.832140 0.989116 0.741836 0.365475
H23   H     H_    0.801061 0.017142 0.681003 0.104445
O21   O     O_2   0.870663 0.852080 0.755167 -0.518353
C52   C     C_2   0.167989 0.488737 0.258101 0.365444
H24   H     H_    0.198912 0.516965 0.318967 0.104471
O22   O     O_2   0.129755 0.351193 0.244682 -0.518344
C53   C     C_2   0.283896 0.370693 0.535236 0.333713
H25   H     H_    0.323479 0.452844 0.518703 0.075588
O23   O     O_2   0.222162 0.367561 0.490370 -0.530897
C54   C     C_2   0.716164 0.870369 0.464858 0.333614
H26   H     H_    0.676582 0.952344 0.481477 0.075463
O24   O     O_2   0.777917 0.867247 0.509679 -0.530829
C55   C     C_2   0.453302 0.959479 0.740928 0.442290
H27   H     H_    0.463555 0.893374 0.798070 0.041161
O25   O     O_2   0.505110 0.986104 0.717199 -0.539863
C56   C     C_2   0.546677 0.459643 0.259048 0.442281
H28   H     H_    0.536410 0.393653 0.201883 0.041102
O26   O     O_2   0.494879 0.486223 0.282799 -0.539854
C57   C     C_2   0.357752 0.660230 0.775672 0.314561
H29   H     H_    0.366897 0.561936 0.823950 0.053782
O27   O     O_2   0.375936 0.618100 0.717917 -0.536004
C58   C     C_2   0.642179 0.160385 0.224219 0.314724
H30   H     H_    0.632982 0.062210 0.175898 0.053714
O28   O     O_2   0.624036 0.118148 0.281989 -0.535922

loop_
_geom_bond_atom_site_label_1
_geom_bond_atom_site_label_2
_ccdc_geom_bond_type
N1    H15   S    
O4    V2    S    
N2    H19   S    
O13   C45   A    
C55   H27   S    
O1    C3    A    
C41   C48   S    
C18   C56   S    
C2    O7    A    
O12   V3    S    
C50   H22   S    
O3    V1    S    
C21   C23   A    
O5    C3    A    
C53   O23   D    
C5    C9    S    
O14   C46   A    
C6    C10   S    
C7    C46   S    
C17   C19   A    
C10   C12   D    
C57   O27   D    
C39   C41   A    
C8    C52   S    
C26   C58   S    
C40   C42   A    
C54   H26   S    
C42   C44   A    
C27   C29   A    
C23   C37   A    
O18   V4    S    
C43   N1    S    
C24   C38   A    
C40   H10   S    
C50   H20   S    
C26   C28   A    
C31   C33   A    
C33   C43   A    
C32   C34   A    
C46   O17   A    
C9    H3    S    
C49   H17   S    
C45   O18   A    
C16   C18   A    
O16   V4    S    
C30   C32   A    
O2    C4    A    
O6    V2    S    
C13   C53   S    
C58   O28   D    
C56   H28   S    
C28   C30   A    
C35   C37   A    
C11   H5    S    
C36   C38   A    
C41   C43   A    
O20   V3    S    
C29   C31   A    
C7    C51   S    
C5    C7    D    
O5    V1    S    
C3    C12   S    
C27   H7    S    
C5    H1    S    
C8    C45   S    
C28   H8    S    
C33   C35   A    
C14   C16   A    
C19   C25   A    
C20   C26   A    
C29   C39   A    
O11   V4    S    
C42   C47   S    
O16   C48   A    
C51   H23   S    
O15   C47   A    
O6    C4    A    
C1    C16   S    
C13   C15   A    
C34   C36   A    
C55   O25   D    
O1    V2    S    
O14   V4    S    
C49   H18   S    
C52   O22   D    
O2    V1    S    
C25   C27   A    
O13   V3    S    
C37   H13   S    
C25   C57   S    
O4    C2    A    
C21   C31   A    
C12   H6    S    
C38   H14   S    
N1    C49   S    
C44   N2    S    
O17   V3    S    
C17   C55   S    
C58   H30   S    
C13   C23   A    
C51   O21   D    
C6    H2    S    
C10   H4    S    
C39   H9    S    
O3    C1    A    
C56   O26   D    
C50   H21   S    
C30   C40   A    
C53   H25   S    
C2    C15   S    
C4    C11   S    
C18   C20   A    
O7    V1    S    
C1    O8    A    
C19   C21   A    
O8    V2    S    
C57   H29   S    
C20   C22   A    
C22   C32   A    
C22   C24   A    
C15   C17   A    
C54   O24   D    
C6    C8    D    
C9    C11   D    
C52   H24   S    
C35   H11   S    
O15   V3    S    
O19   V4    S    
C36   H12   S    
N2    C50   S    
C14   C54   S    
O9    V2    S    
C14   C24   A    
O10   V1    S    
C34   C44   A    
C49   H16   S    
O12   C48   A    
O11   C47   A    
