data_mof_unit_20839.cif
_audit_creation_date              2012-12-10T19:12:32-0500
_audit_creation_method            fapswitch 2.2
_symmetry_space_group_name_H-M    P1
_symmetry_Int_Tables_number       1
_space_group_crystal_system       triclinic
_cell_length_a                    15.710853
_cell_length_b                    10.641306
_cell_length_c                    9.727659
_cell_angle_alpha                 89.554935
_cell_angle_beta                  89.43404
_cell_angle_gamma                 90.705405
_cell_volume                      1626.05567889

loop_
_atom_site_label
_atom_site_type_symbol
_atom_type_description
_atom_site_fract_x
_atom_site_fract_y
_atom_site_fract_z
_atom_type_partial_charge
C1    C     C_R   0.499370 0.257612 0.500260 0.908976
C2    C     C_3   0.586779 0.929701 0.570412 0.598320
C3    C     C_3   0.418716 0.067939 0.574064 0.282858
C4    C     C_R   0.337839 0.499837 0.500576 0.918034
C5    C     C_3   0.501393 0.072368 0.349880 -0.494030
C6    C     C_3   0.500339 0.121241 0.500574 0.026198
C7    C     C_3   0.502887 0.878553 0.499335 0.026210
C8    C     C_3   0.421820 0.923545 0.577031 -0.498290
C9    C     C_3   0.497487 0.929713 0.349295 -0.501513
C10   C     C_3   0.467106 0.377236 0.083769 -0.305463
C11   C     C_3   0.464819 0.376991 0.921403 -0.240309
C12   C     C_3   0.082570 0.499093 0.503045 0.118511
C13   C     C_3   0.441494 0.596863 0.079971 -0.234097
C14   C     C_3   0.586039 0.522232 0.076809 0.144235
C15   C     C_3   0.445199 0.598958 0.917735 -0.239758
C16   C     C_R   0.500831 0.742230 0.499468 0.882730
C17   C     C_3   0.585856 0.513235 0.914725 -0.199952
C18   C     C_R   0.662099 0.500547 0.499421 0.902526
C19   C     C_3   0.970044 0.387832 0.545115 0.208712
C20   C     C_3   0.028091 0.408343 0.417555 -0.211281
C21   C     C_1   0.248873 0.499400 0.501948 -0.200570
C22   C     C_1   0.750939 0.501496 0.498115 -0.202418
C23   C     C_3   0.971461 0.591240 0.584573 -0.210715
C24   C     C_3   0.025494 0.478194 0.630029 0.204055
C25   C     C_3   0.929720 0.261102 0.586219 -0.423027
C26   C     C_3   0.996454 0.162995 0.619792 -0.880273
C27   C     C_3   0.634329 0.642552 0.129762 -0.393954
C28   C     C_3   0.633606 0.763524 0.042598 -0.925647
C29   C     C_3   0.060949 0.461228 0.774929 -0.407679
C30   C     C_3   0.990441 0.449608 0.883366 -0.896094
C31   C     C_3   0.668526 0.887320 0.491115 -0.341380
C32   C     C_3   0.750986 0.910890 0.570420 -0.813413
C33   C     C_3   0.917034 0.500307 0.499376 0.120093
C34   C     C_3   0.029868 0.611913 0.456978 -0.185244
C35   C     C_3   0.973669 0.521374 0.371906 -0.187484
C36   C     C_1   0.173529 0.499109 0.502726 -0.080261
C37   C     C_1   0.826207 0.501652 0.497951 -0.082118
C38   C     C_3   0.582618 0.076037 0.571790 -0.488656
H1    H     H_    0.053508 0.334151 0.349438 0.140886
H2    H     H_    0.508952 0.300314 0.119469 0.150146
H3    H     H_    0.502437 0.296566 0.882727 0.161815
H4    H     H_    0.398398 0.360814 0.886405 0.184609
H5    H     H_    0.374767 0.578561 0.114695 0.149760
H6    H     H_    0.379507 0.589718 0.877195 0.150014
H7    H     H_    0.625982 0.442967 0.113207 0.098114
H8    H     H_    0.625488 0.432253 0.882791 0.111001
H9    H     H_    0.615840 0.594797 0.862001 0.202312
H10   H     H_    0.458303 0.690737 0.121041 0.162019
H11   H     H_    0.950156 0.539256 0.266380 0.143250
H12   H     H_    0.419154 0.886968 0.684351 0.188851
H13   H     H_    0.469349 0.691520 0.880106 0.164231
H14   H     H_    0.056631 0.703507 0.420803 0.142552
H15   H     H_    0.945935 0.665955 0.651908 0.141759
H16   H     H_    0.586363 0.112220 0.678495 0.169429
H17   H     H_    0.638346 0.119409 0.517068 0.151451
H18   H     H_    0.549477 0.922044 0.765430 0.309374
H19   H     H_    0.452173 0.086956 0.766668 0.322772
H20   H     H_    0.041288 0.151824 0.531898 0.256463
H21   H     H_    0.032515 0.190173 0.712495 0.264566
H22   H     H_    0.964399 0.071142 0.640663 0.250063
H23   H     H_    0.446033 0.108960 0.291821 0.186809
H24   H     H_    0.886636 0.273498 0.676016 0.204850
H25   H     H_    0.890677 0.226643 0.499344 0.204694
H26   H     H_    0.677137 0.756972 0.952518 0.277162
H27   H     H_    0.568955 0.788238 0.009202 0.262245
H28   H     H_    0.658125 0.842663 0.105262 0.238780
H29   H     H_    0.610827 0.668848 0.231340 0.266445
H30   H     H_    0.702372 0.618364 0.144207 0.190446
H31   H     H_    0.948004 0.532189 0.878815 0.256398
H32   H     H_    0.952349 0.362589 0.868117 0.262887
H33   H     H_    0.019140 0.445198 0.987124 0.249735
H34   H     H_    0.560356 0.105030 0.295184 0.196259
H35   H     H_    0.101592 0.376763 0.778380 0.209338
H36   H     H_    0.101587 0.544186 0.799018 0.205436
H37   H     H_    0.758329 0.011505 0.597584 0.243858
H38   H     H_    0.751896 0.852846 0.665759 0.283029
H39   H     H_    0.806313 0.884045 0.505543 0.227172
H40   H     H_    0.664946 0.785127 0.469403 0.176306
H41   H     H_    0.674390 0.936959 0.390526 0.161488
H42   H     H_    0.549457 0.893348 0.283088 0.192718
H43   H     H_    0.436625 0.898446 0.301766 0.199471
H44   H     H_    0.362674 0.095881 0.512126 0.129116
H45   H     H_    0.363787 0.885190 0.526543 0.147639
H46   H     H_    0.402545 0.355254 0.126110 0.166349
N1    N     N_3   0.498170 0.499750 0.138610 -0.053125
N2    N     N_3   0.498850 0.496730 0.861320 -0.058324
O1    O     O_R   0.499980 0.314910 0.616040 -0.593546
O2    O     O_3   0.405892 0.116861 0.706770 -0.776418
O3    O     O_R   0.500040 0.314680 0.383960 -0.648338
O4    O     O_R   0.376750 0.500100 0.616020 -0.616894
O5    O     O_R   0.376810 0.499870 0.383940 -0.623384
O6    O     O_R   0.499960 0.685320 0.616040 -0.592742
O7    O     O_R   0.500020 0.685090 0.383960 -0.664828
O8    O     O_R   0.623190 0.500130 0.616060 -0.621522
O9    O     O_R   0.623250 0.499900 0.383980 -0.650657
O10   O     O_3   0.592593 0.881757 0.706033 -0.771382
Zn1   Zn    Zn3+2 0.499960 0.500150 0.654960 0.931822
Zn2   Zn    Zn3+2 0.500040 0.499850 0.345040 0.887438

loop_
_geom_bond_atom_site_label_1
_geom_bond_atom_site_label_2
_ccdc_geom_bond_type
C1    O1    A    
C10   N1    S    
C8    H45   S    
C19   C20   S    
C3    C6    S    
C32   H37   S    
C30   H33   S    
O9    Zn2   S    
C7    C8    S    
C21   C36   T    
C16   O7    A    
C15   H6    S    
C5    H34   S    
C5    C6    S    
C29   H35   S    
C11   N2    S    
C11   H4    S    
C10   H2    S    
C34   C35   S    
C25   H25   S    
N2    Zn1   S    
C24   C29   S    
C27   H30   S    
C32   H39   S    
C20   C35   S    
C38   H17   S    
C2    C7    S    
C23   C33   S    
C35   H11   S    
C23   C24   S    
C6    C38   S    
C11   H3    S    
N1    Zn2   S    
C15   H13   S    
C14   C27   S    
C12   C36   S    
C26   H21   S    
O4    Zn1   S    
C4    O5    A    
C18   O9    A    
C14   C17   S    
C30   H32   S    
O6    Zn1   S    
C23   H15   S    
C14   H7    S    
C4    O4    A    
C17   N2    S    
C17   H8    S    
C3    C8    S    
C19   C33   S    
C20   H1    S    
C29   H36   S    
O8    Zn1   S    
C25   C26   S    
C22   C37   T    
C33   C37   S    
C1    C6    S    
C2    C31   S    
C9    H42   S    
C28   H28   S    
C5    C9    S    
C29   C30   S    
C2    C38   S    
C31   C32   S    
C38   H16   S    
C23   C34   S    
C12   C20   S    
C3    H44   S    
C5    H23   S    
C26   H20   S    
C15   N2    S    
C28   H26   S    
C7    C16   S    
C16   O6    A    
C13   C15   S    
C18   O8    A    
C12   C34   S    
C8    H12   S    
C13   H5    S    
C30   H31   S    
C31   H40   S    
C7    C9    S    
C1    O3    A    
C3    O2    S    
C18   C22   S    
C17   H9    S    
C14   N1    S    
C32   H38   S    
C13   H10   S    
C31   H41   S    
C12   C24   S    
C34   H14   S    
H19   O2    S    
O3    Zn2   S    
C2    O10   S    
C19   C24   S    
C4    C21   S    
C10   H46   S    
C33   C35   S    
C28   H27   S    
C25   H24   S    
O5    Zn2   S    
H18   O10   S    
C19   C25   S    
C27   H29   S    
C10   C11   S    
C13   N1    S    
C27   C28   S    
C26   H22   S    
O7    Zn2   S    
C9    H43   S    
O1    Zn1   S    
