data_mof_unit_15793.cif
_audit_creation_date              2012-12-10T18:22:13-0500
_audit_creation_method            fapswitch 2.2
_symmetry_space_group_name_H-M    P1
_symmetry_Int_Tables_number       1
_space_group_crystal_system       triclinic
_cell_length_a                    14.988788
_cell_length_b                    14.170478
_cell_length_c                    15.885288
_cell_angle_alpha                 88.158612
_cell_angle_beta                  86.681612
_cell_angle_gamma                 90.299098
_cell_volume                      3366.52664915

loop_
_atom_site_label
_atom_site_type_symbol
_atom_type_description
_atom_site_fract_x
_atom_site_fract_y
_atom_site_fract_z
_atom_type_partial_charge
C1    C     C_R   0.327502 0.499974 0.501632 0.839723
C2    C     C_3   0.610104 0.470632 0.939679 0.458397
C3    C     C_3   0.617129 0.482819 0.042492 0.437014
C4    C     C_1   0.498232 0.496548 0.824898 0.222428
C5    C     C_1   0.510412 0.503277 0.173185 0.162391
C6    C     C_1   0.502613 0.503574 0.248633 -0.062416
C7    C     C_R   0.821278 0.527794 0.429573 -0.085709
C8    C     C_R   0.770558 0.498299 0.503164 -0.190821
C9    C     C_R   0.813038 0.458372 0.572664 -0.169621
C10   C     C_R   0.905469 0.472169 0.576450 0.063368
C11   C     C_R   0.955734 0.512244 0.505475 0.059876
C12   C     C_R   0.497261 0.501232 0.338244 0.895765
C13   C     C_R   0.913690 0.543611 0.432321 -0.016166
C14   C     C_R   0.948983 0.447575 0.650215 -0.109732
C15   C     C_R   0.041181 0.450243 0.650497 -0.180073
C16   C     C_R   0.091385 0.479870 0.577937 0.123787
C17   C     C_R   0.049034 0.514786 0.505966 0.078391
C18   C     C_R   0.100645 0.548610 0.433785 0.035898
C19   C     C_R   0.059124 0.588780 0.363999 -0.091235
C20   C     C_R   0.965315 0.588449 0.363874 -0.101711
C21   C     C_R   0.183630 0.474291 0.575967 -0.244446
C22   C     C_R   0.232956 0.501757 0.502812 0.002488
C23   C     C_R   0.673306 0.499603 0.502810 0.986734
C24   C     C_R   0.193277 0.540447 0.433150 -0.150538
C25   C     C_R   0.570747 0.805280 0.464505 0.405635
C26   C     C_R   0.567501 0.199452 0.459420 0.440059
C27   C     C_R   0.430991 0.796061 0.543426 -0.007535
C28   C     C_R   0.431874 0.200470 0.544791 -0.019622
C29   C     C_R   0.429081 0.897073 0.546490 -0.038357
C30   C     C_R   0.429290 0.099549 0.546871 -0.036201
C31   C     C_R   0.504234 0.949809 0.515667 0.065441
C32   C     C_R   0.504061 0.050379 0.514818 0.057560
C33   C     C_R   0.579948 0.902096 0.485431 -0.125169
C34   C     C_R   0.578565 0.101739 0.480649 -0.141128
C35   C     C_R   0.355729 0.947078 0.582296 -0.127615
C36   C     C_R   0.356050 0.046073 0.582940 -0.109640
C37   C     C_R   0.661427 0.053995 0.470417 -0.079480
C38   C     C_R   0.662332 0.953277 0.476203 -0.056275
C39   C     C_R   0.496343 0.498760 0.661571 0.920374
C40   C     C_3   0.481258 0.597170 0.045813 -0.481969
C41   C     C_3   0.453078 0.420552 0.056093 -0.495334
C42   C     C_3   0.435544 0.428857 0.961808 0.165318
C43   C     C_3   0.477611 0.597087 0.948407 0.193363
C44   C     C_1   0.494540 0.496598 0.750192 0.095770
C45   C     C_3   0.517573 0.500823 0.080925 -0.083127
C46   C     C_3   0.508546 0.497506 0.915098 -0.232515
H1    H     H_    0.405092 0.602060 0.937810 0.141871
H2    H     H_    0.370077 0.465099 0.961459 0.114900
H3    H     H_    0.073279 0.427301 0.706993 0.180374
H4    H     H_    0.217239 0.448550 0.630824 0.151684
H5    H     H_    0.235785 0.562747 0.378542 0.143218
H6    H     H_    0.297021 0.910514 0.609786 0.176428
H7    H     H_    0.297725 0.079865 0.611272 0.181247
H8    H     H_    0.412092 0.607035 0.073784 0.178726
H9    H     H_    0.387865 0.424983 0.093299 0.185915
H10   H     H_    0.479170 0.350453 0.072139 0.302657
H11   H     H_    0.517979 0.658688 0.067300 0.280766
H12   H     H_    0.912258 0.425943 0.708323 0.209344
N1    N     N_R   0.500070 0.750030 0.500040 -0.192965
N2    N     N_R   0.500070 0.249970 0.500040 -0.188679
O1    O     O_R   0.367860 0.580280 0.500020 -0.623445
O2    O     O_R   0.367860 0.419720 0.500020 -0.625801
O3    O     O_R   0.500020 0.580310 0.377140 -0.564632
O4    O     O_R   0.500020 0.419690 0.377140 -0.544562
O5    O     O_R   0.632160 0.580270 0.499980 -0.542678
O6    O     O_R   0.632160 0.419730 0.499980 -0.572656
O7    O     O_R   0.500010 0.580240 0.622850 -0.593742
O8    O     O_R   0.500010 0.419760 0.622850 -0.557603
Zn1   Zn    Zn3+2 0.500020 0.607200 0.499990 1.075217
Zn2   Zn    Zn3+2 0.500020 0.392800 0.499990 1.087487
C47   C     C_2   0.113389 0.634806 0.292681 0.915784
O9    O     O_2   0.158729 0.704521 0.304829 -0.583690
O10   O     O_R   0.113195 0.597573 0.212297 -0.729466
H13   H     H_    0.152980 0.634752 0.169214 0.357390
C48   C     C_2   0.922573 0.645888 0.297629 0.955067
O11   O     O_2   0.928891 0.622550 0.224102 -0.519331
O12   O     O_R   0.876766 0.727754 0.319655 -0.723063
H14   H     H_    0.850796 0.761216 0.269374 0.403087
S1    S     S_3+6 0.637812 0.770424 0.374561 0.108664
O13   O     O_2   0.677240 0.855470 0.326679 -0.250835
O14   O     O_2   0.713297 0.711842 0.404216 -0.213723
O15   O     O_3   0.580327 0.712775 0.304822 -0.457001
H15   H     H_    0.532230 0.756629 0.289384 0.349670
S2    S     S_3+6 0.612183 0.239523 0.357990 0.096782
O16   O     O_2   0.671045 0.324376 0.364801 -0.235010
O17   O     O_2   0.665685 0.164298 0.314040 -0.252935
O18   O     O_3   0.527558 0.266835 0.296851 -0.502140
H16   H     H_    0.491668 0.208049 0.295703 0.355142
C49   C     C_2   0.356789 0.741762 0.586586 0.973523
O19   O     O_2   0.284359 0.738828 0.554987 -0.608122
O20   O     O_R   0.367548 0.699507 0.665933 -0.764187
H17   H     H_    0.311590 0.665244 0.689579 0.338143
C50   C     C_2   0.358081 0.251222 0.588031 0.969566
O21   O     O_2   0.369895 0.290499 0.653811 -0.565343
O22   O     O_R   0.273213 0.249025 0.555942 -0.794814
H18   H     H_    0.226330 0.280210 0.594005 0.344930
C51   C     C_2   0.745783 0.110506 0.466825 0.996054
O23   O     O_2   0.807670 0.092384 0.416629 -0.490514
O24   O     O_R   0.752362 0.187879 0.518580 -0.787192
H19   H     H_    0.811379 0.222858 0.508424 0.372689
C52   C     C_2   0.746868 0.901257 0.488907 0.997990
O25   O     O_2   0.751068 0.847051 0.550020 -0.587211
O26   O     O_R   0.819768 0.910560 0.430252 -0.666343
H20   H     H_    0.872289 0.870289 0.446185 0.377347
S3    S     S_3+6 0.396778 0.320461 0.916736 0.105437
O27   O     O_2   0.444502 0.299540 0.833944 -0.175758
O28   O     O_2   0.405757 0.237267 0.976784 -0.204446
O29   O     O_3   0.287716 0.332722 0.899232 -0.515413
H21   H     H_    0.256704 0.331771 0.956052 0.366082
S4    S     S_3+6 0.506947 0.707138 0.891063 0.104291
O30   O     O_2   0.564657 0.769872 0.939783 -0.162005
O31   O     O_2   0.551844 0.690675 0.805803 -0.232848
O32   O     O_3   0.411223 0.765178 0.875828 -0.530746
H22   H     H_    0.428866 0.820234 0.838423 0.402350
S5    S     S_3+6 0.690291 0.581554 0.072281 0.138050
O33   O     O_2   0.670062 0.676071 0.033894 -0.214021
O34   O     O_2   0.681188 0.593837 0.165467 -0.250329
O35   O     O_3   0.798318 0.557440 0.048235 -0.403428
H23   H     H_    0.832215 0.610799 0.069886 0.413691
S6    S     S_3+6 0.668406 0.380936 0.098273 0.162133
O36   O     O_2   0.761134 0.364805 0.060819 -0.136332
O37   O     O_2   0.678306 0.403465 0.188490 -0.220457
O38   O     O_3   0.611886 0.278133 0.101901 -0.491387
H24   H     H_    0.650367 0.232556 0.131149 0.430485
S7    S     S_3+6 0.696078 0.539018 0.874270 0.147928
O39   O     O_2   0.787528 0.503586 0.892389 -0.194292
O40   O     O_2   0.695901 0.643316 0.885129 -0.163172
O41   O     O_3   0.683567 0.523723 0.771538 -0.519356
H25   H     H_    0.732069 0.561615 0.741653 0.377735
S8    S     S_3+6 0.634955 0.349699 0.903724 0.145384
O42   O     O_2   0.731871 0.325811 0.909978 -0.182018
O43   O     O_2   0.580746 0.274404 0.951005 -0.195805
O44   O     O_3   0.614844 0.341214 0.801558 -0.476943
H26   H     H_    0.624465 0.273883 0.788966 0.394360
C53   C     C_2   0.781336 0.514120 0.347995 0.999298
O45   O     O_2   0.820023 0.467035 0.294124 -0.490189
O46   O     O_R   0.696429 0.548074 0.335910 -0.695329
H27   H     H_    0.665961 0.510842 0.293626 0.384185
C54   C     C_2   0.764884 0.389151 0.632514 0.975006
O47   O     O_2   0.686021 0.399224 0.652808 -0.559007
O48   O     O_R   0.809027 0.308909 0.661952 -0.769106
H28   H     H_    0.769096 0.266351 0.700514 0.378649

loop_
_geom_bond_atom_site_label_1
_geom_bond_atom_site_label_2
_ccdc_geom_bond_type
O18   H16   S    
C50   O21   D    
C27   C29   A    
C34   C37   A    
O38   H24   S    
C41   C42   S    
C19   C47   S    
C35   C36   A    
S2    O18   S    
C1    O2    A    
C37   C51   S    
C51   O23   D    
C7    C8    A    
C4    C46   S    
O12   H14   S    
C2    C46   S    
S3    O28   D    
C52   O25   D    
C18   C24   A    
C23   O6    A    
S2    O17   D    
C38   C52   S    
C6    C12   S    
C5    C6    T    
C12   O4    A    
C15   C16   A    
C11   C13   A    
C8    C23   S    
O29   H21   S    
O2    Zn2   S    
C18   C19   A    
C39   O8    A    
S4    O30   D    
C41   H9    S    
C36   H7    S    
O35   H23   S    
C26   C34   A    
C40   C43   S    
O3    Zn1   S    
C8    C9    A    
S5    O34   D    
S7    O41   S    
C31   C33   A    
C43   S4    S    
O4    Zn2   S    
C49   O20   S    
C9    C10   A    
S6    O38   S    
C24   H5    S    
C1    C22   S    
C52   O26   S    
C21   C22   A    
O41   H25   S    
C21   H4    S    
C51   O24   S    
S6    O37   D    
C28   N2    A    
O10   H13   S    
C40   C45   S    
C14   H12   S    
S3    O29   S    
C53   O45   D    
S2    O16   D    
C10   C14   A    
O20   H17   S    
S1    O14   D    
C12   O3    A    
C16   C17   A    
C4    C44   T    
C5    C45   S    
C3    C45   S    
C20   C48   S    
C28   C50   S    
O7    Zn1   S    
C32   C34   A    
S8    O43   D    
C48   O11   D    
C41   H10   S    
C7    C53   S    
C37   C38   A    
S8    O42   D    
C31   C32   A    
N2    Zn2   S    
S5    O35   S    
C17   C18   A    
C42   H2    S    
C54   O48   S    
C48   O12   S    
S4    O32   S    
N1    Zn1   S    
O8    Zn2   S    
O15   H15   S    
C40   H8    S    
C42   C46   S    
O44   H26   S    
C22   C24   A    
S8    O44   S    
O26   H20   S    
S6    O36   D    
C47   O10   S    
O32   H22   S    
O46   H27   S    
O1    Zn1   S    
C3    S6    S    
C53   O46   S    
C11   C17   A    
C26   S2    S    
C40   H11   S    
C13   C20   A    
C25   S1    S    
C39   O7    A    
C1    O1    A    
S1    O15   S    
C54   O47   D    
C16   C21   A    
C39   C44   S    
S3    O27   D    
C29   C35   A    
C33   C38   A    
O24   H19   S    
C30   C36   A    
C23   O5    A    
C19   C20   A    
C28   C30   A    
C2    C3    S    
O22   H18   S    
C47   O9    D    
C29   C31   A    
C3    S5    S    
O48   H28   S    
C30   C32   A    
C9    C54   S    
S7    O39   D    
C26   N2    A    
O5    Zn1   S    
C2    S8    S    
C27   C49   S    
C15   H3    S    
C43   C46   S    
S4    O31   D    
C10   C11   A    
S1    O13   D    
C2    S7    S    
C7    C13   A    
O6    Zn2   S    
C50   O22   S    
C42   S3    S    
C35   H6    S    
S7    O40   D    
C41   C45   S    
C14   C15   A    
C27   N1    A    
C25   N1    A    
C49   O19   D    
C43   H1    S    
S5    O33   D    
C25   C33   A    
