data_mof_unit_10846.cif
_audit_creation_date              2012-12-10T18:08:25-0500
_audit_creation_method            fapswitch 2.2
_symmetry_space_group_name_H-M    P1
_symmetry_Int_Tables_number       1
_space_group_crystal_system       triclinic
_cell_length_a                    12.575149
_cell_length_b                    13.190244
_cell_length_c                    14.157836
_cell_angle_alpha                 90.964169
_cell_angle_beta                  102.219606
_cell_angle_gamma                 82.307209
_cell_volume                      2274.32809188

loop_
_atom_site_label
_atom_site_type_symbol
_atom_type_description
_atom_site_fract_x
_atom_site_fract_y
_atom_site_fract_z
_atom_type_partial_charge
C1    C     C_R   0.439145 0.690765 0.482100 0.874857
C2    C     C_1   0.496794 0.498726 0.227339 -0.141672
C3    C     C_R   0.724609 0.056714 0.476640 -0.176743
C4    C     C_R   0.597044 0.199099 0.510631 -0.066915
C5    C     C_R   0.292333 0.838611 0.459524 -0.199993
C6    C     C_R   0.260345 0.943468 0.457874 -0.106656
C7    C     C_R   0.338214 0.009903 0.461979 -0.164685
C8    C     C_R   0.449198 0.971815 0.461836 0.084321
C9    C     C_R   0.476490 0.866559 0.447164 0.104949
C10   C     C_R   0.534147 0.034379 0.475750 0.086322
C11   C     C_R   0.640108 0.994831 0.461270 0.163858
C12   C     C_R   0.501252 0.500330 0.670711 0.914512
C13   C     C_R   0.659407 0.894785 0.430179 -0.229392
C14   C     C_R   0.577952 0.831865 0.421464 -0.169847
C15   C     C_R   0.517114 0.134802 0.506079 -0.244368
C16   C     C_R   0.703013 0.159040 0.501290 -0.114413
C17   C     C_R   0.401506 0.799347 0.459444 -0.113408
C18   C     C_R   0.084196 0.389085 0.328129 0.400062
C19   C     C_R   0.805579 0.630043 0.611316 0.537854
C20   C     C_R   0.894849 0.680038 0.607417 -0.307593
C21   C     C_R   0.968483 0.643181 0.550859 0.107238
C22   C     C_R   0.952849 0.550358 0.500504 0.005385
C23   C     C_R   0.561124 0.308625 0.511451 0.874775
C24   C     C_R   0.849546 0.514816 0.489659 0.039343
C25   C     C_R   0.034081 0.492478 0.459583 -0.080959
C26   C     C_R   0.003355 0.425576 0.381539 -0.118838
C27   C     C_R   0.896702 0.394806 0.366034 0.421304
C28   C     C_R   0.824617 0.436591 0.423983 -0.243564
C29   C     C_R   0.146180 0.493799 0.498892 -0.050715
C30   C     C_R   0.194097 0.393862 0.370874 -0.079732
C31   C     C_R   0.498827 0.499460 0.329297 0.875397
C32   C     C_1   0.503602 0.500713 0.772744 -0.123927
C33   C     C_1   0.503476 0.500503 0.858032 0.034475
C34   C     C_1   0.501707 0.499842 0.957686 0.048678
C35   C     C_1   0.499637 0.499216 0.042584 0.059263
C36   C     C_1   0.497443 0.498709 0.142151 0.047675
H1    H     H_    0.767207 0.207538 0.508529 0.193331
H2    H     H_    0.174413 0.533895 0.564150 0.166931
H3    H     H_    0.908290 0.747827 0.649933 0.223417
H4    H     H_    0.749957 0.404837 0.418950 0.248931
H5    H     H_    0.737916 0.864666 0.413778 0.149915
H6    H     H_    0.806020 0.026919 0.466606 0.153330
H7    H     H_    0.440576 0.165655 0.524712 0.160560
H8    H     H_    0.232080 0.788301 0.462412 0.163066
H9    H     H_    0.308479 0.090468 0.462139 0.142989
H10   H     H_    0.175707 0.973373 0.457294 0.162811
H11   H     H_    0.595207 0.756241 0.393137 0.167926
H12   H     H_    0.257629 0.366443 0.332249 0.188546
N1    N     N_R   0.222200 0.444680 0.454480 -0.130289
N2    N     N_R   0.776970 0.554780 0.545050 -0.173112
O1    O     O_R   0.366740 0.627160 0.478260 -0.612555
O2    O     O_R   0.544830 0.662520 0.507340 -0.578696
O3    O     O_R   0.410930 0.482320 0.611740 -0.617184
O4    O     O_R   0.589030 0.517680 0.640820 -0.503247
O5    O     O_R   0.455170 0.337480 0.492660 -0.614160
O6    O     O_R   0.633260 0.372840 0.521740 -0.626371
O7    O     O_R   0.410970 0.482320 0.359180 -0.589287
O8    O     O_R   0.589070 0.517680 0.388260 -0.627329
Zn1   Zn    Zn3+2 0.381090 0.476390 0.480580 0.951409
Zn2   Zn    Zn3+2 0.618910 0.523610 0.519420 1.008572
S1    S     S_3+6 0.857772 0.287408 0.295568 0.043420
O9    O     O_2   0.824392 0.315720 0.190197 -0.206774
O10   O     O_2   0.951855 0.201990 0.311767 -0.276477
O11   O     O_3   0.749416 0.245726 0.326888 -0.620395
H13   H     H_    0.736058 0.184568 0.286821 0.390281
S2    S     S_3+6 0.054992 0.379552 0.200215 0.079660
O12   O     O_2   0.951233 0.448537 0.157897 -0.241220
O13   O     O_2   0.147250 0.413232 0.161359 -0.311187
O14   O     O_3   0.043633 0.258047 0.166356 -0.465035
H14   H     H_    0.022696 0.261061 0.094864 0.392626
S3    S     S_3+6 0.745307 0.660536 0.712776 0.048410
O15   O     O_2   0.628372 0.709757 0.683283 -0.297400
O16   O     O_2   0.751691 0.564752 0.770869 -0.282763
O17   O     O_3   0.815723 0.742804 0.784557 -0.567675
H15   H     H_    0.780510 0.752177 0.840985 0.396182
C37   C     C_3   0.051835 0.712586 0.538090 -0.417285
C38   C     C_3   0.131753 0.729155 0.633497 -0.814649
H16   H     H_    0.090432 0.782268 0.680267 0.265262
H17   H     H_    0.163314 0.656263 0.673950 0.261527
H18   H     H_    0.202454 0.763790 0.619157 0.248762
H19   H     H_    0.097318 0.685070 0.481725 0.211729
H20   H     H_    0.006896 0.788340 0.510761 0.206649

loop_
_geom_bond_atom_site_label_1
_geom_bond_atom_site_label_2
_ccdc_geom_bond_type
S2    O13   D    
C3    H6    S    
O5    Zn1   S    
C19   S3    S    
C19   C20   A    
C18   C26   A    
C13   H5    S    
O3    Zn1   S    
C7    C8    A    
C29   N1    A    
C38   H16   S    
C21   C37   S    
C26   C27   A    
C7    H9    S    
C31   O8    A    
C30   H12   S    
C10   C15   A    
C5    C6    A    
O7    Zn1   S    
S2    O14   S    
C5    C17   A    
C28   H4    S    
O8    Zn2   S    
C34   C35   T    
S1    O10   D    
C27   S1    S    
C35   C36   S    
C8    C9    A    
C22   C25   A    
C29   H2    S    
C18   C30   A    
O2    Zn2   S    
C12   O3    A    
C16   H1    S    
S2    O12   D    
C21   C22   A    
C12   C32   S    
C25   C29   A    
O14   H14   S    
C38   H17   S    
C24   N2    A    
O17   H15   S    
C23   O6    A    
C37   C38   S    
C37   H20   S    
S3    O16   D    
C20   H3    S    
O4    Zn2   S    
C25   C26   A    
O6    Zn2   S    
C2    C31   S    
C4    C16   A    
S1    O11   S    
C9    C14   A    
C33   C34   S    
C1    O1    A    
C6    C7    A    
C9    C17   A    
C30   N1    A    
C22   C24   A    
O1    Zn1   S    
C38   H18   S    
C2    C36   T    
C4    C23   S    
C6    H10   S    
C5    H8    S    
C24   C28   A    
C37   H19   S    
S3    O17   S    
C23   O5    A    
C14   H11   S    
C18   S2    S    
C1    C17   S    
N1    Zn1   S    
N2    Zn2   S    
C32   C33   T    
C31   O7    A    
C4    C15   A    
C15   H7    S    
S3    O15   D    
O11   H13   S    
C11   C13   A    
C19   N2    A    
S1    O9    D    
C1    O2    A    
C3    C11   A    
C10   C11   A    
C20   C21   A    
C8    C10   A    
C27   C28   A    
C13   C14   A    
C12   O4    A    
C3    C16   A    
