data_mof_unit_30478.cif
_audit_creation_date              2013-03-05T16:35:42-0500
_audit_creation_method            fapswitch 2.2
_symmetry_space_group_name_H-M    P1
_symmetry_Int_Tables_number       1
_space_group_crystal_system       triclinic
_cell_length_a                    8.58587
_cell_length_b                    19.103456
_cell_length_c                    18.47605
_cell_angle_alpha                 89.86491
_cell_angle_beta                  98.606143
_cell_angle_gamma                 90.165551
_cell_volume                      2996.29795691

loop_
_atom_site_label
_atom_site_type_symbol
_atom_site_description
_atom_site_fract_x
_atom_site_fract_y
_atom_site_fract_z
_atom_type_partial_charge
O1    O     O_R   0.500010 0.398180 0.560840 -0.620849
O2    O     O_R   0.499990 0.601820 0.439160 -0.619726
O3    O     O_R   0.499930 0.398180 0.439210 -0.615493
O4    O     O_R   0.500070 0.601820 0.560790 -0.613857
C1    C     C_R   0.505433 0.365631 0.500552 0.887149
C2    C     C_R   0.499873 0.634553 0.499854 0.887023
O5    O     O_R   0.271780 0.500000 0.546590 -0.614142
O6    O     O_R   0.728220 0.500000 0.453410 -0.614655
O7    O     O_R   0.271710 0.499990 0.424960 -0.631474
O8    O     O_R   0.728290 0.500010 0.575040 -0.635495
C3    C     C_R   0.200914 0.500004 0.480911 0.971138
C4    C     C_R   0.799084 0.500112 0.519090 0.957504
Zn1   Zn    Zn3+2 0.500050 0.500000 0.581210 0.943116
Zn2   Zn    Zn3+2 0.499950 0.500000 0.418790 0.944979
C5    C     C_2   0.035931 0.500168 0.470558 -0.378720
C6    C     C_2   0.964052 0.499899 0.529459 -0.381949
H1    H     H_    0.974072 0.500584 0.414671 0.180608
H2    H     H_    0.025892 0.499462 0.585349 0.181798
C7    C     C_R   0.440705 0.754150 0.447711 0.166807
C8    C     C_R   0.651749 0.260069 0.552906 0.172422
C9    C     C_R   0.478607 0.825154 0.449856 -0.222497
C10   C     C_R   0.670406 0.187764 0.551967 -0.242464
H3    H     H_    0.413175 0.860565 0.410593 0.182600
H4    H     H_    0.762247 0.163201 0.590319 0.175795
C11   C     C_R   0.595174 0.851649 0.503995 -0.083418
C12   C     C_R   0.573007 0.146639 0.501710 -0.094397
C13   C     C_R   0.679227 0.807099 0.556468 0.445643
C14   C     C_R   0.452761 0.177110 0.451287 0.499736
C15   C     C_R   0.640907 0.736358 0.554905 -0.308656
C16   C     C_R   0.434202 0.249424 0.451720 -0.305152
H5    H     H_    0.705515 0.701304 0.594677 0.175689
H6    H     H_    0.342758 0.273892 0.413232 0.204654
C17   C     C_R   0.523049 0.709697 0.501276 -0.117071
C18   C     C_R   0.530566 0.290702 0.502535 -0.140046
C19   C     C_R   0.552003 0.962344 0.564567 -0.056798
C20   C     C_R   0.661773 0.036633 0.451442 -0.064884
H7    H     H_    0.504610 0.933689 0.607055 0.172105
H8    H     H_    0.702766 0.065432 0.407328 0.166152
C21   C     C_R   0.544449 0.034732 0.563407 -0.135633
C22   C     C_R   0.669276 0.964034 0.452574 -0.131709
H9    H     H_    0.493273 0.061940 0.605522 0.151960
H10   H     H_    0.714402 0.936587 0.408877 0.149959
C23   C     C_R   0.595264 0.071561 0.505787 0.138881
C24   C     C_R   0.612400 0.927045 0.508668 0.150818
C25   C     C_R   0.599149 0.543611 0.732712 0.042494
C26   C     C_R   0.400517 0.456578 0.267213 0.041843
H11   H     H_    0.677258 0.577831 0.708129 0.124835
H12   H     H_    0.322018 0.422509 0.291728 0.133132
C27   C     C_R   0.601202 0.544426 0.808814 -0.266934
C28   C     C_R   0.398635 0.455760 0.191121 -0.265732
H13   H     H_    0.682764 0.578998 0.841905 0.140580
H14   H     H_    0.316831 0.421336 0.157964 0.142799
C29   C     C_R   0.500412 0.499871 0.841362 0.118133
C30   C     C_R   0.499906 0.500135 0.158657 0.116535
C31   C     C_R   0.399567 0.455301 0.795054 -0.271492
C32   C     C_R   0.601118 0.544501 0.205028 -0.271430
H15   H     H_    0.318151 0.420683 0.817010 0.137857
H16   H     H_    0.682885 0.578973 0.183120 0.138538
C33   C     C_R   0.401240 0.456222 0.719209 0.013707
C34   C     C_R   0.599360 0.543542 0.280868 0.012833
H17   H     H_    0.323106 0.421985 0.683971 0.125521
H18   H     H_    0.677882 0.577579 0.316164 0.125722
N1    N     N_R   0.500020 0.499980 0.689440 -0.093203
N2    N     N_R   0.499980 0.500020 0.310560 -0.094494
C35   C     C_R   0.478363 0.437507 0.960692 -0.176517
C36   C     C_R   0.522125 0.562501 0.039357 -0.175834
H19   H     H_    0.463898 0.388113 0.931849 0.136982
H20   H     H_    0.536630 0.611886 0.068219 0.137335
C37   C     C_R   0.478190 0.437580 0.036699 -0.171470
C38   C     C_R   0.522253 0.562433 0.963344 -0.170487
H21   H     H_    0.463585 0.388241 0.063851 0.141458
H22   H     H_    0.536812 0.611779 0.936200 0.142017
C39   C     C_R   0.500063 0.500077 0.077317 0.116645
C40   C     C_R   0.500373 0.499934 0.922719 0.116448
C41   C     C_3   0.307541 0.728952 0.390475 -0.388749
C42   C     C_3   0.361632 0.722235 0.315782 -0.815126
H23   H     H_    0.461657 0.685125 0.318699 0.267660
H24   H     H_    0.263005 0.702281 0.275251 0.246498
H25   H     H_    0.398993 0.774016 0.296859 0.254923
H26   H     H_    0.259182 0.678002 0.405819 0.206699
H27   H     H_    0.208174 0.766660 0.386300 0.212031
C43   C     C_3   0.767808 0.302237 0.605557 -0.391647
C44   C     C_3   0.720456 0.303046 0.681954 -0.804359
H28   H     H_    0.805449 0.335467 0.718927 0.242105
H29   H     H_    0.600939 0.325571 0.680321 0.270846
H30   H     H_    0.721256 0.249056 0.704459 0.251501
H31   H     H_    0.887371 0.279071 0.608967 0.199772
H32   H     H_    0.779331 0.356638 0.586039 0.210735
S1    S     S_3+6 0.833963 0.837706 0.623257 0.028050
O9    O     O_2   0.930408 0.891472 0.590143 -0.249839
O10   O     O_2   0.765580 0.870863 0.685141 -0.313732
O11   O     O_3   0.952182 0.771175 0.656070 -0.534072
H33   H     H_    0.902277 0.750476 0.696172 0.354836
S2    S     S_3+6 0.321542 0.126570 0.388940 0.008950
O12   O     O_2   0.406932 0.100837 0.328891 -0.308202
O13   O     O_2   0.263044 0.064858 0.427868 -0.297945
O14   O     O_3   0.166876 0.175378 0.352108 -0.566599
H34   H     H_    0.100051 0.143353 0.318541 0.390394

loop_
_geom_bond_atom_site_label_1
_geom_bond_atom_site_label_2
_geom_bond_distance
_ccdc_geom_bond_type
C36   H20   1.082471 S    
C27   C29   1.408559 A    
C8    C43   1.515627 S    
C13   C15   1.389295 A    
C29   C40   1.503215 S    
C42   H25   1.110744 S    
O7    Zn2   1.979908 S    
O14   H34   0.990642 S    
C21   H9    1.083634 S    
O5    C3    1.273497 A    
C28   C30   1.408475 A    
O1    C1    1.283935 A    
C14   S2    1.771709 S    
C7    C9    1.393284 A    
C42   H24   1.110332 S    
C31   C33   1.403600 A    
C35   C37   1.404528 A    
C5    C6    1.328965 D    
C15   C17   1.401610 A    
C34   H18   1.081880 S    
O4    Zn1   1.980494 S    
C37   H21   1.082450 S    
C3    C5    1.400735 S    
C4    C6    1.400609 S    
C35   H19   1.082445 S    
C38   C40   1.408873 A    
C28   H14   1.082359 S    
C37   C39   1.408775 A    
S1    O10   1.503223 D    
C41   H26   1.109822 S    
C22   C24   1.399243 A    
C8    C18   1.415026 A    
C25   H11   1.081955 S    
O2    C2    1.285380 A    
C11   C24   1.448932 S    
C12   C23   1.447768 S    
C26   H12   1.081869 S    
C29   C31   1.408583 A    
C9    H3    1.085071 S    
C30   C32   1.408494 A    
C33   H17   1.081873 S    
C16   C18   1.398237 A    
C20   C22   1.388534 A    
C42   H23   1.110182 S    
O4    C2    1.286342 A    
C7    C17   1.410856 A    
C41   H27   1.111899 S    
C21   C23   1.397287 A    
S2    O14   1.682145 S    
C27   H13   1.082342 S    
C36   C39   1.408685 A    
C25   N1    1.361511 A    
C35   C40   1.408755 A    
C32   C34   1.403640 A    
C26   N2    1.361518 A    
C19   C21   1.384533 A    
C41   C42   1.526322 S    
C30   C39   1.503046 S    
C44   H28   1.110385 S    
Zn1   N1    1.999702 S    
C25   C27   1.403662 A    
O6    C4    1.273513 A    
Zn2   N2    1.999702 S    
C1    C18   1.447744 S    
S1    O11   1.683109 S    
S2    O13   1.503353 D    
C19   C24   1.398521 A    
O7    C3    1.275216 A    
O3    Zn2   1.980498 S    
O8    C4    1.275187 A    
C44   H29   1.110085 S    
C8    C10   1.391446 A    
C31   H15   1.082341 S    
C10   H4    1.085093 S    
O1    Zn1   1.982052 S    
C20   H8    1.083273 S    
C5    H1    1.088210 S    
C9    C11   1.399366 A    
O6    Zn2   1.968539 S    
C19   H7    1.083400 S    
C12   C14   1.409161 A    
O3    C1    1.286161 A    
O8    Zn1   1.979908 S    
C11   C13   1.405445 A    
C26   C28   1.403687 A    
C33   N1    1.361595 A    
C2    C17   1.448417 S    
C34   N2    1.361662 A    
C7    C41   1.514785 S    
C14   C16   1.391227 A    
C15   H5    1.083493 S    
C16   H6    1.083537 S    
C36   C38   1.404581 A    
C43   H32   1.108223 S    
C22   H10   1.083358 S    
O11   H33   0.990739 S    
C32   H16   1.082355 S    
C13   S1    1.771422 S    
S2    O12   1.502726 D    
O2    Zn2   1.982048 S    
O5    Zn1   1.968539 S    
C44   H30   1.110795 S    
C6    H2    1.088209 S    
C43   C44   1.526356 S    
C10   C12   1.394975 A    
C20   C23   1.398726 A    
C38   H22   1.082431 S    
S1    O9    1.502914 D    
C43   H31   1.112107 S    
