data_mof_unit_5058.cif
_audit_creation_date              2012-10-26T20:40:17-0400
_audit_creation_method            fapswitch 2.2
_symmetry_space_group_name_H-M    P1
_symmetry_Int_Tables_number       1
_space_group_crystal_system       triclinic
_cell_length_a                    15.111378
_cell_length_b                    10.791623
_cell_length_c                    9.64219
_cell_angle_alpha                 92.130912
_cell_angle_beta                  90.378002
_cell_angle_gamma                 92.921902
_cell_volume                      1569.22562743

loop_
_atom_site_label
_atom_site_type_symbol
_atom_type_description
_atom_site_fract_x
_atom_site_fract_y
_atom_site_fract_z
_atom_type_partial_charge
C1    C     C_R   0.498547 0.262638 0.497869 0.550111
C2    C     C_R   0.187088 0.506205 0.625044 -0.147559
C3    C     C_R   0.232366 0.502452 0.498773 -0.015659
C4    C     C_R   0.328974 0.500461 0.499525 0.524674
C5    C     C_R   0.185095 0.500561 0.372686 -0.135318
C6    C     C_R   0.348744 0.124076 0.614360 -0.106816
C7    C     C_R   0.278728 0.057285 0.675163 -0.121891
C8    C     C_R   0.278987 0.928549 0.678896 -0.120089
C9    C     C_R   0.349235 0.865792 0.621769 -0.112345
C10   C     C_R   0.421362 0.931709 0.560951 0.001936
C11   C     C_R   0.421388 0.062635 0.557204 0.000781
C12   C     C_R   0.906872 0.495938 0.374673 0.001935
C13   C     C_R   0.493143 0.128181 0.493797 0.009195
C14   C     C_R   0.561666 0.064342 0.430370 0.046108
C15   C     C_R   0.560825 0.936396 0.434449 -0.142454
C16   C     C_R   0.497637 0.736946 0.501491 0.549234
C17   C     C_R   0.493201 0.870483 0.502240 -0.026801
C18   C     C_R   0.634606 0.633890 0.154633 -0.114296
C19   C     C_R   0.713294 0.670269 0.092619 -0.249700
C20   C     C_R   0.717388 0.667045 0.950522 -0.089439
C21   C     C_R   0.639294 0.640537 0.873201 0.371594
C22   C     C_R   0.567680 0.566774 0.930696 0.138730
C23   C     C_R   0.958047 0.503957 0.753864 -0.133501
C24   C     C_R   0.566773 0.565482 0.079603 0.117619
C25   C     C_R   0.436837 0.436058 0.070168 -0.002497
C26   C     C_R   0.436879 0.435970 0.922632 -0.024124
C27   C     C_R   0.671329 0.497456 0.500651 0.582774
C28   C     C_R   0.814614 0.494732 0.376539 -0.175089
C29   C     C_R   0.768685 0.492564 0.502627 0.009318
C30   C     C_R   0.816343 0.485198 0.628839 0.259061
C31   C     C_R   0.909363 0.496053 0.628617 0.014154
C32   C     C_R   0.954452 0.498342 0.501070 0.020090
C33   C     C_3   0.623644 0.837279 0.795778 -0.003779
C34   C     C_R   0.050098 0.508330 0.752656 -0.153189
C35   C     C_3   0.534564 0.867710 0.864948 -0.276990
C36   C     C_3   0.545422 0.915056 0.015699 -0.454396
C37   C     C_3   0.776858 0.350835 0.800334 -0.013087
C38   C     C_3   0.689669 0.277453 0.769215 -0.222434
C39   C     C_3   0.690092 0.147981 0.825326 -0.496639
C40   C     C_R   0.095085 0.505649 0.626486 0.013256
C41   C     C_R   0.047432 0.501796 0.499966 0.066981
C42   C     C_R   0.092710 0.500349 0.372469 0.016888
C43   C     C_R   0.044814 0.497854 0.247239 -0.130835
C44   C     C_R   0.952412 0.496222 0.248350 -0.119452
Cu1   Cu    Cu3+1 0.499990 0.499990 0.640660 0.961907
Cu2   Cu    Cu3+1 0.500010 0.500010 0.359340 0.948665
H1    H     H_    0.778631 0.494898 0.279079 0.155022
H2    H     H_    0.775041 0.710261 0.902165 0.138508
H3    H     H_    0.385117 0.383064 0.865153 0.113139
H4    H     H_    0.925339 0.506496 0.853425 0.137232
H5    H     H_    0.086082 0.512823 0.850493 0.100392
H6    H     H_    0.223271 0.508655 0.722698 0.120972
H7    H     H_    0.219946 0.498461 0.274761 0.122984
H8    H     H_    0.078777 0.497139 0.148588 0.097478
H9    H     H_    0.916555 0.494710 0.150499 0.106154
H10   H     H_    0.629468 0.888946 0.698835 0.144874
H11   H     H_    0.681401 0.874835 0.859116 0.116459
H12   H     H_    0.344489 0.223641 0.610985 0.127570
H13   H     H_    0.503864 0.941865 0.807670 0.145323
H14   H     H_    0.487095 0.785710 0.860539 0.196773
H15   H     H_    0.574762 0.844918 0.079739 0.167027
H16   H     H_    0.479564 0.935414 0.058874 0.160088
H17   H     H_    0.588329 0.001478 0.022937 0.171432
H18   H     H_    0.787269 0.357709 0.914632 0.149315
H19   H     H_    0.832967 0.298927 0.756320 0.125940
H20   H     H_    0.634377 0.326918 0.817607 0.206165
H21   H     H_    0.678662 0.269070 0.655256 0.196087
H22   H     H_    0.742129 0.094057 0.773834 0.149357
H23   H     H_    0.223647 0.105608 0.718496 0.111534
H24   H     H_    0.624521 0.100768 0.803032 0.149940
H25   H     H_    0.701819 0.152829 0.939282 0.169221
H26   H     H_    0.224199 0.876962 0.725304 0.116099
H27   H     H_    0.346092 0.765659 0.625132 0.132462
H28   H     H_    0.614644 0.887863 0.387007 0.134541
H29   H     H_    0.384960 0.383292 0.122055 0.112974
H30   H     H_    0.628425 0.666326 0.259506 0.189482
H31   H     H_    0.767566 0.713379 0.153938 0.130889
I1    I     I_    0.671852 0.154565 0.332827 -0.467840
N1    N     N_R   0.500860 0.501210 0.147910 -0.233093
N2    N     N_R   0.500890 0.501290 0.852040 -0.256413
O1    O     O_R   0.499990 0.319640 0.618810 -0.531852
O2    O     O_3   0.772045 0.473143 0.753167 -0.572594
O3    O     O_R   0.500000 0.319660 0.381240 -0.465870
O4    O     O_R   0.370250 0.499960 0.618800 -0.531716
O5    O     O_R   0.370260 0.499980 0.381230 -0.511080
O6    O     O_R   0.500000 0.680340 0.618760 -0.454964
O7    O     O_R   0.500010 0.680360 0.381190 -0.526440
O8    O     O_R   0.629740 0.500020 0.618770 -0.419517
O9    O     O_R   0.629750 0.500040 0.381200 -0.522832
O10   O     O_3   0.628925 0.708824 0.757517 -0.517851

loop_
_geom_bond_atom_site_label_1
_geom_bond_atom_site_label_2
_ccdc_geom_bond_type
C5    C42   A    
C28   H1    S    
C27   C29   S    
C39   H22   S    
C6    H12   S    
C19   C20   A    
C7    C8    A    
Cu2   O9    S    
Cu1   Cu2   S    
C34   H5    S    
C29   C30   A    
C12   C28   A    
C34   C40   A    
C5    H7    S    
C28   C29   A    
C38   C39   S    
C10   C17   A    
C1    O1    A    
C35   H13   S    
C18   C19   A    
C41   C42   A    
C19   H31   S    
C43   H8    S    
Cu2   N1    S    
C38   H20   S    
C8    C9    A    
C37   H19   S    
C16   O7    A    
C18   H30   S    
C32   C41   A    
C27   O9    A    
C18   C24   A    
C36   H17   S    
C9    C10   A    
Cu2   O5    S    
C33   H10   S    
C21   C22   A    
C12   C32   A    
C16   O6    A    
C9    H27   S    
C36   H16   S    
C21   O10   S    
C8    H26   S    
Cu1   O8    S    
C26   H3    S    
C6    C11   A    
C16   C17   S    
C23   H4    S    
C4    O5    A    
C25   C26   A    
C26   N2    A    
C35   H14   S    
C25   H29   S    
C35   C36   S    
C23   C31   A    
C30   O2    S    
C43   C44   A    
C37   C38   S    
C24   N1    A    
C31   C32   A    
C4    O4    A    
C23   C34   A    
C38   H21   S    
C20   H2    S    
C2    H6    S    
C40   C41   A    
C22   C24   A    
C37   O2    S    
Cu1   O4    S    
C1    C13   S    
C42   C43   A    
C36   H15   S    
C37   H18   S    
Cu2   O7    S    
C15   C17   A    
C33   H11   S    
C25   N1    A    
Cu1   O1    S    
C3    C5    A    
C7    H23   S    
C6    C7    A    
C1    O3    A    
C2    C3    A    
C22   N2    A    
C12   C44   A    
C33   O10   S    
C11   C13   A    
C44   H9    S    
C30   C31   A    
C33   C35   S    
C39   H24   S    
Cu1   O6    S    
Cu1   N2    S    
C14   I1    S    
C27   O8    A    
C10   C11   A    
Cu2   O3    S    
C2    C40   A    
C15   H28   S    
C20   C21   A    
C39   H25   S    
C14   C15   A    
C13   C14   A    
C3    C4    S    
