data_mof_unit_27099.cif
_audit_creation_date              2012-12-10T17:22:56-0500
_audit_creation_method            fapswitch 2.2
_symmetry_space_group_name_H-M    P1
_symmetry_Int_Tables_number       1
_space_group_crystal_system       triclinic
_cell_length_a                    10.335179
_cell_length_b                    10.659596
_cell_length_c                    10.792285
_cell_angle_alpha                 88.133718
_cell_angle_beta                  94.988566
_cell_angle_gamma                 79.554965
_cell_volume                      1163.4238547

loop_
_atom_site_label
_atom_site_type_symbol
_atom_type_description
_atom_site_fract_x
_atom_site_fract_y
_atom_site_fract_z
_atom_type_partial_charge
C1    C     C_R   0.444548 0.515370 0.267645 0.979813
C2    C     C_3   0.498009 0.122829 0.488910 -0.382428
C3    C     C_3   0.600978 0.939404 0.566225 0.296055
C4    C     C_3   0.385258 0.063048 0.425179 0.189088
C5    C     C_2   0.416401 0.520455 0.134242 -0.392793
C6    C     C_2   0.585560 0.531484 0.857574 -0.282806
C7    C     C_2   0.507537 0.550766 0.062810 0.315323
C8    C     C_2   0.529745 0.482598 0.949423 0.295156
C9    C     C_2   0.061669 0.526103 0.471982 0.505839
C10   C     C_2   0.922511 0.514707 0.507418 0.454052
C11   C     C_3   0.409434 0.954628 0.173379 0.190779
C12   C     C_R   0.555868 0.496174 0.731884 0.957269
C13   C     C_3   0.279452 0.905610 0.180074 -0.364959
C14   C     C_3   0.170630 0.980649 0.087770 -0.858740
C15   C     C_3   0.398633 0.092768 0.795839 0.187200
C16   C     C_3   0.287194 0.206043 0.753244 -0.289408
C17   C     C_3   0.173478 0.217041 0.835420 -0.896564
C18   C     C_3   0.895851 0.244098 0.404122 0.275577
C19   C     C_3   0.959633 0.206440 0.538495 -0.496954
C20   C     C_3   0.923907 0.083814 0.589113 -0.624442
C21   C     C_3   0.151871 0.633127 0.737411 0.244101
C22   C     C_3   0.136216 0.600764 0.873135 -0.339477
C23   C     C_R   0.499455 0.257972 0.494468 1.028031
C24   C     C_3   0.146789 0.713506 0.953045 -0.909054
C25   C     C_R   0.498646 0.742159 0.502390 1.011116
C26   C     C_3   0.604292 0.017181 0.444516 0.248737
C27   C     C_3   0.382731 0.981331 0.545658 0.199142
C28   C     C_3   0.492227 0.957257 0.381959 0.374663
C29   C     C_3   0.493022 0.043501 0.609357 0.318738
C30   C     C_3   0.492134 0.877947 0.502386 -0.337513
Cl1   Cl    Cl    0.739999 0.009889 0.352940 -0.551169
Cl2   Cl    Cl    0.234552 0.940933 0.595597 -0.694649
Cl3   Cl    Cl    0.735384 0.872807 0.676267 -0.503662
Cl4   Cl    Cl    0.242834 0.163259 0.345564 -0.617688
Cl5   Cl    Cl    0.501034 0.325257 0.944296 -0.648584
Cl6   Cl    Cl    0.615105 0.655776 0.112424 -0.493739
Cl7   Cl    Cl    0.865464 0.596380 0.634818 -0.555118
Cl8   Cl    Cl    0.079506 0.533186 0.311410 -0.488651
H1    H     H_    0.623479 0.619576 0.867007 0.190017
H2    H     H_    0.430457 0.100818 0.895475 0.202315
H3    H     H_    0.365837 0.999456 0.794377 0.152125
H4    H     H_    0.325615 0.296446 0.754113 0.295022
H5    H     H_    0.249905 0.195617 0.656053 0.247208
H6    H     H_    0.129260 0.129844 0.831308 0.270336
H7    H     H_    0.096013 0.300438 0.801902 0.295840
H8    H     H_    0.209000 0.230901 0.933238 0.282928
H9    H     H_    0.950212 0.179250 0.339848 0.216189
H10   H     H_    0.793777 0.230782 0.390524 0.210330
H11   H     H_    0.067736 0.194618 0.537854 0.283480
H12   H     H_    0.340889 0.468987 0.098256 0.186195
H13   H     H_    0.927937 0.280133 0.605288 0.226319
H14   H     H_    0.815954 0.098919 0.596396 0.283307
H15   H     H_    0.974579 0.058190 0.683793 0.269522
H16   H     H_    0.954317 0.003989 0.528233 0.323098
H17   H     H_    0.072597 0.714579 0.701655 0.203094
H18   H     H_    0.247739 0.664171 0.730155 0.182569
H19   H     H_    0.038420 0.573131 0.880663 0.285668
H20   H     H_    0.214142 0.518212 0.907670 0.237279
H21   H     H_    0.245355 0.740148 0.948461 0.251635
H22   H     H_    0.134416 0.687187 0.051120 0.309186
H23   H     H_    0.447564 0.928177 0.082864 0.179051
H24   H     H_    0.068202 0.796123 0.919715 0.298241
H25   H     H_    0.396580 0.060523 0.172632 0.179590
H26   H     H_    0.295922 0.802950 0.159540 0.225988
H27   H     H_    0.246652 0.912679 0.275180 0.283218
H28   H     H_    0.152929 0.083641 0.107002 0.308693
H29   H     H_    0.077277 0.944707 0.095898 0.302706
H30   H     H_    0.199224 0.969295 0.991520 0.241605
N1    N     N_2   0.157310 0.552180 0.551120 0.013270
N2    N     N_2   0.842690 0.447820 0.448880 0.040416
O1    O     O_R   0.568940 0.489500 0.307530 -0.545088
O2    O     O_3   0.509169 0.094657 0.728192 -0.573349
O3    O     O_3   0.900089 0.370200 0.365356 -0.532063
O4    O     O_3   0.142164 0.523703 0.670472 -0.605442
O5    O     O_R   0.431060 0.510500 0.692470 -0.632580
O6    O     O_R   0.348880 0.522990 0.340350 -0.576350
O7    O     O_R   0.651120 0.477010 0.659650 -0.570629
O8    O     O_R   0.610000 0.297210 0.483560 -0.656103
O9    O     O_R   0.390000 0.702790 0.516440 -0.612623
O10   O     O_R   0.389940 0.330700 0.516390 -0.583616
O11   O     O_R   0.610060 0.669300 0.483610 -0.532765
O12   O     O_3   0.504205 0.894539 0.268593 -0.552124
Zn1   Zn    Zn3+2 0.646930 0.477640 0.478080 1.103423
Zn2   Zn    Zn3+2 0.353070 0.522360 0.521920 1.050592

loop_
_geom_bond_atom_site_label_1
_geom_bond_atom_site_label_2
_ccdc_geom_bond_type
C27   C29   S    
C7    Cl6   S    
C19   C20   S    
O10   Zn2   S    
C18   H9    S    
O6    Zn2   S    
C22   H19   S    
C7    C8    S    
C13   H27   S    
C15   O2    S    
C1    O1    A    
C2    C29   S    
C1    C5    S    
C17   H7    S    
C11   H25   S    
C6    C12   S    
O9    Zn2   S    
O5    Zn2   S    
C3    Cl3   S    
C15   C16   S    
C18   C19   S    
C3    C29   S    
O11   Zn1   S    
O8    Zn1   S    
C16   C17   S    
C14   H29   S    
C23   O10   A    
C9    C10   S    
C29   O2    S    
C26   Cl1   S    
C13   C14   S    
C27   C30   S    
C25   O11   A    
C4    C28   S    
O1    Zn1   S    
C11   O12   S    
C4    Cl4   S    
C28   O12   S    
C17   H8    S    
C15   H3    S    
C20   H16   S    
C5    C7    D    
C6    C8    D    
C21   O4    S    
C8    Cl5   S    
C3    C30   S    
C2    C4    S    
C19   H11   S    
C24   H22   S    
C12   O7    A    
N2    O3    S    
C14   H28   S    
N1    O4    S    
C2    C26   S    
N2    Zn1   S    
C16   H5    S    
C10   N2    D    
C18   O3    S    
C10   Cl7   S    
C22   C24   S    
C5    H12   S    
C16   H4    S    
C4    C27   S    
C21   H17   S    
C25   C30   S    
C24   H24   S    
C27   Cl2   S    
C25   O9    A    
C1    O6    A    
C3    C26   S    
C9    N1    D    
C20   H15   S    
C11   H23   S    
C18   H10   S    
C22   H20   S    
C21   H18   S    
C26   C28   S    
C28   C30   S    
C17   H6    S    
C20   H14   S    
N1    Zn2   S    
C11   C13   S    
C13   H26   S    
C24   H21   S    
C9    Cl8   S    
C23   O8    A    
C14   H30   S    
C15   H2    S    
C19   H13   S    
C12   O5    A    
C2    C23   S    
O7    Zn1   S    
C6    H1    S    
C21   C22   S    
