data_mof_unit_30781.cif
_audit_creation_date              2012-12-10T18:55:57-0500
_audit_creation_method            fapswitch 2.2
_symmetry_space_group_name_H-M    P1
_symmetry_Int_Tables_number       1
_space_group_crystal_system       triclinic
_cell_length_a                    10.647898
_cell_length_b                    9.820911
_cell_length_c                    15.046348
_cell_angle_alpha                 89.913455
_cell_angle_beta                  89.739871
_cell_angle_gamma                 91.986942
_cell_volume                      1572.46317264

loop_
_atom_site_label
_atom_site_type_symbol
_atom_type_description
_atom_site_fract_x
_atom_site_fract_y
_atom_site_fract_z
_atom_type_partial_charge
C1    C     C_R   0.259201 0.497140 0.509179 1.009704
C2    C     C_R   0.943239 0.628212 0.499953 0.279289
C3    C     C_R   0.934412 0.387613 0.458532 0.310264
C4    C     C_R   0.063294 0.614368 0.533606 0.304241
C5    C     C_R   0.576963 0.604012 0.091715 -0.227503
C6    C     C_R   0.428855 0.425887 0.908811 -0.237011
C7    C     C_R   0.627864 0.553350 0.899582 -0.213281
C8    C     C_R   0.494604 0.371367 0.093051 -0.230555
C9    C     C_R   0.562397 0.611903 0.183377 0.183212
C10   C     C_R   0.419715 0.424957 0.817138 0.153564
C11   C     C_R   0.614476 0.564179 0.807922 0.128000
C12   C     C_R   0.739926 0.502886 0.489098 1.004612
C13   C     C_R   0.473460 0.378280 0.183726 0.190372
C14   C     C_R   0.509605 0.498438 0.230340 -0.090017
C15   C     C_R   0.510652 0.498188 0.766939 -0.098546
C16   C     C_R   0.540405 0.485527 0.046510 0.079584
C17   C     C_R   0.534030 0.486505 0.950092 0.078537
C18   C     C_R   0.874423 0.509650 0.475093 -0.397290
C19   C     C_R   0.123503 0.491115 0.519038 -0.405444
C20   C     C_3   0.528043 0.849732 0.210316 -0.792025
C21   C     C_3   0.330382 0.204619 0.780604 -0.649669
C22   C     C_3   0.723669 0.778492 0.775767 -0.689718
C23   C     C_R   0.500830 0.500045 0.327219 0.907929
C24   C     C_3   0.275826 0.282902 0.236174 -0.676453
C25   C     C_R   0.501092 0.499731 0.671843 0.942894
C26   C     C_R   0.551006 0.073767 0.569106 0.013020
C27   C     C_R   0.447765 0.926157 0.431562 -0.073333
C28   C     C_R   0.449923 0.070029 0.430772 -0.072931
C29   C     C_R   0.551189 0.929844 0.568931 0.011329
C30   C     C_R   0.054427 0.372786 0.492141 0.269066
H1    H     H_    0.592442 0.129655 0.624130 0.124799
H2    H     H_    0.538422 0.883076 0.139999 0.230454
H3    H     H_    0.559625 0.935632 0.253568 0.232845
H4    H     H_    0.427404 0.824424 0.224395 0.246853
H5    H     H_    0.232036 0.380084 0.799198 0.247395
H6    H     H_    0.337991 0.170071 0.850699 0.197539
H7    H     H_    0.414618 0.173958 0.742803 0.240135
H8    H     H_    0.246031 0.152494 0.751874 0.281814
H9    H     H_    0.792786 0.586272 0.755719 0.241727
H10   H     H_    0.770039 0.794105 0.841124 0.224873
H11   H     H_    0.631014 0.827221 0.776610 0.221375
H12   H     H_    0.403303 0.870034 0.378013 0.152158
H13   H     H_    0.783300 0.828566 0.723778 0.290845
H14   H     H_    0.429590 0.172748 0.199130 0.217551
H15   H     H_    0.231777 0.298441 0.170242 0.228869
H16   H     H_    0.257327 0.371120 0.279895 0.241768
H17   H     H_    0.232077 0.189864 0.266627 0.282902
H18   H     H_    0.193349 0.046200 0.448627 0.407214
H19   H     H_    0.735771 0.851067 0.387329 0.370702
H20   H     H_    0.732283 0.099041 0.390274 0.356079
H21   H     H_    0.265943 0.736128 0.714081 0.371576
H22   H     H_    0.409602 0.122784 0.375537 0.177691
H23   H     H_    0.592440 0.876704 0.623673 0.143764
H24   H     H_    0.612567 0.692812 0.055611 0.145330
H25   H     H_    0.353665 0.377570 0.947520 0.146349
H26   H     H_    0.710549 0.598030 0.931291 0.151145
H27   H     H_    0.467878 0.278493 0.058050 0.137372
H28   H     H_    0.697892 0.755682 0.216608 0.268142
N1    N     N_R   0.500000 0.857200 0.500000 -0.078444
N2    N     N_R   0.500000 0.142800 0.500000 -0.068017
N3    N     N_2   0.603782 0.733088 0.227589 -0.260656
N4    N     N_2   0.318450 0.351027 0.776128 -0.269916
N5    N     N_2   0.708350 0.634638 0.756289 -0.303517
N6    N     N_2   0.409600 0.266107 0.226177 -0.315217
O1    O     O_R   0.316770 0.614620 0.499990 -0.578104
O2    O     O_2   0.990102 0.117880 0.544750 -0.147687
O3    O     O_3   0.173514 0.139742 0.430582 -0.529610
O4    O     O_2   0.831169 0.860465 0.542419 -0.257619
O5    O     O_2   0.006729 0.877505 0.436668 -0.195482
O6    O     O_3   0.795532 0.776917 0.379775 -0.548380
O7    O     O_2   0.781640 0.338353 0.319491 -0.336879
O8    O     O_2   0.969703 0.203728 0.327899 -0.234008
O9    O     O_3   0.785660 0.143763 0.436188 -0.467073
O10   O     O_2   0.201113 0.846610 0.559886 -0.260419
O11   O     O_2   0.023890 0.801637 0.661165 -0.255577
O12   O     O_R   0.683230 0.385380 0.500010 -0.580505
O13   O     O_3   0.222848 0.660809 0.681259 -0.583437
O14   O     O_R   0.683230 0.614620 0.500010 -0.571489
O15   O     O_R   0.316770 0.385380 0.499990 -0.555670
O16   O     O_R   0.499990 0.614660 0.369060 -0.615855
O17   O     O_R   0.500010 0.385340 0.630940 -0.628269
O18   O     O_R   0.500010 0.614660 0.630940 -0.608276
O19   O     O_R   0.499990 0.385340 0.369060 -0.590589
O20   O     O_2   0.191477 0.210255 0.596386 -0.292917
S1    S     S_3+6 0.102487 0.206221 0.519338 0.137369
S2    S     S_3+6 0.894798 0.791862 0.466155 0.129260
S3    S     S_3+6 0.867988 0.267078 0.381704 0.101892
S4    S     S_3+6 0.127310 0.737541 0.609456 0.087582
Zn1   Zn    Zn3+2 0.500000 0.653120 0.500000 1.034875
Zn2   Zn    Zn3+2 0.500000 0.346880 0.500000 1.051525

loop_
_geom_bond_atom_site_label_1
_geom_bond_atom_site_label_2
_ccdc_geom_bond_type
C8    C13   A    
C2    C18   A    
O4    S2    D    
C6    H25   S    
O2    S1    D    
C21   H6    S    
H14   N6    S    
O1    Zn1   S    
O18   Zn1   S    
C23   O19   A    
C9    N3    S    
C24   H15   S    
C11   N5    S    
C10   C15   A    
C15   C25   S    
C22   H11   S    
C20   N3    S    
C3    C18   A    
N1    Zn1   S    
O16   Zn1   S    
C6    C17   A    
O9    S3    S    
C5    C16   A    
C22   N5    S    
C4    C19   A    
C11   C15   A    
C21   H8    S    
C29   N1    A    
O13   S4    S    
C16   C17   S    
O15   Zn2   S    
C12   O14   A    
C1    O1    A    
C23   O16   A    
C20   H4    S    
H28   N3    S    
C26   H1    S    
C24   N6    S    
C13   C14   A    
C25   O17   A    
C10   N4    S    
C7    H26   S    
C7    C11   A    
C28   N2    A    
O14   Zn1   S    
O3    S1    S    
C1    C19   S    
C3    S3    S    
C5    H24   S    
O20   S1    D    
H20   O9    S    
C7    C17   A    
C14   C23   S    
C3    C30   A    
C2    C4    A    
C9    C14   A    
H21   O13   S    
C5    C9    A    
C8    H27   S    
C22   H13   S    
C22   H10   S    
C30   S1    S    
C21   N4    S    
O7    S3    D    
O17   Zn2   S    
H19   O6    S    
C12   O12   A    
C25   O18   A    
C1    O15   A    
C20   H3    S    
O6    S2    S    
O8    S3    D    
C20   H2    S    
O19   Zn2   S    
C24   H17   S    
C6    C10   A    
C4    S4    S    
N2    Zn2   S    
H9    N5    S    
C24   H16   S    
C27   N1    A    
C28   H22   S    
C27   H12   S    
C13   N6    S    
C29   H23   S    
C2    S2    S    
H5    N4    S    
H18   O3    S    
O11   S4    D    
C21   H7    S    
C26   C29   A    
C8    C16   A    
C12   C18   S    
C27   C28   A    
O10   S4    D    
C19   C30   A    
C26   N2    A    
O5    S2    D    
O12   Zn2   S    
