data_mof_unit_30255.cif
_audit_creation_date              2013-03-05T16:33:14-0500
_audit_creation_method            fapswitch 2.2
_symmetry_space_group_name_H-M    P1
_symmetry_Int_Tables_number       1
_space_group_crystal_system       triclinic
_cell_length_a                    27.807215
_cell_length_b                    10.817415
_cell_length_c                    9.559506
_cell_angle_alpha                 89.917783
_cell_angle_beta                  90.00737
_cell_angle_gamma                 89.921286
_cell_volume                      2875.51459036

loop_
_atom_site_label
_atom_site_type_symbol
_atom_site_description
_atom_site_fract_x
_atom_site_fract_y
_atom_site_fract_z
_atom_type_partial_charge
O1    O     O_R   0.500000 0.319640 0.618810 -0.572649
O2    O     O_R   0.500010 0.319680 0.381230 -0.583057
C1    C     C_R   0.499377 0.262440 0.500075 0.806420
O3    O     O_R   0.430260 0.500000 0.618780 -0.594384
O4    O     O_R   0.430270 0.500040 0.381190 -0.592043
C2    C     C_R   0.407463 0.500024 0.499959 0.807345
Cu1   Cu    Cu3+1 0.500000 0.499980 0.640670 0.955012
Cu2   Cu    Cu3+1 0.500000 0.500020 0.359330 0.941976
O5    O     O_R   0.499990 0.680320 0.618770 -0.564262
O6    O     O_R   0.500000 0.680360 0.381190 -0.587934
O7    O     O_R   0.569730 0.499960 0.618810 -0.578807
O8    O     O_R   0.569740 0.500000 0.381220 -0.584289
C3    C     C_R   0.499196 0.737445 0.499842 0.807660
C4    C     C_R   0.592384 0.500288 0.500011 0.799418
C5    C     C_R   0.177777 0.392348 0.475288 0.549265
O9    O     O_2   0.202650 0.287760 0.448534 -0.527783
N1    N     N_R   0.201872 0.499789 0.502112 -0.469747
C6    C     C_R   0.177864 0.607063 0.531105 0.545809
C7    C     C_R   0.278672 0.503298 0.372384 0.023189
C8    C     C_R   0.328943 0.503150 0.372859 -0.248147
C9    C     C_R   0.328890 0.497150 0.626560 -0.210131
C10   C     C_R   0.278782 0.497149 0.626379 -0.106105
C11   C     C_R   0.253458 0.499999 0.499893 0.314785
C12   C     C_R   0.101682 0.499876 0.504590 -0.042489
C13   C     C_R   0.127296 0.390483 0.475463 -0.020065
C14   C     C_R   0.102142 0.281714 0.447841 -0.138899
C15   C     C_R   0.127380 0.609079 0.533136 -0.020022
C16   C     C_R   0.354454 0.500057 0.499827 -0.047097
H1    H     H_    0.347539 0.494690 0.725957 0.152837
H2    H     H_    0.259491 0.494694 0.724749 0.153990
H3    H     H_    0.121002 0.195979 0.426881 0.189198
C17   C     C_R   0.645099 0.501302 0.499869 -0.035810
C18   C     C_R   0.974116 0.391318 0.467199 0.043025
C19   C     C_R   0.974187 0.609746 0.542865 0.042917
C20   C     C_R   0.948897 0.500757 0.504731 0.069419
C21   C     C_R   0.947062 0.287131 0.424538 -0.203454
C22   C     C_R   0.897140 0.289286 0.422672 -0.141435
C23   C     C_R   0.872053 0.395232 0.462840 -0.019740
C24   C     C_R   0.897735 0.501246 0.503998 -0.043089
C25   C     C_R   0.872107 0.607751 0.544403 -0.019930
C26   C     C_R   0.821620 0.606206 0.543132 0.549420
N2    N     N_R   0.797527 0.502526 0.501386 -0.469830
C27   C     C_R   0.821574 0.397962 0.461842 0.540170
C28   C     C_R   0.720790 0.440375 0.605074 -0.101274
C29   C     C_R   0.670691 0.439269 0.605058 -0.219551
C30   C     C_R   0.670173 0.563990 0.394099 -0.272307
C31   C     C_R   0.720433 0.564889 0.393261 0.022845
C32   C     C_R   0.745917 0.503095 0.499765 0.313970
O10   O     O_2   0.796673 0.297218 0.421094 -0.533718
C33   C     C_R   0.025226 0.389724 0.472367 0.043437
C34   C     C_R   0.050520 0.500081 0.505062 0.069564
C35   C     C_R   0.025306 0.610669 0.538058 0.043572
C36   C     C_R   0.052214 0.280994 0.446507 -0.202802
H4    H     H_    0.651968 0.387884 0.685472 0.140571
H5    H     H_    0.740224 0.391956 0.686666 0.148163
H6    H     H_    0.878239 0.206955 0.389160 0.189904
H7    H     H_    0.963227 0.202298 0.389313 0.140659
H8    H     H_    0.035992 0.192472 0.426724 0.138465
O11   O     O_2   0.202812 0.711471 0.557275 -0.527598
C37   C     C_R   0.102303 0.717917 0.561886 -0.139144
H9    H     H_    0.348040 0.505734 0.274072 0.149409
H10   H     H_    0.121222 0.803468 0.582661 0.189093
C38   C     C_R   0.947185 0.714281 0.585307 -0.203007
C39   C     C_R   0.897251 0.713065 0.585792 -0.137600
O12   O     O_2   0.796751 0.707300 0.583486 -0.530890
C40   C     C_R   0.052377 0.719037 0.564144 -0.202269
H11   H     H_    0.963395 0.798735 0.621169 0.140274
H12   H     H_    0.650630 0.613484 0.313511 0.147387
H13   H     H_    0.878387 0.795707 0.618911 0.189523
H14   H     H_    0.036218 0.807638 0.584558 0.138434
C41   C     C_R   0.497191 0.063303 0.625331 0.037873
C42   C     C_R   0.495139 0.129436 0.500200 -0.073883
C43   C     C_R   0.486645 0.064704 0.374954 -0.203423
H15   H     H_    0.482002 0.113099 0.276605 0.165874
C44   C     C_R   0.486530 0.935640 0.374761 -0.207990
H16   H     H_    0.481654 0.887669 0.276408 0.166678
C45   C     C_R   0.495310 0.870406 0.499577 -0.098813
C46   C     C_R   0.498240 0.936455 0.624263 0.015244
C47   C     C_3   0.531231 0.931955 0.749160 0.354167
C48   C     C_3   0.529703 0.073313 0.749847 -0.511262
H17   H     H_    0.512692 0.891724 0.841630 0.099927
H18   H     H_    0.510519 0.111430 0.842276 0.171124
H19   H     H_    0.564376 0.119840 0.726295 0.202367
C49   C     C_R   0.540744 0.472518 0.073785 0.259730
N3    N     N_R   0.500300 0.500930 0.147930 -0.185992
C50   C     C_R   0.458905 0.522107 0.074043 -0.079810
H20   H     H_    0.425779 0.542282 0.128290 0.142105
C51   C     C_R   0.458906 0.522044 0.925779 -0.077050
H21   H     H_    0.425776 0.542143 0.871421 0.141614
N4    N     N_R   0.500310 0.500890 0.852020 -0.184754
C52   C     C_R   0.540783 0.472758 0.926311 0.237397
C53   C     C_3   0.586903 0.542943 0.921362 -0.459124
C54   C     C_3   0.586957 0.541971 0.079478 -0.498988
H22   H     H_    0.616732 0.487518 0.876638 0.195213
H23   H     H_    0.582617 0.636958 0.875719 0.247873
H24   H     H_    0.616538 0.485001 0.124032 0.204918
H25   H     H_    0.582859 0.635535 0.126147 0.213675
C55   C     C_1   0.253381 0.507960 0.240696 0.267854
N5    N     N_1   0.233065 0.511682 0.135107 -0.269912
C56   C     C_1   0.745396 0.628287 0.282106 0.271616
N6    N     N_1   0.765450 0.679106 0.192959 -0.251590
O13   O     O_3   0.578107 0.879616 0.732899 -0.565937
C57   C     C_3   0.600660 0.902552 0.602595 -0.224157
H26   H     H_    0.590925 0.992315 0.553864 0.148506
H27   H     H_    0.592882 0.825902 0.529113 0.149179
H28   H     H_    0.640129 0.903486 0.619269 0.193979

loop_
_geom_bond_atom_site_label_1
_geom_bond_atom_site_label_2
_geom_bond_distance
_ccdc_geom_bond_type
C26   N2    1.367225 A    
C17   C29   1.401569 A    
C20   C24   1.422678 A    
C7    C8    1.397919 A    
C12   C15   1.408467 A    
Cu1   Cu2   2.689470 S    
C40   H14   1.076082 S    
C45   C46   1.392989 A    
Cu1   O7    1.950252 S    
N1    C11   1.434622 S    
C21   C22   1.388476 A    
C19   C20   1.421585 A    
C15   C37   1.395231 A    
O3    Cu1   1.950508 S    
O4    C2    1.300562 A    
O7    C4    1.298756 A    
C50   C51   1.417331 A    
C5    C13   1.403929 A    
C5    O9    1.350003 S    
C18   C21   1.416347 A    
C37   H10   1.083736 S    
Cu2   N3    2.020909 S    
C43   H15   1.083059 S    
C8    H9    1.083815 S    
O5    C3    1.293368 A    
C53   C54   1.511534 S    
C22   H6    1.083571 S    
C2    C16   1.474027 S    
C47   O13   1.429019 S    
C49   C52   1.409781 A    
C12   C34   1.422671 A    
C37   C40   1.388507 A    
C14   H3    1.083749 S    
O1    Cu1   1.962271 S    
C9    C10   1.393365 A    
C43   C44   1.396153 A    
C48   H19   1.111166 S    
C41   C48   1.498742 S    
C7    C55   1.442696 S    
C33   C34   1.421556 A    
C3    C45   1.442199 S    
C38   H11   1.075784 S    
C33   C36   1.416394 A    
C34   C35   1.421615 A    
C49   N3    1.364373 A    
O3    C2    1.300718 A    
C21   H7    1.075802 S    
C4    C17   1.465914 S    
C52   C53   1.491970 S    
C47   H17   1.111837 S    
C46   C47   1.506284 S    
C27   O10   1.349843 S    
C26   O12   1.349878 S    
C8    C16   1.406110 A    
C18   C33   1.422176 A    
N3    C50   1.369292 A    
Cu1   N4    2.020458 S    
C9    H1    1.082709 S    
C53   H23   1.112314 S    
C31   C56   1.442443 S    
C47   C48   1.529682 S    
O1    C1    1.293651 A    
C7    C11   1.406691 A    
C44   H16   1.083151 S    
C30   H12   1.083220 S    
C22   C23   1.395232 A    
C31   C32   1.407878 A    
Cu2   O8    1.950503 S    
C53   H22   1.108937 S    
N1    C6    1.366732 A    
C57   H27   1.108979 S    
N2    C32   1.435200 S    
C39   H13   1.083581 S    
C12   C13   1.408475 A    
C44   C45   1.406511 A    
C48   H18   1.111676 S    
C25   C26   1.404054 A    
C9    C16   1.405087 A    
O8    C4    1.298414 A    
C29   H4    1.081957 S    
C54   H24   1.111568 S    
N2    C27   1.367004 A    
C14   C36   1.388443 A    
C54   H25   1.112383 S    
C24   C25   1.408379 A    
C35   C40   1.416414 A    
C28   C29   1.393187 A    
Cu1   O5    1.961714 S    
C30   C31   1.397673 A    
C10   H2    1.082977 S    
C50   H20   1.079326 S    
C17   C30   1.402788 A    
O2    Cu2   1.961716 S    
C6    C15   1.404088 A    
C51   N4    1.369320 A    
C42   C43   1.407978 A    
O6    C3    1.292419 A    
O4    Cu2   1.950254 S    
C36   H8    1.076056 S    
C5    N1    1.366892 A    
C19   C35   1.422282 A    
C25   C39   1.395232 A    
O2    C1    1.293224 A    
C13   C14   1.395160 A    
C41   C42   1.394030 A    
C28   H5    1.082904 S    
N4    C52   1.364492 A    
C23   C24   1.408340 A    
C19   C38   1.416389 A    
C18   C20   1.421617 A    
C1    C42   1.443742 S    
C57   H28   1.109070 S    
C49   C54   1.490480 S    
O13   C57   1.416412 S    
C38   C39   1.388614 A    
C6    O11   1.349937 S    
C23   C27   1.403970 A    
C51   H21   1.079353 S    
Cu2   O6    1.962270 S    
C55   N5    1.157272 T    
C57   H26   1.109542 S    
C10   C11   1.399450 A    
C56   N6    1.157171 T    
C41   C46   1.372498 A    
C28   C32   1.400534 A    
