data_mof_unit_8547.cif
_audit_creation_date              2012-12-11T15:47:06-0500
_audit_creation_method            fapswitch 2.2
_symmetry_space_group_name_H-M    P1
_symmetry_Int_Tables_number       1
_space_group_crystal_system       triclinic
_cell_length_a                    20.140965
_cell_length_b                    7.256673
_cell_length_c                    13.561145
_cell_angle_alpha                 89.999675
_cell_angle_beta                  102.932335
_cell_angle_gamma                 90.000334
_cell_volume                      1931.77353498

loop_
_atom_site_label
_atom_site_type_symbol
_atom_type_description
_atom_site_fract_x
_atom_site_fract_y
_atom_site_fract_z
_atom_type_partial_charge
O1    O     O_R   0.449560 0.506810 0.599700 -0.533862
O2    O     O_R   0.550440 0.006810 0.400300 -0.533863
O3    O     O_R   0.587960 0.180060 0.595760 -0.545390
O4    O     O_R   0.412040 0.680060 0.404240 -0.545391
C1    C     C_R   0.614945 0.344190 0.617451 0.681541
C2    C     C_R   0.385055 0.844190 0.382549 0.681541
O5    O     O_R   0.452380 0.177430 0.611700 -0.539543
O6    O     O_R   0.547620 0.677430 0.388300 -0.539543
O7    O     O_R   0.413900 0.001890 0.416350 -0.541079
O8    O     O_R   0.586100 0.501890 0.583650 -0.541079
C3    C     C_R   0.436416 0.345966 0.637729 0.685300
C4    C     C_R   0.563584 0.845968 0.362271 0.685300
O9    O     O_3   0.487530 0.337490 0.435890 -0.378632
O10   O     O_3   0.512470 0.837490 0.564110 -0.378632
V1    V     V_3+5 0.502310 0.064660 0.511890 1.406144
V2    V     V_3+5 0.497690 0.564660 0.488110 1.406142
C5    C     C_R   0.611016 0.936459 0.114819 -0.161565
C6    C     C_R   0.388987 0.436379 0.885190 -0.161564
H1    H     H_    0.517353 0.932928 0.165195 0.105786
H2    H     H_    0.482651 0.432849 0.834814 0.105783
H3    H     H_    0.694615 0.962050 0.990114 0.123019
H4    H     H_    0.305389 0.461924 0.009898 0.123017
H5    H     H_    0.585626 0.971137 0.037869 0.114256
H6    H     H_    0.414379 0.471018 0.962145 0.114257
C7    C     C_R   0.603216 0.858178 0.284587 -0.026406
C8    C     C_R   0.396784 0.358170 0.715412 -0.026401
C9    C     C_R   0.932304 0.840134 0.316251 -0.235579
C10   C     C_R   0.067695 0.340196 0.683746 -0.235578
C11   C     C_R   0.898407 0.852990 0.394358 -0.087316
C12   C     C_R   0.101592 0.353078 0.605641 -0.087316
C13   C     C_R   0.827897 0.878556 0.374862 0.202890
C14   C     C_R   0.172103 0.378621 0.625140 0.202888
C15   C     C_R   0.788620 0.877188 0.272365 0.023164
C16   C     C_R   0.211381 0.377201 0.727637 0.023163
C17   C     C_R   0.825096 0.881461 0.193164 0.039907
C18   C     C_R   0.174904 0.381445 0.806838 0.039908
C19   C     C_R   0.715520 0.878743 0.244279 0.074821
C20   C     C_R   0.284481 0.378736 0.755723 0.074821
C21   C     C_R   0.682182 0.917985 0.142363 0.146632
C22   C     C_R   0.317820 0.417927 0.857644 0.146631
C23   C     C_R   0.719749 0.935037 0.068188 -0.203898
C24   C     C_R   0.280254 0.434951 0.931821 -0.203897
C25   C     C_R   0.789705 0.910500 0.092377 -0.177482
C26   C     C_R   0.210297 0.410434 0.907629 -0.177478
C27   C     C_R   0.673834 0.834498 0.311926 -0.230895
C28   C     C_R   0.326165 0.334513 0.688071 -0.230893
C29   C     C_R   0.571971 0.912233 0.186491 -0.169828
C30   C     C_R   0.428031 0.412176 0.813515 -0.169834
C31   C     C_R   0.896788 0.860761 0.216279 -0.068512
C32   C     C_R   0.103212 0.360770 0.783721 -0.068510
H7    H     H_    0.694475 0.778747 0.385763 0.111783
H8    H     H_    0.305521 0.278794 0.614228 0.111780
H9    H     H_    0.987218 0.824473 0.334226 0.122917
H10   H     H_    0.012780 0.324559 0.665769 0.122914
H11   H     H_    0.927901 0.851866 0.471693 0.139276
H12   H     H_    0.072098 0.351995 0.528306 0.139275
H13   H     H_    0.816036 0.918316 0.031100 0.115159
H14   H     H_    0.183966 0.418225 0.968908 0.115153
C33   C     C_R   0.216987 0.022975 0.224637 -0.149496
C34   C     C_R   0.783014 0.522975 0.775360 -0.149493
H15   H     H_    0.192807 0.155762 0.206501 0.121965
H16   H     H_    0.807195 0.655761 0.793494 0.121969
C35   C     C_R   0.282174 0.018550 0.288047 -0.161593
C36   C     C_R   0.717827 0.518549 0.711950 -0.161594
H17   H     H_    0.305882 0.147528 0.316832 0.119011
H18   H     H_    0.694120 0.647527 0.683163 0.119013
C37   C     C_R   0.316043 0.850127 0.314016 -0.040881
C38   C     C_R   0.683957 0.350127 0.685984 -0.040885
C39   C     C_R   0.282838 0.686208 0.274681 -0.151625
C40   C     C_R   0.717160 0.186209 0.725322 -0.151628
H19   H     H_    0.307102 0.553530 0.292864 0.118902
H20   H     H_    0.692896 0.053531 0.707141 0.118905
C41   C     C_R   0.217661 0.690601 0.211239 -0.148892
C42   C     C_R   0.782338 0.190601 0.788764 -0.148897
H21   H     H_    0.194052 0.561532 0.182426 0.118266
H22   H     H_    0.805946 0.061532 0.817580 0.118267
C43   C     C_R   0.183702 0.859031 0.185374 -0.036362
C44   C     C_R   0.816298 0.359031 0.814626 -0.036364
O11   O     O_R   0.913920 0.203370 0.916260 -0.540347
O12   O     O_R   0.086080 0.703370 0.083740 -0.540346
O13   O     O_R   0.047620 0.535540 0.888290 -0.538071
O14   O     O_R   0.952380 0.035540 0.111710 -0.538072
C45   C     C_R   0.063802 0.368266 0.862323 0.692547
C46   C     C_R   0.936198 0.868264 0.137677 0.692546
O15   O     O_R   0.912040 0.532780 0.904220 -0.545443
O16   O     O_R   0.087960 0.032780 0.095780 -0.545444
O17   O     O_R   0.949550 0.708160 0.099720 -0.534977
O18   O     O_R   0.050450 0.208160 0.900280 -0.534977
C47   C     C_R   0.885442 0.364906 0.882973 0.674188
C48   C     C_R   0.114557 0.864906 0.117027 0.674188
O19   O     O_3   0.012480 0.375300 0.064060 -0.378159
O20   O     O_3   0.987520 0.875300 0.935940 -0.378158
V3    V     V_3+5 0.997690 0.648180 0.988110 1.416149
V4    V     V_3+5 0.002310 0.148180 0.011890 1.416144
N1    N     N_3   0.801526 0.936160 0.459816 -0.691523
H23   H     H_    0.787033 0.821338 0.496464 0.223194
H24   H     H_    0.762399 0.032624 0.438789 0.240548
N2    N     N_3   0.198477 0.436259 0.540194 -0.691519
H25   H     H_    0.212966 0.321449 0.503530 0.223193
H26   H     H_    0.237609 0.532709 0.561234 0.240550

loop_
_geom_bond_atom_site_label_1
_geom_bond_atom_site_label_2
_ccdc_geom_bond_type
C20   C22   A    
C35   H17   S    
O14   V4    S    
C9    C11   A    
C41   H21   S    
O15   V3    S    
N1    H23   S    
O1    C3    A    
C46   O17   A    
O2    C4    A    
C33   C43   A    
C2    O7    A    
C18   C32   A    
C21   C23   A    
O5    C3    A    
C34   C44   A    
C5    H5    S    
C42   H22   S    
C6    H6    S    
C36   C38   A    
C31   C46   S    
H1    C29   S    
C27   H7    S    
C28   H8    S    
C34   H16   S    
C5    C21   A    
C39   H19   S    
C6    C22   A    
O16   V4    S    
C10   C32   A    
C26   H14   S    
C40   C42   A    
C13   C15   A    
C39   C41   A    
C17   C25   A    
C7    C29   A    
C8    C30   A    
O5    V1    S    
C45   O18   A    
O6    V2    S    
C23   C25   A    
C24   C26   A    
C1    C38   S    
O13   C45   A    
C32   C45   S    
O18   V4    S    
C44   C47   S    
C19   C21   A    
C35   C37   A    
C43   C48   S    
C33   H15   S    
C20   C28   A    
O11   V4    S    
O4    C2    A    
O16   C48   A    
C10   H10   S    
C11   H11   S    
C3    C8    S    
C12   H12   S    
C15   C19   A    
C37   C39   A    
C14   C16   A    
O4    V2    S    
C17   C31   A    
O13   V3    S    
O6    C4    A    
N1    H24   S    
O1    V2    S    
O2    V1    S    
H2    C30   S    
H3    C23   S    
C2    C37   S    
O14   C46   A    
C18   C26   A    
C19   C27   A    
C7    C27   A    
O3    V1    S    
O15   C47   A    
C16   C20   A    
C33   C35   A    
C5    C29   A    
O3    C1    A    
C6    C30   A    
C9    H9    S    
N2    H26   S    
C4    C7    S    
C34   C36   A    
C10   C12   A    
O7    V1    S    
C1    O8    A    
C11   C13   A    
O8    V2    S    
O19   V4    S    
C12   C14   A    
H4    C24   S    
C13   N1    S    
O17   V3    S    
C22   C24   A    
O20   V3    S    
C15   C17   A    
C14   N2    S    
C16   C18   A    
O12   C48   A    
O11   C47   A    
C25   H13   S    
C38   C40   A    
N2    H25   S    
C42   C44   A    
O9    V2    S    
C41   C43   A    
O10   V1    S    
C40   H20   S    
O12   V3    S    
C8    C28   A    
C9    C31   A    
C36   H18   S    
