data_mof_unit_42934.cif
_audit_creation_date              2012-12-10T17:20:21-0500
_audit_creation_method            fapswitch 2.2
_symmetry_space_group_name_H-M    P1
_symmetry_Int_Tables_number       1
_space_group_crystal_system       triclinic
_cell_length_a                    11.709767
_cell_length_b                    10.883609
_cell_length_c                    9.57678
_cell_angle_alpha                 89.335598
_cell_angle_beta                  90.042209
_cell_angle_gamma                 92.537763
_cell_volume                      1219.22916812

loop_
_atom_site_label
_atom_site_type_symbol
_atom_type_description
_atom_site_fract_x
_atom_site_fract_y
_atom_site_fract_z
_atom_type_partial_charge
C1    C     C_R   0.507561 0.262237 0.501617 0.796292
C2    C     C_R   0.434028 0.045488 0.879553 -0.168014
C3    C     C_R   0.381866 0.930317 0.858699 -0.130652
C4    C     C_R   0.391950 0.873983 0.729941 -0.144252
C5    C     C_R   0.454076 0.933363 0.619488 0.090608
C6    C     C_R   0.486348 0.058957 0.631374 0.072121
C7    C     C_R   0.517851 0.127231 0.507046 -0.156538
C8    C     C_R   0.547096 0.062409 0.384297 0.083959
C9    C     C_R   0.533829 0.934913 0.384903 -0.248177
C10   C     C_R   0.487651 0.870330 0.499535 -0.137470
C11   C     C_R   0.649543 0.665962 0.142477 -0.150432
C12   C     C_R   0.284037 0.499586 0.499961 0.824641
C13   C     C_R   0.721351 0.748557 0.069361 -0.223739
C14   C     C_R   0.721797 0.748367 0.925538 -0.196599
C15   C     C_R   0.650315 0.665721 0.854020 -0.123761
C16   C     C_R   0.573619 0.581666 0.924222 0.204458
C17   C     C_R   0.573424 0.581720 0.073936 0.202342
C18   C     C_R   0.430368 0.421956 0.074918 -0.078761
C19   C     C_R   0.430298 0.422093 0.926902 -0.082980
C20   C     C_R   0.492898 0.736826 0.499536 0.784367
C21   C     C_R   0.715942 0.500308 0.500019 0.792562
C22   C     C_1   0.162318 0.499635 0.499859 -0.189636
C23   C     C_1   0.059844 0.499714 0.499820 -0.004041
C24   C     C_1   0.940050 0.499875 0.499868 -0.004262
C25   C     C_1   0.837600 0.500080 0.499982 -0.188797
C26   C     C_R   0.486576 0.109032 0.768052 -0.158359
Cu1   Cu    Cu3+1 0.499990 0.499990 0.640660 0.922478
Cu2   Cu    Cu3+1 0.500010 0.500010 0.359340 0.926643
H1    H     H_    0.778740 0.812060 0.868628 0.148432
H2    H     H_    0.659755 0.671851 0.744024 0.197284
H3    H     H_    0.373190 0.358279 0.872271 0.144606
H4    H     H_    0.532748 0.193163 0.794867 0.169991
H5    H     H_    0.433168 0.086283 0.982099 0.123901
H6    H     H_    0.337237 0.882632 0.943701 0.137445
H7    H     H_    0.350350 0.784043 0.717972 0.154992
H8    H     H_    0.561492 0.884809 0.294789 0.162156
H9    H     H_    0.373384 0.357960 0.131046 0.137215
H10   H     H_    0.657967 0.672349 0.252395 0.198156
H11   H     H_    0.777810 0.812506 0.125047 0.148786
N1    N     N_R   0.501070 0.501210 0.147910 -0.197753
N2    N     N_R   0.501110 0.501290 0.852040 -0.200363
O1    O     O_R   0.499990 0.319640 0.618810 -0.592908
O2    O     O_R   0.500000 0.319660 0.381240 -0.577086
O3    O     O_R   0.337190 0.500000 0.618790 -0.574586
O4    O     O_R   0.337200 0.500030 0.381210 -0.567202
O5    O     O_R   0.500000 0.680340 0.618760 -0.605478
O6    O     O_R   0.500010 0.680360 0.381190 -0.598407
O7    O     O_R   0.662800 0.499970 0.618790 -0.591203
O8    O     O_R   0.662810 0.500000 0.381210 -0.589393
C27   C     C_3   0.598006 0.122510 0.252325 -0.381766
C28   C     C_3   0.715771 0.185391 0.279676 -0.317142
C29   C     C_3   0.758689 0.258218 0.151555 -0.808496
H12   H     H_    0.765840 0.196424 0.060757 0.240153
H13   H     H_    0.699246 0.331795 0.125123 0.265802
H14   H     H_    0.844254 0.301677 0.173788 0.240902
H15   H     H_    0.712616 0.248932 0.369098 0.220996
H16   H     H_    0.777762 0.114231 0.306168 0.203008
H17   H     H_    0.609904 0.052746 0.170147 0.178336
H18   H     H_    0.537860 0.186197 0.203966 0.215620

loop_
_geom_bond_atom_site_label_1
_geom_bond_atom_site_label_2
_ccdc_geom_bond_type
Cu1   O7    S    
C9    H8    S    
C23   C24   S    
Cu2   O6    S    
C26   H4    S    
C6    C7    A    
C28   H16   S    
C8    C27   S    
C11   H10   S    
Cu2   O8    S    
Cu1   N2    S    
Cu2   O2    S    
C29   H14   S    
C21   O7    A    
C19   H3    S    
C21   O8    A    
C2    C3    A    
C4    H7    S    
C5    C10   A    
C2    C26   A    
C13   C14   A    
C29   H12   S    
C4    C5    A    
C11   C13   A    
Cu1   O1    S    
C6    C26   A    
C27   H18   S    
Cu1   O3    S    
Cu1   O5    S    
C18   H9    S    
C29   H13   S    
C28   H15   S    
C22   C23   T    
C5    C6    A    
C20   O5    A    
Cu2   O4    S    
C13   H11   S    
C20   O6    A    
C16   C17   A    
C15   C16   A    
Cu2   N1    S    
C14   H1    S    
C28   C29   S    
C27   H17   S    
C12   C22   S    
C1    O1    A    
C7    C8    A    
C24   C25   T    
C2    H5    S    
C15   H2    S    
C12   O3    A    
C18   C19   A    
C9    C10   A    
Cu1   Cu2   S    
C18   N1    A    
C14   C15   A    
C8    C9    A    
C21   C25   S    
C3    H6    S    
C27   C28   S    
C1    C7    S    
C16   N2    A    
C1    O2    A    
C11   C17   A    
C3    C4    A    
C19   N2    A    
C10   C20   S    
C12   O4    A    
C17   N1    A    
