data_mof_unit_62546.cif
_audit_creation_date              2013-03-05T16:39:53-0500
_audit_creation_method            fapswitch 2.2
_symmetry_space_group_name_H-M    P1
_symmetry_Int_Tables_number       1
_space_group_crystal_system       triclinic
_cell_length_a                    27.773028
_cell_length_b                    26.646336
_cell_length_c                    18.676274
_cell_angle_alpha                 89.665685
_cell_angle_beta                  89.601713
_cell_angle_gamma                 89.423058
_cell_volume                      13820.1017221

loop_
_atom_site_label
_atom_site_type_symbol
_atom_site_description
_atom_site_fract_x
_atom_site_fract_y
_atom_site_fract_z
_atom_type_partial_charge
O1    O     O_R   0.050900 0.449080 0.560840 -0.604567
O2    O     O_R   0.949100 0.550920 0.439160 -0.617184
O3    O     O_R   0.949100 0.550920 0.560840 -0.615272
O4    O     O_R   0.050900 0.449080 0.439160 -0.607496
O5    O     O_R   0.949100 0.449080 0.439160 -0.624223
O6    O     O_R   0.050900 0.550920 0.560840 -0.609393
O7    O     O_R   0.050900 0.550920 0.439160 -0.610532
O8    O     O_R   0.949100 0.449080 0.560840 -0.614406
O9    O     O_R   0.550900 0.949080 0.560840 -0.607048
O10   O     O_R   0.449100 0.050920 0.439160 -0.598363
O11   O     O_R   0.449100 0.050920 0.560840 -0.609257
O12   O     O_R   0.550900 0.949080 0.439160 -0.616695
O13   O     O_R   0.449100 0.949080 0.439160 -0.615034
O14   O     O_R   0.550900 0.050920 0.560840 -0.604567
O15   O     O_R   0.550900 0.050920 0.439160 -0.627524
O16   O     O_R   0.449100 0.949080 0.560840 -0.607119
C1    C     C_R   0.066618 0.432198 0.499635 0.822956
C2    C     C_R   0.934074 0.568644 0.499864 0.847068
C3    C     C_R   0.932717 0.432889 0.500510 0.850366
C4    C     C_R   0.066564 0.567136 0.499699 0.826599
C5    C     C_R   0.569093 0.934774 0.499578 0.829773
C6    C     C_R   0.431776 0.066202 0.499638 0.836456
C7    C     C_R   0.432292 0.933060 0.500956 0.839179
C8    C     C_R   0.568638 0.066063 0.500149 0.848330
Zn1   Zn    Zn3+2 1.000000 0.500000 0.581210 0.951995
Zn2   Zn    Zn3+2 0.000000 0.500000 0.418790 0.941995
Zn3   Zn    Zn3+2 0.500000 0.000000 0.581210 0.953269
Zn4   Zn    Zn3+2 0.500000 0.000000 0.418790 0.943210
C9    C     C_R   0.977310 0.537861 0.727316 0.057900
C10   C     C_R   0.971552 0.467334 0.272605 0.058909
C11   C     C_R   0.022837 0.462537 0.728055 0.051978
C12   C     C_R   0.028630 0.532436 0.271236 0.051659
C13   C     C_R   0.493817 0.043612 0.725912 0.066823
C14   C     C_R   0.500021 0.955951 0.273719 0.057101
C15   C     C_R   0.505131 0.956232 0.726456 0.058325
C16   C     C_R   0.499522 0.044244 0.273245 0.052595
C17   C     C_R   0.971741 0.534977 0.802690 -0.128867
C18   C     C_R   0.965808 0.472371 0.197632 -0.128803
C19   C     C_R   0.027711 0.465631 0.803393 -0.127530
C20   C     C_R   0.033000 0.528253 0.195849 -0.131157
C21   C     C_R   0.483732 0.042452 0.799874 -0.119304
C22   C     C_R   0.490226 0.955836 0.199715 -0.116728
C23   C     C_R   0.513963 0.957137 0.800577 -0.118296
C24   C     C_R   0.506837 0.044558 0.198335 -0.114754
C25   C     C_R   0.149461 0.595532 0.473093 0.148141
C26   C     C_R   0.899327 0.352593 0.550325 0.131698
C27   C     C_R   0.856477 0.396302 0.452192 0.141379
C28   C     C_R   0.089188 0.655253 0.521295 0.121895
C29   C     C_R   0.862920 0.618435 0.545160 0.149449
C30   C     C_R   0.087159 0.346696 0.455294 0.116928
C31   C     C_R   0.142860 0.388963 0.537455 0.150432
C32   C     C_R   0.915803 0.654336 0.451700 0.109971
C33   C     C_R   0.624441 0.128693 0.441046 0.115568
C34   C     C_R   0.355791 0.900774 0.560090 0.141037
C35   C     C_R   0.387665 0.859241 0.451939 0.124912
C36   C     C_R   0.644239 0.097323 0.562020 0.143508
C37   C     C_R   0.383101 0.142103 0.534725 0.124574
C38   C     C_R   0.653867 0.923025 0.453109 0.136405
C39   C     C_R   0.620236 0.861336 0.538165 0.129486
C40   C     C_R   0.347276 0.078601 0.456665 0.126175
C41   C     C_R   0.182989 0.634129 0.471540 -0.161940
C42   C     C_R   0.866422 0.313863 0.545681 -0.187951
C43   C     C_R   0.826001 0.355081 0.447352 -0.143544
C44   C     C_R   0.123276 0.692983 0.516698 -0.164423
C45   C     C_R   0.835229 0.662464 0.542595 -0.183666
C46   C     C_R   0.116813 0.304490 0.456807 -0.172065
C47   C     C_R   0.172347 0.346174 0.535262 -0.156273
C48   C     C_R   0.887125 0.697435 0.451172 -0.178316
C49   C     C_R   0.666277 0.156734 0.441741 -0.189933
C50   C     C_R   0.316210 0.868913 0.557895 -0.189742
C51   C     C_R   0.347743 0.828257 0.452534 -0.173412
C52   C     C_R   0.685157 0.127395 0.560416 -0.192346
C53   C     C_R   0.340347 0.169556 0.530634 -0.163720
C54   C     C_R   0.695482 0.893290 0.448049 -0.143304
C55   C     C_R   0.663226 0.834212 0.533617 -0.168465
C56   C     C_R   0.304910 0.107073 0.454818 -0.170682
H1    H     H_    0.219833 0.626631 0.454943 0.146984
H2    H     H_    0.868731 0.281830 0.581693 0.145033
H3    H     H_    0.797167 0.354787 0.408594 0.151164
H4    H     H_    0.114045 0.730880 0.533088 0.148264
H5    H     H_    0.803259 0.666292 0.575856 0.140908
H6    H     H_    0.107935 0.271823 0.425271 0.148236
H7    H     H_    0.206701 0.345648 0.562397 0.146587
H8    H     H_    0.895485 0.728167 0.414951 0.147804
H9    H     H_    0.675005 0.181117 0.396809 0.149104
H10   H     H_    0.288278 0.870982 0.598679 0.142909
H11   H     H_    0.344771 0.798589 0.413271 0.148039
H12   H     H_    0.708868 0.129042 0.606216 0.141079
H13   H     H_    0.337172 0.205531 0.557271 0.145716
H14   H     H_    0.724731 0.903841 0.412571 0.150394
H15   H     H_    0.667638 0.799655 0.563998 0.146767
H16   H     H_    0.274268 0.094377 0.424392 0.147490
C57   C     C_R   0.169714 0.682273 0.493115 0.051677
C58   C     C_R   0.830992 0.314781 0.494137 0.051668
C59   C     C_R   0.847073 0.701175 0.495485 0.063725
C60   C     C_R   0.158820 0.304298 0.496204 0.051887
C61   C     C_R   0.695472 0.156896 0.501183 0.067334
C62   C     C_R   0.312337 0.833442 0.504400 0.061933
C63   C     C_R   0.301687 0.151939 0.491770 0.056938
C64   C     C_R   0.700244 0.849990 0.488929 0.046196
N1    N     N_R   0.000000 0.500000 0.689440 -0.137029
N2    N     N_R   1.000000 0.500000 0.310560 -0.135765
N3    N     N_R   0.500000 1.000000 0.689440 -0.140250
N4    N     N_R   0.500000 0.000000 0.310560 -0.141141
C65   C     C_R   0.988933 0.456094 0.963440 0.103125
C66   C     C_R   0.996831 0.546088 0.036533 0.103052
C67   C     C_R   0.009123 0.544770 0.962574 0.101528
C68   C     C_R   0.000918 0.454768 0.037274 0.102648
C69   C     C_R   0.496045 0.954908 0.964189 0.132687
C70   C     C_R   0.483650 0.042434 0.035587 0.134333
C71   C     C_R   0.499677 0.044775 0.963434 0.132884
C72   C     C_R   0.511752 0.957155 0.036150 0.135324
C73   C     C_R   0.999509 0.500317 0.842308 0.041617
C74   C     C_R   0.999084 0.500503 0.157495 0.041806
C75   C     C_R   0.498596 0.999787 0.840938 0.008065
C76   C     C_R   0.498156 0.000147 0.158721 0.006163
C77   C     C_R   0.102250 0.606242 0.498599 -0.085904
C78   C     C_R   0.895491 0.394104 0.501729 -0.109506
C79   C     C_R   0.903613 0.613870 0.498749 -0.082769
C80   C     C_R   0.099255 0.388992 0.497913 -0.105655
C81   C     C_R   0.612349 0.097917 0.501336 -0.111751
C82   C     C_R   0.391686 0.897528 0.504335 -0.118269
C83   C     C_R   0.387125 0.096029 0.497448 -0.110231
C84   C     C_R   0.614704 0.906100 0.497290 -0.125098
C85   C     C_R   0.239529 0.720397 0.552199 -0.046760
C86   C     C_R   0.808103 0.228419 0.461580 -0.048539
C87   C     C_R   0.753029 0.280739 0.533152 -0.047767
C88   C     C_R   0.204408 0.761222 0.446418 -0.050409
C89   C     C_R   0.785127 0.748821 0.427788 -0.045051
C90   C     C_R   0.195687 0.228621 0.551396 -0.050601
C91   C     C_R   0.217333 0.252239 0.428273 -0.046476
C92   C     C_R   0.811391 0.779630 0.544474 -0.052375
C93   C     C_R   0.720979 0.240852 0.538479 -0.048467
C94   C     C_R   0.238269 0.799542 0.451053 -0.048791
C95   C     C_R   0.273604 0.758464 0.556515 -0.047890
C96   C     C_R   0.775834 0.188516 0.466513 -0.049534
C97   C     C_R   0.251277 0.213164 0.426088 -0.046457
C98   C     C_R   0.775654 0.817037 0.542106 -0.046970
C99   C     C_R   0.749471 0.786274 0.425408 -0.047723
C100  C     C_R   0.229707 0.189586 0.549215 -0.050169
C101  C     C_R   0.796233 0.274416 0.494328 -0.024480
C102  C     C_R   0.205606 0.721553 0.496502 -0.022531
C103  C     C_R   0.190891 0.260812 0.491825 -0.023148
C104  C     C_R   0.814795 0.744542 0.488565 -0.020567
C105  C     C_R   0.273088 0.797622 0.505505 -0.020514
C106  C     C_R   0.732400 0.195046 0.504706 -0.020707
C107  C     C_R   0.743715 0.818950 0.483858 -0.023933
C108  C     C_R   0.258555 0.183280 0.487533 -0.023236
C109  C     C_R   0.998829 0.500439 0.076333 0.057674
C110  C     C_R   0.999155 0.500412 0.923543 0.055838
C111  C     C_R   0.497770 0.999882 0.076932 0.002250
C112  C     C_R   0.498074 0.999823 0.922848 0.012166
C113  C     C_1   0.961667 0.583624 0.692985 0.216567
N5    N     N_1   0.948862 0.621145 0.667695 -0.224498
C114  C     C_1   0.952056 0.422578 0.304640 0.211735
N6    N     N_1   0.936680 0.385567 0.327664 -0.221478
C115  C     C_1   0.039916 0.417242 0.694499 0.229440
N7    N     N_1   0.053810 0.380007 0.670006 -0.212798
C116  C     C_1   0.052204 0.574623 0.303172 0.221030
N8    N     N_1   0.071118 0.609563 0.325979 -0.206019
C117  C     C_1   0.505293 0.090470 0.691654 0.207344
N9    N     N_1   0.516570 0.128067 0.665582 -0.230312
C118  C     C_1   0.517103 0.910452 0.307358 0.230182
N10   N     N_1   0.532235 0.873818 0.332537 -0.219549
C119  C     C_1   0.493484 0.909603 0.692565 0.214655
N11   N     N_1   0.482265 0.872174 0.666747 -0.227510
C120  C     C_1   0.486727 0.090425 0.308696 0.226617
N12   N     N_1   0.475043 0.127694 0.335549 -0.223935
C121  C     C_1   0.936903 0.567202 0.838792 0.140216
N13   N     N_1   0.909118 0.592823 0.867622 -0.195910
C122  C     C_1   0.925682 0.448475 0.162434 0.140066
N14   N     N_1   0.893689 0.429494 0.134335 -0.199660
C123  C     C_1   0.062378 0.433674 0.840171 0.138470
N15   N     N_1   0.090029 0.408268 0.869511 -0.195502
C124  C     C_1   0.072794 0.552032 0.158389 0.142025
N16   N     N_1   0.104508 0.570913 0.128497 -0.195940
C125  C     C_1   0.456184 0.083880 0.829762 0.127992
N17   N     N_1   0.434165 0.117250 0.852808 -0.207910
C126  C     C_1   0.471180 0.910636 0.168275 0.122631
N18   N     N_1   0.455985 0.874430 0.143451 -0.213065
C127  C     C_1   0.540695 0.915405 0.831314 0.124826
N19   N     N_1   0.562076 0.881781 0.855020 -0.209526
C128  C     C_1   0.524107 0.090168 0.164609 0.118862
N20   N     N_1   0.537907 0.126778 0.138253 -0.210369
C129  C     C_3   0.166408 0.543204 0.452262 -0.436383
C130  C     C_3   0.180297 0.540032 0.373158 -0.793193
H17   H     H_    0.192538 0.501231 0.360715 0.244800
H18   H     H_    0.148898 0.549155 0.339065 0.272642
H19   H     H_    0.210066 0.566093 0.360111 0.250693
H20   H     H_    0.198216 0.532824 0.485158 0.200980
H21   H     H_    0.138767 0.514435 0.463012 0.199854
C131  C     C_3   0.939115 0.344913 0.604711 -0.393760
C132  C     C_3   0.984551 0.324511 0.568804 -0.822000
H22   H     H_    0.975809 0.295582 0.528422 0.253335
H23   H     H_    0.003786 0.355763 0.542784 0.252204
H24   H     H_    0.008455 0.306836 0.609286 0.267174
H25   H     H_    0.946415 0.379138 0.635856 0.232348
H26   H     H_    0.927967 0.317027 0.646025 0.196058
C133  C     C_3   0.845212 0.441486 0.404544 -0.395065
C134  C     C_3   0.793094 0.459887 0.413476 -0.888590
H27   H     H_    0.782392 0.460350 0.470827 0.277380
H28   H     H_    0.789300 0.498417 0.391068 0.261865
H29   H     H_    0.768102 0.435226 0.384163 0.260040
H30   H     H_    0.868613 0.473778 0.415644 0.222173
H31   H     H_    0.850947 0.431059 0.347641 0.226158
C135  C     C_3   0.039732 0.669497 0.550037 -0.425239
C136  C     C_3   0.042061 0.683429 0.629221 -0.782446
H32   H     H_    0.052518 0.650043 0.661685 0.264472
H33   H     H_    0.068367 0.713768 0.638344 0.244004
H34   H     H_    0.006300 0.697381 0.647489 0.261361
H35   H     H_    0.025670 0.702184 0.519096 0.201308
H36   H     H_    0.013194 0.639123 0.544000 0.210386
C137  C     C_3   0.846285 0.577106 0.595707 -0.396300
C138  C     C_3   0.824754 0.533458 0.555288 -0.864140
H37   H     H_    0.795829 0.547185 0.519129 0.267442
H38   H     H_    0.853005 0.513873 0.523778 0.256531
H39   H     H_    0.809149 0.506153 0.593899 0.258402
H40   H     H_    0.875814 0.563266 0.630066 0.236001
H41   H     H_    0.818221 0.591591 0.633220 0.205575
C139  C     C_3   0.044187 0.344371 0.405584 -0.396983
C140  C     C_3   0.059604 0.355357 0.328371 -0.783224
H42   H     H_    0.072314 0.394587 0.323025 0.269471
H43   H     H_    0.088982 0.329326 0.311480 0.253550
H44   H     H_    0.028746 0.350070 0.291893 0.244489
H45   H     H_    0.028347 0.306225 0.408054 0.202017
H46   H     H_    0.014521 0.370039 0.421392 0.231515
C141  C     C_3   0.161977 0.435124 0.575042 -0.437254
C142  C     C_3   0.172941 0.425666 0.654141 -0.791629
H47   H     H_    0.182845 0.461577 0.679786 0.246213
H48   H     H_    0.141215 0.410390 0.682573 0.276249
H49   H     H_    0.203643 0.399071 0.660342 0.246028
H50   H     H_    0.195795 0.446681 0.547724 0.199492
H51   H     H_    0.137016 0.467640 0.571618 0.213714
C143  C     C_3   0.958805 0.654332 0.401086 -0.403655
C144  C     C_3   0.943492 0.641328 0.324998 -0.776324
H52   H     H_    0.974749 0.644414 0.287993 0.239827
H53   H     H_    0.929600 0.602454 0.322833 0.270148
H54   H     H_    0.915003 0.667733 0.306215 0.251367
H55   H     H_    0.975248 0.692220 0.400280 0.195148
H56   H     H_    0.988042 0.628825 0.418911 0.222877
C145  C     C_3   0.593275 0.136466 0.376201 -0.377928
C146  C     C_3   0.609855 0.102625 0.314918 -0.816036
H57   H     H_    0.648714 0.108222 0.303250 0.250434
H58   H     H_    0.603875 0.062533 0.328071 0.269073
H59   H     H_    0.589485 0.112479 0.266090 0.254921
H60   H     H_    0.555135 0.131583 0.389975 0.229183
H61   H     H_    0.595350 0.176151 0.357635 0.198940
C147  C     C_3   0.357270 0.936104 0.623787 -0.382631
C148  C     C_3   0.342254 0.989277 0.603305 -0.823578
H62   H     H_    0.367423 0.004308 0.563134 0.255114
H63   H     H_    0.305302 0.989695 0.580901 0.252569
H64   H     H_    0.342960 0.013739 0.651208 0.256343
H65   H     H_    0.331934 0.923515 0.666487 0.195895
H66   H     H_    0.392686 0.935315 0.650502 0.235846
C149  C     C_3   0.426070 0.846550 0.397553 -0.400308
C150  C     C_3   0.410784 0.863675 0.322865 -0.788541
H67   H     H_    0.375093 0.848227 0.308878 0.251557
H68   H     H_    0.408829 0.905281 0.319931 0.265206
H69   H     H_    0.437265 0.849534 0.283037 0.256712
H70   H     H_    0.461112 0.862286 0.412443 0.226114
H71   H     H_    0.432078 0.805212 0.396966 0.201091
C151  C     C_3   0.637192 0.066521 0.630241 -0.383891
C152  C     C_3   0.648932 0.011102 0.618989 -0.790999
H72   H     H_    0.631445 0.997089 0.570268 0.263617
H73   H     H_    0.688459 0.005628 0.613274 0.246559
H74   H     H_    0.636199 0.988881 0.665783 0.248445
H75   H     H_    0.661253 0.079733 0.673451 0.190458
H76   H     H_    0.600875 0.071992 0.653403 0.234780
C153  C     C_3   0.423271 0.164929 0.577148 -0.410364
C154  C     C_3   0.410912 0.164587 0.657168 -0.774315
H77   H     H_    0.376645 0.185102 0.667821 0.245941
H78   H     H_    0.407352 0.125382 0.676895 0.264375
H79   H     H_    0.439581 0.183602 0.687554 0.258506
H80   H     H_    0.457954 0.145460 0.567308 0.223451
H81   H     H_    0.428524 0.204359 0.559168 0.205037
C155  C     C_3   0.653239 0.971633 0.409708 -0.430196
C156  C     C_3   0.696133 0.005457 0.425471 -0.852167
H82   H     H_    0.690840 0.042383 0.398641 0.267617
H83   H     H_    0.699469 0.011777 0.483791 0.271790
H84   H     H_    0.730266 0.988957 0.404743 0.260595
H85   H     H_    0.653384 0.962410 0.351766 0.217607
H86   H     H_    0.620978 0.994515 0.420348 0.239199
C157  C     C_3   0.581474 0.839662 0.585683 -0.409179
C158  C     C_3   0.594157 0.846730 0.664534 -0.775744
H87   H     H_    0.629560 0.829105 0.676892 0.248384
H88   H     H_    0.595665 0.887334 0.677401 0.261748
H89   H     H_    0.566682 0.828564 0.699111 0.257484
H90   H     H_    0.545822 0.856262 0.573815 0.223469
H91   H     H_    0.578083 0.798877 0.574744 0.202430
C159  C     C_3   0.346958 0.029293 0.416519 -0.410080
C160  C     C_3   0.354315 0.037462 0.336258 -0.772140
H92   H     H_    0.324380 0.060484 0.313894 0.250183
H93   H     H_    0.388867 0.056734 0.325673 0.270166
H94   H     H_    0.355183 0.000635 0.308717 0.239473
H95   H     H_    0.374456 0.002773 0.436365 0.220804
H96   H     H_    0.311989 0.010234 0.425681 0.202966
C161  C     C_1   0.239132 0.680188 0.605052 0.178817
N21   N     N_1   0.238760 0.648125 0.647114 -0.196882
C162  C     C_1   0.853231 0.222513 0.422740 0.187422
N22   N     N_1   0.889242 0.217884 0.391813 -0.194007
C163  C     C_1   0.741829 0.328203 0.567689 0.182771
N23   N     N_1   0.732983 0.366054 0.595126 -0.199427
C164  C     C_1   0.168941 0.761983 0.389669 0.184249
N24   N     N_1   0.140640 0.762527 0.344474 -0.187565
C165  C     C_1   0.789467 0.712953 0.369782 0.181065
N25   N     N_1   0.792981 0.684341 0.323608 -0.198166
C166  C     C_1   0.166366 0.236437 0.615083 0.185447
N26   N     N_1   0.142963 0.242752 0.665806 -0.185405
C167  C     C_1   0.211359 0.285179 0.366659 0.177285
N27   N     N_1   0.206543 0.311458 0.317619 -0.199995
C168  C     C_1   0.843863 0.776347 0.604914 0.181508
N28   N     N_1   0.869782 0.773660 0.653068 -0.188515
C169  C     C_1   0.675654 0.247281 0.576823 0.181443
N29   N     N_1   0.639532 0.252334 0.607335 -0.191311
C170  C     C_1   0.237734 0.840664 0.399702 0.179672
N30   N     N_1   0.237384 0.873465 0.358811 -0.197188
C171  C     C_1   0.310121 0.756506 0.611786 0.177989
N31   N     N_1   0.339240 0.754991 0.655793 -0.190861
C172  C     C_1   0.786782 0.141056 0.431989 0.180981
N32   N     N_1   0.795421 0.103178 0.404493 -0.200231
C173  C     C_1   0.280769 0.205646 0.362456 0.183551
N33   N     N_1   0.304303 0.199593 0.311798 -0.190282
C174  C     C_1   0.770517 0.852503 0.600433 0.184472
N34   N     N_1   0.766332 0.880806 0.646883 -0.195635
C175  C     C_1   0.716858 0.789314 0.365065 0.178881
N35   N     N_1   0.690833 0.791785 0.317018 -0.189013
C176  C     C_1   0.236417 0.157011 0.611002 0.180410
N36   N     N_1   0.241850 0.131016 0.660203 -0.194443
C177  C     C_3   0.961421 0.412759 0.930517 -0.413123
C178  C     C_3   0.911144 0.429384 0.906756 -0.828597
H97   H     H_    0.891564 0.447767 0.951750 0.270365
H98   H     H_    0.913018 0.455706 0.860708 0.260505
H99   H     H_    0.890437 0.396109 0.889798 0.248033
H100  H     H_    0.981115 0.396007 0.884723 0.215899
H101  H     H_    0.955575 0.382138 0.969953 0.210464
C179  C     C_3   0.977880 0.594634 0.069894 -0.414048
C180  C     C_3   0.925842 0.589352 0.095875 -0.823710
H102  H     H_    0.902934 0.574966 0.052138 0.270130
H103  H     H_    0.923431 0.563745 0.142675 0.260359
H104  H     H_    0.911618 0.626619 0.112572 0.250517
H105  H     H_    0.000644 0.607051 0.114662 0.215689
H106  H     H_    0.977246 0.625704 0.030173 0.211460
C181  C     C_3   0.036912 0.588053 0.928717 -0.413604
C182  C     C_3   0.087358 0.571373 0.905060 -0.820245
H107  H     H_    0.106567 0.552962 0.950286 0.269637
H108  H     H_    0.085816 0.545061 0.859444 0.261046
H109  H     H_    0.108237 0.604624 0.887490 0.250380
H110  H     H_    0.017588 0.604781 0.882692 0.217190
H111  H     H_    0.042482 0.618720 0.967541 0.210880
C183  C     C_3   0.019991 0.406241 0.070990 -0.414107
C184  C     C_3   0.072054 0.411582 0.095671 -0.822817
H112  H     H_    0.094849 0.426253 0.051284 0.270447
H113  H     H_    0.074465 0.436960 0.142244 0.259959
H114  H     H_    0.086423 0.374285 0.112288 0.250677
H115  H     H_    0.997295 0.393716 0.116438 0.215915
H116  H     H_    0.020641 0.375187 0.031750 0.211144
C185  C     C_3   0.461885 0.912993 0.945047 -0.394283
C186  C     C_3   0.411890 0.922744 0.976891 -0.852265
H117  H     H_    0.388192 0.890507 0.965384 0.258495
H118  H     H_    0.413637 0.927665 0.035730 0.273164
H119  H     H_    0.395811 0.957074 0.952481 0.257334
H120  H     H_    0.456786 0.909343 0.886687 0.217904
H121  H     H_    0.476038 0.876496 0.965275 0.220420
C187  C     C_3   0.443719 0.078055 0.059246 -0.395685
C188  C     C_3   0.396218 0.064991 0.023545 -0.851484
H122  H     H_    0.399909 0.065126 0.964429 0.274149
H123  H     H_    0.384325 0.027276 0.041554 0.256981
H124  H     H_    0.368143 0.092940 0.038925 0.260159
H125  H     H_    0.436833 0.075977 0.117620 0.219429
H126  H     H_    0.453392 0.117331 0.045735 0.221195
C189  C     C_3   0.534103 0.086640 0.943673 -0.393587
C190  C     C_3   0.584019 0.076307 0.974587 -0.855665
H127  H     H_    0.582195 0.071004 0.033482 0.272316
H128  H     H_    0.599891 0.042032 0.949965 0.257600
H129  H     H_    0.607940 0.108451 0.962546 0.257232
H130  H     H_    0.539259 0.090863 0.885250 0.216823
H131  H     H_    0.520148 0.123035 0.964260 0.220376
C191  C     C_3   0.551506 0.921319 0.059658 -0.395473
C192  C     C_3   0.599191 0.934422 0.023304 -0.853017
H132  H     H_    0.595725 0.934735 0.964238 0.274202
H133  H     H_    0.611168 0.971964 0.041061 0.256553
H134  H     H_    0.627106 0.906250 0.038391 0.259824
H135  H     H_    0.558261 0.923031 0.117876 0.218912
H136  H     H_    0.541779 0.882128 0.046587 0.220476

loop_
_geom_bond_atom_site_label_1
_geom_bond_atom_site_label_2
_geom_bond_distance
_ccdc_geom_bond_type
C92   C104  1.407718 A    
C115  N7    1.156591 T    
C160  H92   1.110651 S    
C14   C22   1.410530 A    
C33   C49   1.387901 A    
C180  H102  1.111197 S    
C137  H41   1.112119 S    
C32   C143  1.517962 S    
C129  H20   1.111299 S    
C163  N23   1.157348 T    
C185  C186  1.527161 S    
C26   C42   1.388839 A    
C11   N1    1.379897 A    
C158  H87   1.110505 S    
C18   C74   1.405616 A    
O6    Zn1   2.002311 S    
C66   C67   1.421085 A    
C96   C172  1.451389 S    
C150  H69   1.107376 S    
C29   C137  1.519700 S    
C133  H31   1.110030 S    
C190  H127  1.109038 S    
C10   C18   1.415814 A    
C186  H119  1.110761 S    
C70   C71   1.417450 A    
C67   C110  1.422867 A    
C89   C165  1.452431 S    
C36   C52   1.397142 A    
C136  H34   1.109238 S    
C146  H58   1.108668 S    
C177  H100  1.105869 S    
C131  H26   1.112642 S    
C85   C95   1.397282 A    
C90   C100  1.398715 A    
C59   C104  1.461063 S    
C142  H47   1.110501 S    
C65   C68   1.420946 A    
C7    C82   1.480541 S    
C141  H51   1.106001 S    
C146  H59   1.105428 S    
C178  H97   1.111252 S    
C174  N34   1.157291 T    
C18   C122  1.452166 S    
C135  C136  1.528818 S    
C54   C64   1.385522 A    
C137  C138  1.520073 S    
C69   C185  1.518568 S    
C40   C56   1.394110 A    
C13   C117  1.437286 S    
C128  N20   1.157640 T    
C37   C83   1.417925 A    
Zn4   N4    2.021331 S    
C164  N24   1.157300 T    
C34   C50   1.396682 A    
O11   Zn3   1.986694 S    
C10   N2    1.383184 A    
C72   C111  1.422753 A    
O2    Zn2   1.985963 S    
C122  N14   1.157333 T    
C11   C115  1.437927 S    
C125  N17   1.157461 T    
C22   C76   1.421646 A    
C70   C187  1.517526 S    
C133  H30   1.104957 S    
C154  H78   1.110833 S    
C16   C24   1.412316 A    
O15   Zn4   2.009042 S    
C180  H104  1.110584 S    
C91   C103  1.409919 A    
C39   C84   1.420004 A    
C152  H73   1.110457 S    
C157  H90   1.103762 S    
C145  H61   1.112872 S    
C158  H89   1.109292 S    
C179  C180  1.528899 S    
C88   C164  1.451837 S    
C86   C101  1.408109 A    
C65   C177  1.525742 S    
C190  H129  1.110291 S    
Zn3   N3    2.021331 S    
C124  N16   1.157324 T    
C188  H122  1.108097 S    
Zn2   N2    2.021331 S    
C25   C129  1.519092 S    
C155  H86   1.096347 S    
C130  H19   1.109948 S    
C8    C81   1.488662 S    
C35   C149  1.505143 S    
C183  C184  1.528934 S    
C135  H36   1.106909 S    
C24   C76   1.422803 A    
C134  H28   1.110728 S    
C132  H22   1.111322 S    
C114  N6    1.157952 T    
C130  H17   1.110483 S    
C142  H49   1.109473 S    
C35   C51   1.388968 A    
C57   C102  1.454588 S    
C47   H7    1.083389 S    
C97   C108  1.407549 A    
C184  H112  1.111207 S    
O9    C5    1.304931 A    
C169  N29   1.157397 T    
C184  H114  1.110590 S    
C89   C104  1.410646 A    
C91   C167  1.452582 S    
C43   C58   1.386926 A    
C148  H62   1.098515 S    
O7    Zn2   2.009042 S    
C153  H80   1.104243 S    
C30   C80   1.427738 A    
C21   C125  1.449059 S    
C160  H93   1.108932 S    
C33   C145  1.505586 S    
C17   C121  1.452245 S    
C192  H132  1.107966 S    
C97   C173  1.452346 S    
C187  C188  1.526542 S    
O13   C7    1.312602 A    
C145  C146  1.526911 S    
C87   C101  1.406834 A    
O14   C8    1.296599 A    
C179  H106  1.108511 S    
C1    C80   1.458470 S    
C149  H71   1.112509 S    
C3    C78   1.469165 S    
C41   H1    1.084100 S    
C19   C73   1.407591 A    
C150  H68   1.110471 S    
C183  H116  1.108484 S    
C15   C23   1.407933 A    
C98   C107  1.408794 A    
C55   H15   1.085129 S    
O16   Zn3   2.009046 S    
C156  H82   1.110487 S    
C27   C133  1.524184 S    
C21   C75   1.426835 A    
C139  C140  1.528909 S    
C52   C61   1.383391 A    
C38   C155  1.523949 S    
O8    C3    1.295936 A    
C188  H124  1.110327 S    
C151  H75   1.112340 S    
C147  H65   1.112403 S    
C192  H134  1.110325 S    
C71   C189  1.518737 S    
C86   C162  1.451378 S    
C23   C127  1.448822 S    
C172  N32   1.157342 T    
C187  H125  1.106716 S    
C40   C83   1.430676 A    
C140  H42   1.110402 S    
C88   C94   1.398564 A    
C89   C99   1.399569 A    
C132  H24   1.109371 S    
C139  H46   1.105179 S    
C143  H56   1.105489 S    
C186  H118  1.108888 S    
C24   C128  1.449970 S    
O15   C8    1.311530 A    
C165  N25   1.157340 T    
O16   C7    1.291435 A    
C144  H54   1.110817 S    
C189  H130  1.104738 S    
C49   H9    1.085856 S    
C38   C54   1.397667 A    
C25   C77   1.418791 A    
C39   C157  1.507772 S    
C149  H70   1.101680 S    
C148  H64   1.110402 S    
C73   C110  1.517160 S    
C42   H2    1.085278 S    
C137  H40   1.104024 S    
C151  C152  1.524516 S    
C62   C105  1.456028 S    
O1    C1    1.301788 A    
C158  H88   1.110947 S    
C191  C192  1.526698 S    
C31   C47   1.397707 A    
C183  H115  1.105748 S    
C54   H14   1.083017 S    
C190  H128  1.110786 S    
C92   C168  1.451387 S    
C96   C106  1.406929 A    
C86   C96   1.399683 A    
C61   C106  1.453360 S    
C133  C134  1.531906 S    
C155  C156  1.532254 S    
C156  H84   1.109193 S    
C157  C158  1.529706 S    
C136  H33   1.109763 S    
C98   C174  1.451636 S    
C2    C79   1.465554 S    
C76   C111  1.527689 S    
C49   C61   1.379352 A    
C185  H121  1.110460 S    
C40   C159  1.516703 S    
C99   C175  1.452123 S    
C72   C191  1.517956 S    
C189  H131  1.110526 S    
C93   C169  1.453047 S    
C19   C123  1.452497 S    
C71   C112  1.422471 A    
C142  H48   1.105548 S    
C117  N9    1.156442 T    
C6    C83   1.466847 S    
C127  N19   1.157451 T    
O10   C6    1.291108 A    
C65   C110  1.422635 A    
C178  H98   1.107843 S    
O12   Zn4   1.986694 S    
C140  H44   1.109113 S    
C15   N3    1.359048 A    
C27   C43   1.397156 A    
C41   C57   1.392273 A    
C28   C44   1.389776 A    
C17   C73   1.407406 A    
C90   C166  1.451649 S    
C64   C107  1.459432 S    
C92   C98   1.400271 A    
C189  C190  1.527287 S    
C26   C78   1.430318 A    
C159  C160  1.526060 S    
C161  N21   1.157309 T    
C191  H135  1.105934 S    
C27   C78   1.430194 A    
C95   C105  1.408823 A    
C178  H99   1.110524 S    
C144  H52   1.109273 S    
O13   Zn4   2.002314 S    
C34   C147  1.522402 S    
O14   Zn3   2.002311 S    
C12   C116  1.440881 S    
C170  N30   1.157308 T    
C153  C154  1.531060 S    
O8    Zn1   2.009046 S    
C44   H4    1.084634 S    
C154  H79   1.109258 S    
C4    C77   1.445246 S    
C180  H103  1.107776 S    
C129  H21   1.106888 S    
C166  N26   1.157285 T    
C48   H8    1.085037 S    
C121  N13   1.157334 T    
O3    Zn1   1.986694 S    
C69   C112  1.421852 A    
C30   C139  1.519093 S    
C70   C111  1.421517 A    
C120  N12   1.157629 T    
C95   C171  1.452487 S    
C167  N27   1.157333 T    
C16   C120  1.440953 S    
C145  H60   1.097155 S    
C36   C151  1.524104 S    
C162  N22   1.157365 T    
C91   C97   1.398103 A    
C85   C161  1.452630 S    
C45   H5    1.084389 S    
C116  N8    1.158342 T    
C182  H109  1.110528 S    
C22   C126  1.449352 S    
C146  H57   1.110881 S    
C177  H101  1.108415 S    
C9    N1    1.380087 A    
C131  H25   1.105761 S    
C28   C77   1.418313 A    
C51   H11   1.085547 S    
O4    C1    1.290563 A    
C10   C114  1.440002 S    
C42   C58   1.381290 A    
C31   C141  1.521851 S    
C159  H96   1.112202 S    
C143  C144  1.528855 S    
C130  H18   1.107529 S    
C67   C181  1.525869 S    
C147  C148  1.520451 S    
O9    Zn3   1.985963 S    
C46   C60   1.383573 A    
O10   Zn4   1.985963 S    
C94   C105  1.408575 A    
C13   N3    1.359251 A    
C87   C93   1.395865 A    
C26   C131  1.517677 S    
O4    Zn2   1.986694 S    
C184  H113  1.107644 S    
O5    C3    1.302656 A    
C126  N18   1.157559 T    
O6    C4    1.292676 A    
C173  N33   1.157307 T    
C13   C21   1.407763 A    
C5    C84   1.473244 S    
C53   H13   1.085086 S    
C176  N36   1.157292 T    
C33   C81   1.429221 A    
C131  C132  1.521930 S    
C60   C103  1.456732 S    
C181  C182  1.528675 S    
Zn1   N1    2.021331 S    
C129  C130  1.526902 S    
C181  H111  1.108364 S    
C25   C41   1.394379 A    
C138  H38   1.106001 S    
C175  N35   1.157309 T    
O5    Zn2   2.002314 S    
O7    C4    1.292540 A    
C9    C17   1.416849 A    
C136  H32   1.110982 S    
C154  H77   1.110088 S    
C93   C106  1.409486 A    
C74   C109  1.515892 S    
C152  H74   1.110527 S    
C63   C108  1.455695 S    
C119  N11   1.156818 T    
O2    C2    1.295459 A    
C177  C178  1.528654 S    
C118  N10   1.157490 T    
C100  C108  1.408531 A    
C43   H3    1.083315 S    
C123  N15   1.157307 T    
C157  H91   1.112028 S    
C56   C63   1.385694 A    
C99   C107  1.407558 A    
C29   C45   1.397093 A    
C44   C57   1.387433 A    
C188  H123  1.110577 S    
C151  H76   1.103373 S    
C147  H66   1.105962 S    
C192  H133  1.110605 S    
C46   H6    1.085226 S    
C155  H85   1.111061 S    
C37   C53   1.390699 A    
O3    C2    1.300175 A    
C187  H126  1.110306 S    
C23   C75   1.427469 A    
C135  H35   1.111517 S    
C20   C74   1.405953 A    
C141  C142  1.529369 S    
C134  H27   1.109706 S    
C132  H23   1.102574 S    
C75   C112  1.529738 S    
C37   C153  1.507953 S    
C32   C48   1.391009 A    
C141  H50   1.111149 S    
C34   C82   1.438917 A    
C35   C82   1.423506 A    
C66   C109  1.422617 A    
C181  H110  1.105756 S    
O1    Zn1   1.985963 S    
C144  H53   1.110051 S    
C171  N31   1.157323 T    
C52   H12   1.084483 S    
C66   C179  1.526343 S    
C51   C62   1.382000 A    
C148  H63   1.110881 S    
C153  H81   1.111863 S    
C159  H95   1.100000 S    
C160  H94   1.110553 S    
C14   C118  1.439898 S    
C69   C72   1.417644 A    
C138  H37   1.110820 S    
C168  N28   1.157305 T    
O12   C5    1.293413 A    
C14   N4    1.363998 A    
C32   C79   1.428824 A    
C179  H105  1.105919 S    
C45   C59   1.392305 A    
C85   C102  1.408299 A    
C150  H67   1.110531 S    
C31   C80   1.422821 A    
C182  H107  1.111236 S    
C90   C103  1.407100 A    
C30   C46   1.387517 A    
C48   C59   1.384984 A    
C56   H16   1.084607 S    
C182  H108  1.107829 S    
C156  H83   1.107780 S    
C47   C60   1.392865 A    
C12   N2    1.384556 A    
C149  C150  1.526791 S    
C50   H10   1.084616 S    
C39   C55   1.391779 A    
C68   C183  1.526582 S    
C9    C113  1.439051 S    
C185  H120  1.105063 S    
C53   C63   1.387449 A    
C58   C101  1.452469 S    
C138  H39   1.110444 S    
C87   C163  1.452983 S    
C20   C124  1.452783 S    
O11   C6    1.304647 A    
C38   C84   1.435375 A    
C16   N4    1.366002 A    
C36   C81   1.443122 A    
C152  H72   1.103197 S    
C140  H43   1.110840 S    
C134  H29   1.109935 S    
C94   C170  1.452003 S    
C55   C64   1.386707 A    
C15   C119  1.438453 S    
C100  C176  1.451821 S    
C11   C19   1.417431 A    
C139  H45   1.112199 S    
C143  H55   1.112212 S    
C12   C20   1.417261 A    
C191  H136  1.110297 S    
C186  H117  1.110309 S    
C68   C109  1.422969 A    
C28   C135  1.516730 S    
C29   C79   1.424172 A    
C113  N5    1.157070 T    
C88   C102  1.407681 A    
C50   C62   1.384801 A    
