data_mof_unit_16702.cif
_audit_creation_date              2012-12-11T14:08:32-0500
_audit_creation_method            fapswitch 2.2
_symmetry_space_group_name_H-M    P1
_symmetry_Int_Tables_number       1
_space_group_crystal_system       triclinic
_cell_length_a                    10.930296
_cell_length_b                    10.948042
_cell_length_c                    18.694602
_cell_angle_alpha                 90.291643
_cell_angle_beta                  89.965291
_cell_angle_gamma                 60.333591
_cell_volume                      1943.82372867

loop_
_atom_site_label
_atom_site_type_symbol
_atom_type_description
_atom_site_fract_x
_atom_site_fract_y
_atom_site_fract_z
_atom_type_partial_charge
Br1   Br    Br    0.488956 0.690732 0.195080 -0.537281
C1    C     C_R   0.236594 0.645507 0.608807 0.542506
C2    C     C_2   0.782574 0.154056 0.706867 -0.179617
C3    C     C_2   0.181171 0.662881 0.681356 -0.121844
C4    C     C_R   0.653961 0.622591 0.601223 0.535124
C5    C     C_2   0.194188 0.662977 0.839297 -0.118637
C6    C     C_2   0.191346 0.561926 0.799732 -0.178344
C7    C     C_2   0.220298 0.549331 0.722746 -0.177430
C8    C     C_2   0.668940 0.686446 0.332893 -0.078626
C9    C     C_2   0.666144 0.677485 0.170573 0.156693
C10   C     C_2   0.773421 0.645819 0.216348 -0.139660
C11   C     C_2   0.774207 0.605225 0.289555 -0.144786
C12   C     C_3   0.670316 0.553514 0.800770 -0.252676
C13   C     C_2   0.673615 0.137989 0.333653 -0.107752
C14   C     C_2   0.653061 0.145221 0.179328 -0.092214
C15   C     C_2   0.608376 0.076141 0.221768 -0.155976
C16   C     C_R   0.628310 0.227530 0.601933 0.542531
C17   C     C_2   0.591150 0.101270 0.298067 -0.162016
C18   C     C_2   0.121280 0.681098 0.345168 -0.103558
C19   C     C_2   0.113029 0.691529 0.190894 -0.070968
C20   C     C_2   0.041793 0.804311 0.234173 -0.140196
C21   C     C_2   0.074080 0.800214 0.309445 -0.147260
C22   C     C_R   0.703399 0.101946 0.897463 0.549140
C23   C     C_3   0.700037 0.675525 0.812179 0.052775
C24   C     C_R   0.724162 0.688809 0.888141 0.547637
C25   C     C_R   0.119084 0.706352 0.907425 0.554240
C26   C     C_R   0.675943 0.104949 0.105213 0.551490
C27   C     C_R   0.696012 0.690299 0.096712 0.580860
C28   C     C_R   0.215306 0.651375 0.404623 0.571255
C29   C     C_R   0.086414 0.713462 0.115413 0.564882
C30   C     C_R   0.645190 0.627529 0.396632 0.570442
C31   C     C_R   0.621046 0.222802 0.397483 0.565228
C32   C     C_3   0.574158 0.813265 0.782273 -0.232617
C33   C     C_3   0.554623 0.796281 0.702282 -0.241766
C34   C     C_3   0.669998 0.648699 0.676453 0.060469
C35   C     C_3   0.835320 0.645870 0.770080 -0.220794
C36   C     C_3   0.815863 0.634474 0.689626 -0.247600
C37   C     C_3   0.655947 0.535387 0.720517 -0.214079
C38   C     C_2   0.675910 0.155508 0.670478 -0.122506
C39   C     C_2   0.689331 0.166195 0.827586 -0.120516
C40   C     C_2   0.801129 0.121574 0.783741 -0.177704
Cr1   Cr    Cr6+3 0.393010 0.398050 0.501480 1.020121
Cr2   Cr    Cr6+3 0.398820 0.707980 0.501630 1.024965
Cr3   Cr    Cr6+3 0.708140 0.393940 0.496850 1.017334
Cr4   Cr    Cr6+3 0.937950 0.938450 0.008940 1.037484
Cr5   Cr    Cr6+3 0.626180 0.937030 0.994750 1.034396
Cr6   Cr    Cr6+3 0.937790 0.625760 0.001410 1.021176
H1    H     H_    0.593903 0.903053 0.789703 0.141055
H2    H     H_    0.274465 0.443970 0.700024 0.157473
H3    H     H_    0.231972 0.729329 0.816363 0.103114
H4    H     H_    0.475519 0.838947 0.811616 0.125728
H5    H     H_    0.124785 0.768293 0.703951 0.103982
H6    H     H_    0.872789 0.633834 0.197261 0.131342
H7    H     H_    0.859140 0.503344 0.306122 0.154109
H8    H     H_    0.588229 0.790494 0.316035 0.140141
H9    H     H_    0.576464 0.004126 0.199680 0.169005
H10   H     H_    0.499504 0.104824 0.322884 0.160456
H11   H     H_    0.685849 0.217388 0.199960 0.115330
H12   H     H_    0.739448 0.428553 0.704288 0.142647
H13   H     H_    0.769951 0.125589 0.309850 0.100935
H14   H     H_    0.969327 0.907189 0.212455 0.153914
H15   H     H_    0.447844 0.809536 0.693993 0.145631
H16   H     H_    0.077730 0.890015 0.332026 0.159147
H17   H     H_    0.186860 0.587369 0.210384 0.112177
H18   H     H_    0.108828 0.595237 0.323868 0.100719
H19   H     H_    0.560865 0.879686 0.671368 0.114862
H20   H     H_    0.860872 0.731116 0.780192 0.124346
H21   H     H_    0.824542 0.718522 0.660708 0.114436
H22   H     H_    0.757331 0.454111 0.822881 0.137968
H23   H     H_    0.926558 0.545414 0.788176 0.136663
H24   H     H_    0.571556 0.575841 0.828971 0.117958
H25   H     H_    0.552499 0.542037 0.709967 0.125293
H26   H     H_    0.901532 0.531518 0.669496 0.138544
H27   H     H_    0.907475 0.056783 0.803677 0.151769
H28   H     H_    0.854806 0.181090 0.680915 0.145872
H29   H     H_    0.583474 0.232107 0.807190 0.108795
H30   H     H_    0.609613 0.120196 0.696079 0.103208
H31   H     H_    0.161041 0.490217 0.823154 0.148977
O1    O     O_R   0.507110 0.256280 0.580300 -0.524993
O2    O     O_R   0.837080 0.593860 0.915300 -0.525494
O3    O     O_R   0.064770 0.636080 0.932550 -0.498383
O4    O     O_R   0.280830 0.527190 0.577940 -0.502989
O5    O     O_R   0.068250 0.829200 0.092940 -0.490521
O6    O     O_R   0.799650 0.057040 0.080330 -0.504416
O7    O     O_R   0.586130 0.079760 0.077080 -0.504488
O8    O     O_R   0.627700 0.809630 0.066580 -0.485754
O9    O     O_R   0.816140 0.597180 0.075920 -0.524264
O10   O     O_R   0.045360 0.639170 0.081440 -0.509764
O11   O     O_3   0.833980 0.833750 0.001700 -0.267000
O12   O     O_R   0.524640 0.695370 0.425100 -0.486940
O13   O     O_R   0.261360 0.738990 0.584270 -0.523991
O14   O     O_R   0.532590 0.694780 0.574370 -0.513442
O15   O     O_R   0.744470 0.503750 0.577000 -0.533159
O16   O     O_R   0.698520 0.277230 0.571620 -0.502296
O17   O     O_R   0.498530 0.256920 0.419280 -0.511835
O18   O     O_R   0.272880 0.527780 0.428680 -0.497981
O19   O     O_R   0.252780 0.739630 0.423250 -0.501328
O20   O     O_R   0.735890 0.504390 0.415980 -0.514018
O21   O     O_R   0.690560 0.277820 0.422350 -0.495004
O22   O     O_3   0.499990 0.499990 0.499980 -0.246250
O23   O     O_R   0.089190 0.825870 0.932320 -0.514100
O24   O     O_R   0.819070 0.053960 0.931440 -0.494019
O25   O     O_R   0.607070 0.076440 0.916460 -0.519575
O26   O     O_R   0.647110 0.806550 0.917690 -0.507918

loop_
_geom_bond_atom_site_label_1
_geom_bond_atom_site_label_2
_ccdc_geom_bond_type
C23   C24   S    
C24   O2    A    
C13   C17   D    
Cr1   O4    S    
C33   H15   S    
C3    C7    D    
C33   H19   S    
C35   H20   S    
C6    C7    S    
Cr5   O11   S    
C19   C29   S    
C23   C35   S    
C3    H5    S    
Cr1   O18   S    
C38   H30   S    
C35   C36   S    
C34   C36   S    
C25   O23   A    
Cr3   O21   S    
C22   O24   A    
C14   C15   D    
C36   H21   S    
C16   O1    A    
C26   O6    A    
C33   C34   S    
C16   C38   S    
C30   O20   A    
C29   O5    A    
C26   O7    A    
Cr3   O15   S    
C21   H16   S    
Cr3   O20   S    
C22   O25   A    
C8    H8    S    
C2    H28   S    
C20   H14   S    
C10   H6    S    
Cr5   O7    S    
C40   H27   S    
C2    C38   D    
Cr1   O1    S    
C20   C21   S    
Cr6   O11   S    
Cr4   O5    S    
Cr6   O2    S    
C35   H23   S    
C37   H25   S    
Cr2   O12   S    
Cr1   O17   S    
C18   C21   D    
Cr2   O22   S    
Cr4   O24   S    
C12   H24   S    
Cr5   O26   S    
Cr2   O13   S    
C39   H29   S    
C12   C23   S    
Cr6   O9    S    
C19   H17   S    
C1    C3    S    
C15   H9    S    
C23   C32   S    
Cr1   O22   S    
C17   H10   S    
C14   C26   S    
C30   O12   A    
C34   C37   S    
C27   O9    A    
C32   C33   S    
C5    H3    S    
C12   C37   S    
Cr4   O23   S    
C6    H31   S    
C39   C40   D    
C25   O3    A    
C27   O8    A    
C14   H11   S    
C1    O4    A    
Cr4   O6    S    
C29   O10   A    
C18   C28   S    
Cr4   O11   S    
C9    C27   S    
C36   H26   S    
C2    C40   S    
Br1   C9    S    
Cr2   O19   S    
C13   C31   S    
C28   O18   A    
C4    O15   A    
C10   C11   S    
C24   O26   A    
C5    C6    D    
C32   H4    S    
C13   H13   S    
Cr5   O25   S    
Cr2   O14   S    
C31   O21   A    
C28   O19   A    
Cr6   O10   S    
Cr3   O22   S    
C5    C25   S    
C12   H22   S    
C4    C34   S    
C18   H18   S    
Cr6   O3    S    
C1    O13   A    
C8    C11   D    
C4    O14   A    
Cr3   O16   S    
C9    C10   D    
C8    C30   S    
C37   H12   S    
C31   O17   A    
C19   C20   D    
C15   C17   S    
C32   H1    S    
C16   O16   A    
C7    H2    S    
C11   H7    S    
C22   C39   S    
Cr5   O8    S    
