data_mof_unit_22433.cif
_audit_creation_date              2012-12-10T19:00:00-0500
_audit_creation_method            fapswitch 2.2
_symmetry_space_group_name_H-M    P1
_symmetry_Int_Tables_number       1
_space_group_crystal_system       triclinic
_cell_length_a                    10.710192
_cell_length_b                    10.713456
_cell_length_c                    9.824783
_cell_angle_alpha                 90.238321
_cell_angle_beta                  90.376116
_cell_angle_gamma                 89.735635
_cell_volume                      1127.28085323

loop_
_atom_site_label
_atom_site_type_symbol
_atom_type_description
_atom_site_fract_x
_atom_site_fract_y
_atom_site_fract_z
_atom_type_partial_charge
C1    C     C_R   0.499174 0.259832 0.499803 0.874835
C2    C     C_R   0.503486 0.064344 0.623965 -0.225220
C3    C     C_R   0.501570 0.872590 0.500158 -0.014864
C4    C     C_R   0.498413 0.127410 0.499843 -0.014871
C5    C     C_R   0.570714 0.583600 0.072840 -0.080841
C6    C     C_R   0.429287 0.416400 0.927160 -0.080823
C7    C     C_R   0.570686 0.583562 0.928844 -0.035005
C8    C     C_R   0.429314 0.416438 0.071155 -0.034954
C9    C     C_R   0.260037 0.503585 0.499513 0.881749
C10   C     C_R   0.739963 0.496413 0.500486 0.881752
C11   C     C_R   0.229885 0.808871 0.195449 -0.186362
C12   C     C_R   0.500822 0.740169 0.500197 0.874842
C13   C     C_R   0.770084 0.191085 0.804467 -0.186333
C14   C     C_R   0.175356 0.743161 0.301957 -0.149755
C15   C     C_R   0.824647 0.256804 0.697986 -0.149796
C16   C     C_R   0.118946 0.627476 0.277218 0.153093
C17   C     C_R   0.881050 0.372491 0.722758 0.153078
C18   C     C_R   0.117892 0.577893 0.144866 -0.182397
C19   C     C_R   0.882070 0.422061 0.855119 -0.182367
C20   C     C_R   0.174327 0.642662 0.038591 -0.202746
C21   C     C_R   0.825600 0.357283 0.961368 -0.202718
C22   C     C_R   0.230878 0.759009 0.062932 0.057721
C23   C     C_R   0.872474 0.494209 0.501011 -0.073004
C24   C     C_R   0.769045 0.240940 0.936990 0.057745
C25   C     C_R   0.932078 0.551390 0.391947 -0.241073
C26   C     C_R   0.067922 0.448605 0.608051 -0.241058
C27   C     C_2   0.289760 0.829356 0.950953 0.869511
C28   C     C_2   0.710103 0.170597 0.048936 0.869457
C29   C     C_R   0.127526 0.505787 0.498987 -0.072988
C30   C     C_R   0.939970 0.441260 0.609944 -0.002057
C31   C     C_R   0.060029 0.558730 0.390050 -0.002061
C32   C     C_R   0.493842 0.063385 0.375934 -0.155637
C33   C     C_R   0.506133 0.936616 0.624067 -0.155665
C34   C     C_R   0.496488 0.935657 0.376036 -0.225186
H1    H     H_    0.627307 0.650189 0.874852 0.131725
H2    H     H_    0.826580 0.398011 0.062468 0.170153
H3    H     H_    0.878795 0.594222 0.310025 0.158820
H4    H     H_    0.121205 0.405770 0.689972 0.158811
H5    H     H_    0.488106 0.111583 0.279415 0.186773
H6    H     H_    0.511865 0.888419 0.720588 0.186793
H7    H     H_    0.493950 0.886731 0.279356 0.168919
H8    H     H_    0.506018 0.113270 0.720648 0.168973
H9    H     H_    0.627318 0.650301 0.128164 0.128971
H10   H     H_    0.372683 0.349698 0.871835 0.128963
H11   H     H_    0.377333 0.986726 0.892564 0.343987
H12   H     H_    0.372693 0.349811 0.125148 0.131716
H13   H     H_    0.622421 0.013277 0.107260 0.343977
H14   H     H_    0.270688 0.899065 0.216875 0.175829
H15   H     H_    0.729285 0.100891 0.783014 0.175839
H16   H     H_    0.176281 0.782797 0.403580 0.136755
H17   H     H_    0.823749 0.217178 0.596355 0.136755
H18   H     H_    0.074520 0.488565 0.124389 0.137377
H19   H     H_    0.925436 0.511391 0.875623 0.137363
H20   H     H_    0.173314 0.601930 0.937497 0.170151
N1    N     N_R   0.499970 0.499970 0.857200 -0.075393
N2    N     N_R   0.500030 0.500030 0.142800 -0.075391
O1    O     O_R   0.499990 0.316750 0.614620 -0.634605
O2    O     O_R   0.342574 0.946290 0.977147 -0.828868
O3    O     O_2   0.707932 0.214006 0.164273 -0.634827
O4    O     O_R   0.657252 0.053694 0.022696 -0.828865
O5    O     O_R   0.500010 0.683250 0.385380 -0.634603
O6    O     O_R   0.499990 0.316780 0.385290 -0.602538
O7    O     O_R   0.500010 0.683220 0.614710 -0.602547
O8    O     O_R   0.316760 0.500000 0.614660 -0.611395
O9    O     O_R   0.683240 0.500000 0.385340 -0.611419
O10   O     O_R   0.316760 0.500020 0.385330 -0.617252
O11   O     O_R   0.683240 0.499980 0.614670 -0.617238
O12   O     O_2   0.291925 0.785928 0.835630 -0.634814
Zn1   Zn    Zn3+2 0.500000 0.499980 0.653120 0.977555
Zn2   Zn    Zn3+2 0.500000 0.500020 0.346880 0.977549

loop_
_geom_bond_atom_site_label_1
_geom_bond_atom_site_label_2
_ccdc_geom_bond_type
O5    Zn2   S    
C25   C31   A    
C2    C4    A    
C32   C34   A    
C19   C21   A    
C12   O5    A    
C7    N1    A    
C10   C23   S    
C4    C32   A    
C9    O8    A    
C5    C7    A    
C11   C22   A    
N2    Zn2   S    
C15   H17   S    
C3    C34   A    
C9    C29   S    
C6    N1    A    
C1    C4    S    
C25   H3    S    
C1    O6    A    
C8    N2    A    
C23   C25   A    
C5    H9    S    
C18   H18   S    
C29   C31   A    
C21   H2    S    
O10   Zn2   S    
O8    Zn1   S    
C16   C31   S    
C17   C30   S    
C19   H19   S    
C11   H14   S    
N1    Zn1   S    
C34   H7    S    
C28   O3    D    
C2    H8    S    
C13   H15   S    
C6    C8    A    
C2    C33   A    
C16   C18   A    
C17   C19   A    
C20   C22   A    
C26   C30   A    
C27   O12   D    
C18   C20   A    
C22   C27   S    
C13   C15   A    
C11   C14   A    
C14   C16   A    
H11   O2    S    
C21   C24   A    
C33   H6    S    
C14   H16   S    
O9    Zn2   S    
C23   C30   A    
C24   C28   S    
C28   O4    S    
O6    Zn2   S    
C26   C29   A    
C20   H20   S    
C32   H5    S    
C15   C17   A    
C12   O7    A    
C3    C33   A    
C9    O10   A    
C26   H4    S    
C6    H10   S    
C3    C12   S    
C5    N2    A    
C8    H12   S    
O1    Zn1   S    
H13   O4    S    
C10   O11   A    
C7    H1    S    
O7    Zn1   S    
C13   C24   A    
C10   O9    A    
O11   Zn1   S    
C27   O2    S    
C1    O1    A    
