data_mof_unit_55597.cif
_audit_creation_date              2012-12-10T18:55:19-0500
_audit_creation_method            fapswitch 2.2
_symmetry_space_group_name_H-M    P1
_symmetry_Int_Tables_number       1
_space_group_crystal_system       triclinic
_cell_length_a                    10.642417
_cell_length_b                    9.824723
_cell_length_c                    27.735672
_cell_angle_alpha                 90.020754
_cell_angle_beta                  89.894819
_cell_angle_gamma                 89.904319
_cell_volume                      2899.99943222

loop_
_atom_site_label
_atom_site_type_symbol
_atom_type_description
_atom_site_fract_x
_atom_site_fract_y
_atom_site_fract_z
_atom_type_partial_charge
C1    C     C_R   0.260477 0.500077 0.500255 0.814851
C2    C     C_R   0.739465 0.499921 0.500350 0.822611
C3    C     C_R   0.476131 0.516473 0.101518 -0.050618
C4    C     C_R   0.504672 0.486304 0.898431 -0.049966
C5    C     C_R   0.385301 0.440688 0.126843 -0.028837
C6    C     C_R   0.604613 0.549126 0.873650 -0.030778
C7    C     C_R   0.300049 0.360216 0.101557 -0.127415
C8    C     C_R   0.698242 0.616187 0.899465 -0.126930
C9    C     C_R   0.561642 0.597769 0.127331 -0.027738
C10   C     C_R   0.411463 0.417164 0.872107 -0.029574
C11   C     C_R   0.493912 0.500885 0.353078 -0.134725
C12   C     C_R   0.502950 0.499340 0.646936 -0.131006
C13   C     C_R   0.397702 0.426826 0.973895 0.043897
C14   C     C_R   0.577981 0.582485 0.025782 0.044112
C15   C     C_R   0.589535 0.568362 0.975157 0.044525
C16   C     C_R   0.393557 0.429829 0.024972 0.044331
C17   C     C_R   0.497386 0.493637 0.949378 0.074133
C18   C     C_R   0.482350 0.509845 0.050537 0.073558
C19   C     C_R   0.304985 0.359631 0.946219 -0.211128
C20   C     C_R   0.658524 0.667976 0.052697 -0.211289
C21   C     C_R   0.312148 0.354799 0.896344 -0.124635
C22   C     C_R   0.650654 0.674821 0.102514 -0.126244
C23   C     C_R   0.500479 0.499772 0.405881 0.875116
C24   C     C_R   0.499556 0.500247 0.594107 0.867558
C25   C     C_R   0.304032 0.354447 0.051640 -0.210826
C26   C     C_R   0.691341 0.625337 0.949262 -0.211742
C27   C     C_R   0.065649 0.457142 0.458093 -0.047430
C28   C     C_R   0.934245 0.537782 0.543096 -0.042145
C29   C     C_R   0.934635 0.457053 0.458427 -0.053851
C30   C     C_R   0.065112 0.541783 0.542511 -0.064694
C31   C     C_R   0.872052 0.499898 0.500481 -0.192324
C32   C     C_R   0.127816 0.499937 0.500259 -0.193467
C33   C     C_R   0.575128 0.071896 0.531013 -0.031972
C34   C     C_R   0.424869 0.928103 0.468988 -0.036396
C35   C     C_R   0.424842 0.072120 0.468997 -0.000310
C36   C     C_R   0.575144 0.927879 0.531007 -0.005618
C37   C     C_R   0.383786 0.444865 0.177253 0.519609
C38   C     C_R   0.607908 0.544186 0.823273 0.522449
C39   C     C_R   0.557114 0.598638 0.177719 0.522747
C40   C     C_R   0.418269 0.414993 0.821751 0.524123
C41   C     C_R   0.514148 0.393541 0.274766 -0.119342
C42   C     C_R   0.475634 0.606577 0.724954 -0.114039
C43   C     C_R   0.523953 0.385373 0.324691 0.265523
C44   C     C_R   0.469592 0.614582 0.674944 0.254292
C45   C     C_R   0.454152 0.621444 0.330299 -0.241897
C46   C     C_R   0.541357 0.378968 0.670177 -0.206948
C47   C     C_R   0.444547 0.627829 0.280482 -0.069797
C48   C     C_R   0.546409 0.372516 0.720108 -0.064886
C49   C     C_R   0.474802 0.514034 0.252738 0.247546
C50   C     C_R   0.513527 0.486268 0.747380 0.250602
H1    H     H_    0.429395 0.711098 0.351010 0.184684
H2    H     H_    0.568170 0.289483 0.649748 0.183419
H3    H     H_    0.635126 0.126503 0.555790 0.137239
H4    H     H_    0.364870 0.873496 0.444211 0.134516
H5    H     H_    0.364818 0.126914 0.444230 0.158822
H6    H     H_    0.635148 0.873084 0.555781 0.143323
H7    H     H_    0.414110 0.721257 0.263360 0.164857
H8    H     H_    0.575527 0.279245 0.737662 0.159911
H9    H     H_    0.230211 0.299897 0.120302 0.195197
H10   H     H_    0.777401 0.662747 0.881244 0.195771
H11   H     H_    0.449072 0.693563 0.746740 0.171677
H12   H     H_    0.538710 0.306391 0.252721 0.174262
H13   H     H_    0.238503 0.302555 0.876801 0.196330
H14   H     H_    0.715554 0.740470 0.121543 0.195020
H15   H     H_    0.223479 0.311959 0.961773 0.145496
H16   H     H_    0.727816 0.733106 0.036354 0.145957
H17   H     H_    0.237078 0.286856 0.035246 0.145388
H18   H     H_    0.769037 0.675866 0.966419 0.145881
N1    N     N_R   0.470144 0.521437 0.201445 -0.351257
N2    N     N_R   0.514683 0.479296 0.798629 -0.353602
N3    N     N_R   0.500000 0.857200 0.500000 -0.088369
N4    N     N_R   0.500000 0.142800 0.500000 -0.090633
O1    O     O_R   0.316770 0.614620 0.500000 -0.613992
O2    O     O_R   0.683230 0.385380 0.500000 -0.591722
O3    O     O_R   0.683230 0.614620 0.500000 -0.630034
O4    O     O_R   0.316770 0.385380 0.500000 -0.609187
O5    O     O_R   0.500030 0.614650 0.428760 -0.628086
O6    O     O_R   0.499970 0.385350 0.571240 -0.626117
O7    O     O_R   0.499970 0.614650 0.571240 -0.587208
O8    O     O_R   0.500030 0.385350 0.428760 -0.575763
O9    O     O_2   0.297413 0.372488 0.202022 -0.531093
O10   O     O_2   0.702644 0.604584 0.798969 -0.523923
O11   O     O_2   0.328354 0.351297 0.795967 -0.529267
O12   O     O_2   0.640587 0.673545 0.202909 -0.537629
Zn1   Zn    Zn3+2 0.500000 0.653120 0.500000 0.985188
Zn2   Zn    Zn3+2 0.500000 0.346880 0.500000 1.007164
Br1   Br    Br    0.409722 0.783970 0.648771 -0.440601
Br2   Br    Br    0.583072 0.214931 0.350192 -0.416732
C51   C     C_2   0.139847 0.425564 0.413508 0.449328
H19   H     H_    0.228544 0.476651 0.407073 0.031990
O13   O     O_2   0.105763 0.340361 0.384354 -0.487088
C52   C     C_2   0.861143 0.564275 0.588217 0.476421
H20   H     H_    0.771132 0.615893 0.586761 0.059020
O14   O     O_2   0.898307 0.523194 0.627223 -0.510625
C53   C     C_2   0.860648 0.420502 0.414890 0.549521
H21   H     H_    0.796699 0.494374 0.399255 0.018885
O15   O     O_2   0.864151 0.305265 0.398513 -0.450193
C54   C     C_2   0.137970 0.591693 0.584928 0.578015
H22   H     H_    0.227746 0.545933 0.593861 0.037422
O16   O     O_2   0.100861 0.687891 0.608968 -0.490599

loop_
_geom_bond_atom_site_label_1
_geom_bond_atom_site_label_2
_ccdc_geom_bond_type
C38   N2    A    
C37   N1    A    
C27   C29   A    
C8    C26   A    
C14   C18   A    
C53   H21   S    
C25   H17   S    
C47   C49   A    
C40   N2    A    
C36   H6    S    
C43   Br2   S    
C20   H16   S    
C19   C21   A    
C39   O12   S    
C5    C37   A    
C9    C22   A    
C45   H1    S    
C46   H2    S    
C9    C39   A    
C33   C36   A    
C3    C18   A    
C10   C40   A    
C34   C35   A    
C7    H9    S    
O8    Zn2   S    
C33   N4    A    
N3    Zn1   S    
O3    Zn1   S    
C6    C38   A    
C11   C43   A    
C23   O8    A    
C51   O13   D    
C44   Br1   S    
C2    O2    A    
C36   N3    A    
O6    Zn2   S    
C48   C50   A    
O5    Zn1   S    
C49   N1    S    
C38   O10   S    
C41   C43   A    
C40   O11   S    
C37   O9    S    
C42   C44   A    
C41   H12   S    
C41   C49   A    
C45   C47   A    
C10   C21   A    
C33   H3    S    
C46   C48   A    
C13   C19   A    
C35   H5    S    
C14   C20   A    
C4    C6    A    
C29   C53   S    
C15   C26   A    
C6    C8    A    
C1    C32   S    
O2    Zn2   S    
C2    C31   S    
C12   C46   A    
C3    C9    A    
C47   H7    S    
C24   O7    A    
C52   O14   D    
C39   N1    A    
C28   C52   S    
C23   O5    A    
C42   H11   S    
O1    Zn1   S    
C42   C50   A    
C4    C17   A    
C24   O6    A    
C20   C22   A    
C35   N4    A    
C34   H4    S    
C54   O16   D    
C11   C45   A    
C4    C10   A    
O4    Zn2   S    
O7    Zn1   S    
C5    C7    A    
C16   C25   A    
C15   C17   A    
C12   C24   S    
C27   C32   A    
C1    O4    A    
C28   C31   A    
C3    C5    A    
N4    Zn2   S    
C53   O15   D    
C48   H8    S    
C30   C54   S    
C19   H15   S    
C7    C25   A    
C13   C17   A    
C1    O1    A    
C28   C30   A    
C50   N2    S    
C26   H18   S    
C29   C31   A    
C8    H10   S    
C30   C32   A    
C11   C23   S    
C52   H20   S    
C27   C51   S    
C21   H13   S    
C22   H14   S    
C16   C18   A    
C54   H22   S    
C13   C16   A    
C14   C15   A    
C12   C44   A    
C51   H19   S    
C34   N3    A    
C2    O3    A    
