data_mof_unit_47391.cif
_audit_creation_date              2012-12-10T16:50:02-0500
_audit_creation_method            fapswitch 2.2
_symmetry_space_group_name_H-M    P1
_symmetry_Int_Tables_number       1
_space_group_crystal_system       triclinic
_cell_length_a                    7.768672
_cell_length_b                    8.576956
_cell_length_c                    10.674693
_cell_angle_alpha                 91.377577
_cell_angle_beta                  86.446452
_cell_angle_gamma                 93.4819
_cell_volume                      708.446625993

loop_
_atom_site_label
_atom_site_type_symbol
_atom_type_description
_atom_site_fract_x
_atom_site_fract_y
_atom_site_fract_z
_atom_type_partial_charge
C1    C     C_R   0.545588 0.794648 0.496526 0.961307
C2    C     C_R   0.454357 0.205318 0.502873 0.929796
C3    C     C_R   0.492947 0.482822 0.259835 0.877956
C4    C     C_R   0.149733 0.449858 0.885411 0.521598
C5    C     C_R   0.026925 0.538863 0.949213 -0.482762
C6    C     C_R   0.033483 0.559467 0.079212 0.415550
C7    C     C_R   0.155774 0.476934 0.136038 0.511293
C8    C     C_R   0.315987 0.453324 0.069397 -0.191122
C9    C     C_3   0.121775 0.207583 0.791039 -0.290295
C10   C     C_3   0.854299 0.764386 0.105306 -0.318226
C11   C     C_3   0.086645 0.227069 0.199347 -0.370628
C12   C     C_R   0.314502 0.441089 0.938578 -0.086962
C13   C     C_R   0.475934 0.429682 0.868366 -0.079111
C14   C     C_R   0.619160 0.384240 0.927049 -0.261788
C15   C     C_R   0.617449 0.387723 0.056649 -0.154743
C16   C     C_R   0.473761 0.439859 0.127729 -0.070977
C17   C     C_2   0.569640 0.958002 0.494072 -0.390656
C18   C     C_2   0.430220 0.041997 0.504719 -0.390081
C19   C     C_R   0.495633 0.477085 0.738224 0.863699
H1    H     H_    0.999108 0.352083 0.442431 0.232428
H2    H     H_    0.783798 0.829467 0.181376 0.186437
H3    H     H_    0.217131 0.181086 0.183480 0.173798
H4    H     H_    0.011672 0.207421 0.114198 0.140423
H5    H     H_    0.017344 0.158607 0.275742 0.177645
H6    H     H_    0.732657 0.358957 0.100835 0.194532
H7    H     H_    0.701449 0.008632 0.483598 0.174054
H8    H     H_    0.298395 0.991418 0.515135 0.173782
H9    H     H_    0.735291 0.354796 0.872666 0.190078
H10   H     H_    0.993128 0.637547 0.574894 0.179860
H11   H     H_    0.056188 0.162367 0.879716 0.125819
H12   H     H_    0.260666 0.182408 0.785407 0.158126
H13   H     H_    0.061392 0.143264 0.712046 0.179329
H14   H     H_    0.917042 0.572574 0.901295 0.196424
H15   H     H_    0.764393 0.741398 0.029151 0.166479
H16   H     H_    0.968442 0.840789 0.072163 0.139239
N1    N     N_2   0.950330 0.457950 0.466250 -0.106546
N2    N     N_2   0.049670 0.542050 0.533750 -0.127587
O1    O     O_R   0.389250 0.738570 0.508280 -0.621044
O2    O     O_3   0.902051 0.622804 0.154134 -0.550038
O3    O     O_3   0.098245 0.386485 0.236851 -0.578695
O4    O     O_R   0.678390 0.711630 0.486650 -0.625480
O5    O     O_R   0.355400 0.513470 0.694050 -0.572151
O6    O     O_R   0.644540 0.486530 0.672420 -0.631805
O7    O     O_R   0.321610 0.288370 0.513350 -0.617020
O8    O     O_R   0.610750 0.261430 0.491720 -0.633050
O9    O     O_R   0.355460 0.513470 0.327580 -0.579918
O10   O     O_R   0.644600 0.486530 0.305950 -0.556473
O11   O     O_3   0.100200 0.368445 0.778224 -0.570371
Zn1   Zn    Zn3+2 0.306930 0.517990 0.514440 1.001201
Zn2   Zn    Zn3+2 0.693070 0.482010 0.485560 0.986676

loop_
_geom_bond_atom_site_label_1
_geom_bond_atom_site_label_2
_ccdc_geom_bond_type
O7    Zn1   S    
C7    O3    S    
O6    Zn2   S    
C6    C7    A    
C2    C18   S    
N2    Zn1   S    
O4    Zn2   S    
C3    O9    A    
C1    C17   S    
C18   H8    S    
C19   O5    A    
C8    C12   A    
C17   C18   D    
C7    C8    A    
C10   H15   S    
O1    Zn1   S    
C13   C14   A    
O8    Zn2   S    
O9    Zn1   S    
C10   H16   S    
C1    O1    A    
C5    C6    A    
C17   H7    S    
C9    H11   S    
C3    O10   A    
N1    N2    D    
C19   O6    A    
O10   Zn2   S    
C10   H2    S    
C11   O3    S    
C15   H6    S    
C4    C12   A    
C2    O8    A    
C9    H12   S    
O5    Zn1   S    
H10   N2    S    
C15   C16   A    
H1    N1    S    
C11   H5    S    
N1    Zn2   S    
C12   C13   A    
C9    O11   S    
C8    C16   A    
C4    O11   S    
C11   H4    S    
C13   C19   S    
C6    O2    S    
C10   O2    S    
C11   H3    S    
C9    H13   S    
C14   H9    S    
C14   C15   A    
C3    C16   S    
C1    O4    A    
C2    O7    A    
C4    C5    A    
C5    H14   S    
