data_mof_unit_50880.cif
_audit_creation_date              2012-12-11T15:17:20-0500
_audit_creation_method            fapswitch 2.2
_symmetry_space_group_name_H-M    P1
_symmetry_Int_Tables_number       1
_space_group_crystal_system       triclinic
_cell_length_a                    8.415094
_cell_length_b                    16.528832
_cell_length_c                    19.203105
_cell_angle_alpha                 95.501977
_cell_angle_beta                  94.252922
_cell_angle_gamma                 93.297077
_cell_volume                      2645.74099381

loop_
_atom_site_label
_atom_site_type_symbol
_atom_type_description
_atom_site_fract_x
_atom_site_fract_y
_atom_site_fract_z
_atom_type_partial_charge
Ba1   Ba    Ba6+2 0.153080 0.539460 0.466290 1.251967
Ba2   Ba    Ba6+2 0.657090 0.460530 0.533660 1.642481
C1    C     C_3   0.376427 0.847038 0.226972 -0.295080
C2    C     C_R   0.839617 0.764809 0.512649 0.010634
C3    C     C_R   0.877401 0.849624 0.531719 -0.073651
C4    C     C_3   0.892791 0.766262 0.309890 1.054944
C5    C     C_R   0.781029 0.908606 0.502102 0.251409
C6    C     C_R   0.632054 0.881768 0.464851 -0.170619
C7    C     C_R   0.592285 0.796798 0.447807 -0.014416
C8    C     C_R   0.918683 0.157421 0.487513 -0.180849
C9    C     C_R   0.977234 0.239609 0.487664 -0.000624
C10   C     C_R   0.017989 0.098793 0.514572 0.327608
C11   C     C_R   0.136161 0.261161 0.512248 -0.259318
C12   C     C_3   0.425463 0.787565 0.282246 0.246666
C13   C     C_R   0.231502 0.205992 0.543351 -0.158246
C14   C     C_R   0.173399 0.124815 0.543489 -0.076307
C15   C     C_R   0.606029 0.534373 0.295327 -0.194048
C16   C     C_3   0.891673 0.854046 0.282975 0.470539
C17   C     C_R   0.466868 0.485397 0.273223 -0.028927
C18   C     C_R   0.422131 0.470681 0.200697 0.005256
C19   C     C_R   0.522419 0.499493 0.150732 0.074758
C20   C     C_R   0.676570 0.536786 0.175078 0.255505
C21   C     C_R   0.714607 0.556954 0.247525 -0.000682
C22   C     C_R   0.447856 0.563301 0.037741 0.079503
C23   C     C_3   0.466822 0.721692 0.676650 0.561189
C24   C     C_R   0.393289 0.556492 0.965326 -0.214758
C25   C     C_R   0.342839 0.479163 0.929757 0.092617
C26   C     C_R   0.346962 0.410602 0.967312 -0.110112
C27   C     C_R   0.414825 0.415418 0.036773 -0.034519
C28   C     C_3   0.820199 0.361148 0.311078 0.837005
C29   C     C_R   0.463500 0.492328 0.073884 -0.149783
C30   C     C_R   0.143140 0.432051 0.826993 -0.003572
C31   C     C_R   0.097892 0.423411 0.754574 0.090428
C32   C     C_R   0.352730 0.488338 0.731975 -0.028754
C33   C     C_R   0.400031 0.495349 0.804111 0.025013
C34   C     C_3   0.494298 0.802504 0.726831 -0.279232
C35   C     C_R   0.295727 0.467317 0.852475 0.045776
C36   C     C_R   0.206350 0.447994 0.708102 -0.256298
C37   C     C_3   0.899390 0.343250 0.242759 0.185451
C38   C     C_3   0.950018 0.641840 0.685926 0.543945
C39   C     C_3   0.030065 0.657620 0.761049 0.105729
C40   C     C_3   0.423016 0.282549 0.330124 0.192582
C41   C     C_3   0.452889 0.254509 0.253796 -0.287809
C42   C     C_2   0.456711 0.705331 0.248164 0.546635
C43   C     C_2   0.998866 0.740190 0.795791 0.603361
C44   C     C_2   0.382315 0.209539 0.368176 0.450800
C45   C     C_3   0.954747 0.238344 0.729454 0.639434
C46   C     C_2   0.232303 0.818517 0.177324 0.488429
C47   C     C_2   0.310194 0.207871 0.214229 0.613741
C48   C     C_2   0.508207 0.867998 0.182346 0.499299
C49   C     C_2   0.598551 0.716686 0.628373 0.540129
C50   C     C_2   0.636711 0.801858 0.779362 0.593751
C51   C     C_2   0.346263 0.823351 0.762944 0.600145
C52   C     C_2   0.375636 0.163903 0.802780 0.663888
C53   C     C_2   0.520785 0.945067 0.446623 0.593320
C54   C     C_2   0.010002 0.875708 0.585568 0.498204
C55   C     C_2   0.211647 0.338881 0.498397 0.606670
C56   C     C_3   0.890099 0.148950 0.724007 0.631875
C57   C     C_2   0.391322 0.631108 0.927711 0.697490
C58   C     C_2   0.482292 0.645557 0.075866 0.443383
C59   C     C_2   0.442452 0.337601 0.066455 0.508866
C60   C     C_2   0.871870 0.853025 0.203682 0.449758
C61   C     C_3   0.439069 0.267315 0.720022 0.293995
C62   C     C_3   0.483387 0.236564 0.791169 0.200016
C63   C     C_R   0.703032 0.740832 0.467046 -0.129014
H1    H     H_    0.883031 0.394365 0.209673 0.044089
H2    H     H_    0.349170 0.904940 0.256699 0.170314
H3    H     H_    0.019469 0.246947 0.681814 -0.057376
H4    H     H_    0.833111 0.138395 0.773206 0.016749
H5    H     H_    0.310174 0.278936 0.715133 0.002881
H6    H     H_    0.511126 0.325331 0.717468 0.102741
H7    H     H_    0.607341 0.216791 0.791468 0.042921
H8    H     H_    0.799768 0.138793 0.463989 0.160341
H9    H     H_    0.249600 0.081523 0.565541 0.115797
H10   H     H_    0.673575 0.676515 0.452603 0.100053
H11   H     H_    0.513413 0.527187 0.822970 0.062054
H12   H     H_    0.029059 0.337728 0.254597 0.084537
H13   H     H_    0.768455 0.746209 0.318941 -0.665206
H14   H     H_    0.309282 0.437482 0.183261 0.039093
H15   H     H_    0.306337 0.351526 0.940587 0.142824
H16   H     H_    0.058624 0.413820 0.863321 0.084092
H17   H     H_    0.168641 0.443669 0.653408 0.139919
H18   H     H_    0.633455 0.552182 0.350762 0.029764
H19   H     H_    0.693348 0.366796 0.295311 -0.223581
H20   H     H_    0.568050 0.697156 0.224615 -0.099562
H21   H     H_    0.885888 0.263129 0.162332 0.320712
H22   H     H_    0.099092 0.573200 0.641549 0.295428
H23   H     H_    0.821048 0.642505 0.689743 0.060398
H24   H     H_    0.863552 0.598949 0.805419 0.330066
H25   H     H_    0.986557 0.791337 0.764874 -0.050842
H26   H     H_    0.260077 0.195510 0.379785 0.017218
H27   H     H_    0.179495 0.861517 0.144598 0.067184
H28   H     H_    0.199889 0.237447 0.205290 -0.042242
H29   H     H_    0.552093 0.821063 0.146908 0.074660
H30   H     H_    0.705301 0.757191 0.638880 -0.772177
H31   H     H_    0.330047 0.771561 0.610603 0.277177
H32   H     H_    0.734058 0.847998 0.780340 0.014164
H33   H     H_    0.241497 0.838219 0.731522 0.009755
H34   H     H_    0.160924 0.656002 0.757880 0.147092
H35   H     H_    0.776264 0.952265 0.301534 0.362421
H36   H     H_    0.998898 0.254112 0.830964 0.300767
H37   H     H_    0.827483 0.138895 0.624072 0.314269
H38   H     H_    0.981297 0.045143 0.732377 0.353333
H39   H     H_    0.544006 0.286829 0.885564 0.315175
H40   H     H_    0.961550 0.818631 0.403070 0.311300
H41   H     H_    0.363553 0.111013 0.764186 -0.001899
H42   H     H_    0.535804 0.005676 0.474451 0.036112
H43   H     H_    0.118112 0.843797 0.587210 0.046247
H44   H     H_    0.296484 0.340340 0.459407 0.003669
H45   H     H_    0.530470 0.313821 0.358665 0.058445
H46   H     H_    0.484661 0.679478 0.940419 0.066372
H47   H     H_    0.590631 0.660130 0.109436 0.075973
H48   H     H_    0.363753 0.283946 0.049201 0.023887
H49   H     H_    0.760087 0.526510 0.082842 0.308512
H50   H     H_    0.120803 0.869247 0.294459 0.318580
H51   H     H_    0.887428 0.910100 0.180607 0.078569
H52   H     H_    0.801789 0.458895 0.372136 0.282213
H53   H     H_    0.557701 0.216527 0.253248 0.189790
H54   H     H_    0.480837 0.308556 0.226213 0.082104
H55   H     H_    0.536938 0.813768 0.310565 0.063352
H56   H     H_    0.519435 0.853510 0.694500 -0.026859
N1    N     N_2   0.826039 0.994989 0.509693 -0.208727
N2    N     N_2   0.972440 0.013140 0.509357 -0.169908
O1    O     O_2   0.121950 0.695970 0.534170 -0.382911
O2    O     O_2   0.768537 0.443248 0.749678 -0.460595
O3    O     O_3   0.826947 0.289720 0.733895 -0.637818
O4    O     O_3   0.871970 0.595810 0.535570 -0.378058
O5    O     O_3   0.435500 0.459820 0.416880 -0.457665
O6    O     O_2   0.630010 0.537400 0.669530 -0.414256
O7    O     O_3   0.459978 0.655607 0.717898 -0.615711
O8    O     O_2   0.562342 0.209959 0.540658 -0.419793
O9    O     O_3   0.475046 0.208786 0.666654 -0.592815
O10   O     O_3   0.356610 0.647930 0.408330 -0.399247
O11   O     O_2   0.268971 0.788288 0.462728 -0.432431
O12   O     O_3   0.295158 0.333166 0.331297 -0.677083
O13   O     O_3   0.997698 0.704958 0.646223 -0.653171
O14   O     O_3   0.307275 0.781119 0.330250 -0.518963
O15   O     O_2   0.180290 0.462550 0.330450 -0.395451
O16   O     O_3   0.940700 0.607800 0.373310 -0.421310
O17   O     O_2   0.047155 0.560333 0.251939 -0.352741
O18   O     O_2   0.357719 0.648174 0.246384 -0.506876
O19   O     O_3   0.831164 0.270624 0.206310 -0.677256
O20   O     O_3   0.989522 0.565499 0.656564 -0.677979
O21   O     O_3   0.980308 0.596028 0.801805 -0.653328
O22   O     O_2   0.993091 0.751233 0.859324 -0.417862
O23   O     O_3   0.952892 0.708474 0.260929 -0.513380
O24   O     O_2   0.485046 0.163811 0.383949 -0.545399
O25   O     O_2   0.174908 0.748559 0.171854 -0.402738
O26   O     O_2   0.317868 0.136815 0.191410 -0.506813
O27   O     O_2   0.561279 0.938434 0.182971 -0.526964
O28   O     O_2   0.584910 0.667236 0.576739 -0.558128
O29   O     O_3   0.322087 0.722761 0.636925 -0.702742
O30   O     O_2   0.641871 0.751641 0.822055 -0.518455
O31   O     O_2   0.342409 0.825636 0.826590 -0.493515
O32   O     O_3   0.765402 0.894302 0.311280 -0.742957
O33   O     O_3   0.062248 0.254395 0.789349 -0.761897
O34   O     O_2   0.688350 0.303980 0.465810 -0.449950
O35   O     O_3   0.773962 0.131374 0.667457 -0.682535
O36   O     O_3   0.016474 0.097874 0.715910 -0.703249
O37   O     O_3   0.475453 0.300120 0.844382 -0.744459
O38   O     O_3   0.987256 0.769542 0.373538 -0.688263
O39   O     O_2   0.303226 0.162927 0.855532 -0.535913
O40   O     O_2   0.413580 0.931992 0.399967 -0.537601
O41   O     O_2   0.997483 0.932204 0.630149 -0.565471
O42   O     O_2   0.193674 0.400038 0.536535 -0.548468
O43   O     O_2   0.282987 0.640573 0.884141 -0.517624
O44   O     O_2   0.388883 0.698564 0.069067 -0.550236
O45   O     O_3   0.938330 0.404180 0.464370 -0.406640
O46   O     O_2   0.558911 0.331218 0.106854 -0.600523
O47   O     O_3   0.791420 0.554787 0.130053 -0.681184
O48   O     O_3   0.031964 0.901321 0.307634 -0.708909
O49   O     O_2   0.838014 0.790523 0.164864 -0.549397
O50   O     O_3   0.885113 0.435732 0.343900 -0.728078
O51   O     O_3   0.453690 0.352060 0.591610 -0.478516
O52   O     O_3   0.839212 0.294690 0.352306 -0.627085
O53   O     O_3   0.374800 0.540170 0.583060 -0.362902
O54   O     O_3   0.869600 0.392190 0.626640 -0.412275
P1    P     P_3+3 0.950430 0.683250 0.555020 1.117406
P2    P     P_3+3 0.353690 0.438260 0.341200 1.024516
P3    P     P_3+3 0.911209 0.608320 0.282409 1.198915
P4    P     P_3+3 0.859870 0.316740 0.444930 1.049646
P5    P     P_3+3 0.892616 0.388133 0.717771 1.047611
P6    P     P_3+3 0.387725 0.754093 0.411620 1.161364
P7    P     P_3+3 0.448824 0.555985 0.673577 1.085056
P8    P     P_3+3 0.431069 0.244225 0.584965 1.018760

loop_
_geom_bond_atom_site_label_1
_geom_bond_atom_site_label_2
_ccdc_geom_bond_type
Ba1   O53   S    
C17   P2    S    
C9    C11   A    
C50   H32   S    
C3    C54   S    
C17   C18   A    
C9    P4    S    
Ba1   O5    S    
O11   P6    D    
H37   O35   S    
Ba2   O5    S    
C5    C6    A    
C16   O48   S    
C30   H16   S    
C38   O13   S    
C24   C25   A    
C15   C21   A    
C52   C62   S    
C23   O29   S    
C43   O22   D    
C37   H12   S    
C26   C27   A    
C33   C35   A    
C22   C24   A    
C32   C33   A    
C56   O36   S    
O51   P8    S    
C2    C63   A    
C4    O23   S    
C8    H8    S    
C4    H13   S    
C55   O42   D    
C45   O33   S    
C23   O7    S    
C13   C14   A    
H31   O29   S    
O13   P1    S    
C1    C46   S    
Ba2   O6    S    
H49   O47   S    
Ba1   Ba2   S    
C40   C44   S    
C54   H43   S    
C34   C51   S    
Ba2   O53   S    
O10   P6    S    
C55   H44   S    
O17   P3    D    
C10   C14   A    
C6    C7    A    
C57   H46   S    
C39   H34   S    
C32   P7    S    
O16   P3    S    
Ba2   O54   S    
C24   C57   S    
C28   O50   S    
O1    P1    D    
C34   C50   S    
O52   P4    S    
Ba2   O4    S    
C49   O28   D    
C51   O31   D    
C19   C20   A    
C36   H17   S    
C62   O37   S    
O34   P4    D    
H39   O37   S    
Ba1   O10   S    
O15   P2    D    
C6    C53   S    
C1    C48   S    
C4    C16   S    
C27   C59   S    
C33   H11   S    
C58   O44   D    
C52   H41   S    
C39   O21   S    
H50   O48   S    
C56   O35   S    
C12   O14   S    
C3    C5    A    
C48   H29   S    
C44   H26   S    
C41   H53   S    
H36   O33   S    
C50   O30   D    
C61   O9    S    
C53   H42   S    
C40   O12   S    
C15   H18   S    
Ba2   P4    S    
C23   C49   S    
C60   H51   S    
C7    P6    S    
C13   P8    S    
Ba1   P1    S    
C48   O27   D    
C44   O24   D    
C61   H5    S    
C22   C58   S    
C19   C29   S    
O23   P3    S    
O5    P2    S    
C30   C35   A    
C52   O39   D    
C43   H25   S    
C57   O43   D    
C21   P3    S    
C20   O47   S    
C1    C12   S    
C8    C10   A    
O8    P8    D    
H35   O32   S    
C38   C39   S    
O6    P7    D    
C61   H6    S    
C12   H55   S    
C11   C13   A    
C59   H48   S    
C37   H1    S    
C14   H9    S    
O3    P5    S    
C59   O46   D    
C40   C41   S    
C5    N1    S    
C42   H20   S    
Ba2   O45   S    
C28   O52   S    
C25   C26   A    
H21   O19   S    
C45   O3    S    
C12   C42   S    
C42   O18   D    
H52   O50   S    
O53   P7    S    
C58   H47   S    
C18   H14   S    
O2    P5    D    
C32   C36   A    
O4    P1    S    
C41   C47   S    
Ba1   O4    S    
C2    P1    S    
C2    C3    A    
Ba1   O16   S    
O9    P8    S    
C56   H4    S    
O14   P6    S    
C51   H33   S    
H24   O21   S    
C60   O49   D    
C54   O41   D    
C31   C36   A    
C63   H10   S    
C47   O26   D    
H22   O20   S    
C30   C31   A    
C38   H23   S    
C34   H56   S    
C40   H45   S    
C22   C29   A    
O12   P2    S    
C27   C29   A    
O7    P7    S    
Ba2   O51   S    
C45   C56   S    
Ba1   P2    S    
H38   O36   S    
C45   H3    S    
C10   N2    S    
C1    H2    S    
C25   C35   S    
Ba2   O34   S    
C46   O25   D    
C15   C17   A    
C28   C37   S    
C37   O19   S    
H40   O38   S    
C62   H7    S    
C28   H19   S    
C26   H15   S    
C7    C63   A    
Ba1   O1    S    
C4    O38   S    
C8    C9    A    
Ba1   O15   S    
C23   C34   S    
C53   O40   D    
C61   C62   S    
C11   C55   S    
C18   C19   A    
O45   P4    S    
C46   H27   S    
C38   O20   S    
C41   H54   S    
C31   P5    S    
C39   C43   S    
C20   C21   A    
C16   C60   S    
C47   H28   S    
N1    N2    D    
C16   O32   S    
O54   P5    S    
C49   H30   S    
Ba1   O45   S    
