data_mof_unit_15601.cif
_audit_creation_date              2012-12-10T17:34:59-0500
_audit_creation_method            fapswitch 2.2
_symmetry_space_group_name_H-M    P1
_symmetry_Int_Tables_number       1
_space_group_crystal_system       triclinic
_cell_length_a                    12.173724
_cell_length_b                    12.698228
_cell_length_c                    15.76282
_cell_angle_alpha                 92.408121
_cell_angle_beta                  86.02877
_cell_angle_gamma                 90.433733
_cell_volume                      2428.66729123

loop_
_atom_site_label
_atom_site_type_symbol
_atom_type_description
_atom_site_fract_x
_atom_site_fract_y
_atom_site_fract_z
_atom_type_partial_charge
C1    C     C_R   0.519566 0.697800 0.484631 0.960503
C2    C     C_3   0.449795 0.609034 0.055465 0.208641
C3    C     C_3   0.508626 0.507598 0.083858 -0.180538
C4    C     C_3   0.448446 0.406366 0.052815 -0.441118
C5    C     C_3   0.446667 0.397811 0.954502 0.514692
C6    C     C_1   0.506124 0.507000 0.175310 0.177839
C7    C     C_1   0.501628 0.500038 0.825647 0.140415
C8    C     C_1   0.499707 0.500773 0.750415 0.028468
C9    C     C_R   0.469857 0.187196 0.508284 -0.218710
C10   C     C_R   0.526316 0.806665 0.458100 -0.340850
C11   C     C_R   0.596333 0.959141 0.382035 0.200625
C12   C     C_R   0.499805 0.500649 0.661513 0.914723
C13   C     C_R   0.607298 0.849919 0.398306 0.352410
C14   C     C_R   0.435648 0.868475 0.484537 0.423184
C15   C     C_R   0.463173 0.971368 0.503996 -0.163949
C16   C     C_R   0.528926 0.021570 0.441333 -0.049205
C17   C     C_R   0.525046 0.130063 0.441140 -0.122101
C18   C     C_R   0.414467 0.136929 0.578105 0.304769
C19   C     C_R   0.417785 0.025727 0.577495 0.302139
C20   C     C_R   0.956717 0.372348 0.463946 0.285168
C21   C     C_R   0.845794 0.391505 0.448574 0.345700
C22   C     C_R   0.854845 0.553107 0.529417 0.345647
C23   C     C_R   0.480130 0.299824 0.505318 0.945398
C24   C     C_R   0.974133 0.549596 0.521739 -0.211648
C25   C     C_R   0.024567 0.457799 0.484247 -0.247902
C26   C     C_R   0.141772 0.451743 0.471437 0.324147
C27   C     C_R   0.158314 0.601227 0.563157 0.253529
C28   C     C_R   0.046170 0.627672 0.555611 0.309005
C29   C     C_R   0.500349 0.500234 0.338747 0.891909
C30   C     C_3   0.443906 0.602559 0.956369 -0.051331
C31   C     C_3   0.628176 0.511421 0.943967 0.079862
C32   C     C_3   0.630805 0.509540 0.043820 0.178174
C33   C     C_1   0.502305 0.503764 0.250404 0.046261
C34   C     C_3   0.504309 0.500119 0.917136 -0.212439
H1    H     H_    0.505786 0.676454 0.069425 0.103952
H2    H     H_    0.487591 0.335806 0.076471 0.232994
H3    H     H_    0.565314 0.171799 0.389496 0.222863
H4    H     H_    0.493067 0.671064 0.932807 0.114742
H5    H     H_    0.651425 0.594028 0.929482 0.076437
H6    H     H_    0.666623 0.586622 0.064673 0.111830
H7    H     H_    0.363840 0.405224 0.083788 0.260712
N1    N     N_R   0.207800 0.519340 0.515510 -0.169815
N2    N     N_R   0.792190 0.480660 0.484490 -0.188120
O1    O     O_R   0.421690 0.658830 0.504140 -0.570410
O2    O     O_R   0.609320 0.646410 0.494190 -0.569501
O3    O     O_R   0.406150 0.506210 0.627840 -0.583063
O4    O     O_R   0.593770 0.493790 0.617880 -0.603481
O5    O     O_R   0.390680 0.353590 0.505810 -0.565992
O6    O     O_R   0.578310 0.341170 0.495860 -0.572646
O7    O     O_R   0.406230 0.506210 0.382120 -0.619112
O8    O     O_R   0.593850 0.493790 0.372160 -0.536171
Zn1   Zn    Zn3+2 0.374720 0.508290 0.506640 1.096493
Zn2   Zn    Zn3+2 0.625280 0.491710 0.493360 1.121415
I1    I     I_    0.294244 0.649900 0.900510 0.064836
S1    S     S_3+6 0.324651 0.648460 0.118641 0.099340
O9    O     O_2   0.352588 0.675835 0.208311 -0.267165
O10   O     O_2   0.277584 0.745566 0.084019 -0.195708
O11   O     O_3   0.228940 0.552643 0.121390 -0.487675
H8    H     H_    0.168400 0.580404 0.161121 0.395854
S2    S     S_3+6 0.350332 0.213088 0.666273 0.120477
O12   O     O_2   0.440489 0.260896 0.715736 -0.301513
O13   O     O_2   0.281350 0.300040 0.636847 -0.227591
O14   O     O_3   0.266628 0.142104 0.731345 -0.404066
H9    H     H_    0.229289 0.194324 0.771677 0.412351
I2    I     I_    0.665526 0.028193 0.268318 0.023177
S3    S     S_3+6 0.392520 0.954031 0.671585 0.121922
O15   O     O_2   0.270803 0.936499 0.687270 -0.154860
O16   O     O_2   0.449406 0.849107 0.662827 -0.333730
O17   O     O_3   0.440609 0.020525 0.755949 -0.418203
H10   H     H_    0.519503 0.033266 0.739693 0.364027
S4    S     S_3+6 0.707322 0.769727 0.337576 0.093562
O18   O     O_2   0.763922 0.696451 0.392395 -0.250642
O19   O     O_2   0.649239 0.705963 0.271703 -0.314579
O20   O     O_3   0.807394 0.841270 0.288350 -0.467358
H11   H     H_    0.851847 0.789642 0.252021 0.400013
S5    S     S_3+6 0.324807 0.857382 0.416660 0.112923
O21   O     O_2   0.246450 0.947570 0.435837 -0.215667
O22   O     O_2   0.370419 0.862791 0.325838 -0.240467
O23   O     O_3   0.257075 0.742477 0.427211 -0.502930
H12   H     H_    0.201124 0.742340 0.384477 0.399971
I3    I     I_    0.212595 0.350206 0.370985 -0.095532
I4    I     I_    0.243554 0.682768 0.658330 0.061372
S6    S     S_3+6 0.993763 0.243776 0.494717 0.135114
O24   O     O_2   0.011233 0.170027 0.417962 -0.163047
O25   O     O_2   0.096802 0.247915 0.541987 -0.235364
O26   O     O_3   0.891898 0.196545 0.560281 -0.479000
H13   H     H_    0.913515 0.123176 0.569917 0.403721
S7    S     S_3+6 0.008615 0.763085 0.573791 0.094617
O27   O     O_2   0.917643 0.791270 0.519165 -0.228495
O28   O     O_2   0.973321 0.783696 0.666265 -0.252199
O29   O     O_3   0.116048 0.842405 0.550360 -0.449484
H14   H     H_    0.090412 0.914101 0.568997 0.416365
S8    S     S_3+6 0.786014 0.293601 0.381604 0.117545
O30   O     O_2   0.756669 0.199226 0.432789 -0.226787
O31   O     O_2   0.686801 0.327083 0.339372 -0.285964
O32   O     O_3   0.881120 0.256401 0.303848 -0.453361
H15   H     H_    0.899140 0.321316 0.272926 0.370362
I5    I     I_    0.773966 0.642261 0.633543 -0.051686
S9    S     S_3+6 0.740622 0.446304 0.878797 0.133121
O33   O     O_2   0.764778 0.337420 0.905714 -0.122562
O34   O     O_2   0.718868 0.438814 0.786143 -0.293685
O35   O     O_3   0.854941 0.519938 0.888367 -0.439432
H16   H     H_    0.843478 0.583275 0.855501 0.365411
S10   S     S_3+6 0.723472 0.416712 0.087542 0.108803
O36   O     O_2   0.839003 0.432769 0.050221 -0.153571
O37   O     O_2   0.724991 0.437399 0.181958 -0.276138
O38   O     O_3   0.685338 0.290835 0.069158 -0.510995
H17   H     H_    0.735203 0.248662 0.101238 0.409120
S11   S     S_3+6 0.305861 0.372487 0.925516 0.091199
O39   O     O_2   0.224127 0.440175 0.977756 -0.199553
O40   O     O_2   0.294671 0.390343 0.832934 -0.254973
O41   O     O_3   0.272557 0.246225 0.944108 -0.495900
H18   H     H_    0.193766 0.239555 0.932659 0.401962
I6    I     I_    0.529078 0.253967 0.907657 0.076177

loop_
_geom_bond_atom_site_label_1
_geom_bond_atom_site_label_2
_ccdc_geom_bond_type
C2    H1    S    
S3    O16   D    
S1    O9    D    
C4    H2    S    
S8    O30   D    
C22   I5    S    
C29   C33   S    
C5    I6    S    
S5    O23   S    
C3    C6    S    
S10   O37   D    
C7    C8    T    
C15   C19   A    
C30   I1    S    
C5    S11   S    
S2    O14   S    
S5    O22   D    
C2    S1    S    
S11   O40   D    
C23   O6    A    
S3    O17   S    
C20   C25   A    
C15   C16   A    
O3    Zn1   S    
C30   H4    S    
C19   S3    S    
S2    O13   D    
C18   C19   A    
S10   O36   D    
C21   N2    A    
N2    Zn2   S    
S9    O33   D    
C16   C17   A    
C28   S7    S    
O7    Zn1   S    
O38   H17   S    
C32   S10   S    
C31   S9    S    
O4    Zn2   S    
O1    Zn1   S    
S3    O15   D    
O2    Zn2   S    
S8    O31   D    
O32   H15   S    
O17   H10   S    
C12   O4    A    
O41   H18   S    
C29   O7    A    
O20   H11   S    
C30   C34   S    
S5    O21   D    
C12   O3    A    
C10   C14   A    
S11   O41   S    
O29   H14   S    
S4    O19   D    
O26   H13   S    
C9    C23   S    
C13   S4    S    
O11   H8    S    
O14   H9    S    
S2    O12   D    
O8    Zn2   S    
C14   S5    S    
C22   N2    A    
C11   C16   A    
C1    O1    A    
C31   C32   S    
S7    O29   S    
C8    C12   S    
C5    C34   S    
S6    O26   S    
C31   C34   S    
C3    C32   S    
C17   H3    S    
C24   C25   A    
C9    C17   A    
S6    O25   D    
S7    O28   D    
C26   I3    S    
S1    O10   D    
C7    C34   S    
C22   C24   A    
S6    O24   D    
C3    C4    S    
C26   N1    A    
C29   O8    A    
C18   S2    S    
C23   O5    A    
S9    O34   D    
C20   C21   A    
C27   I4    S    
C1    C10   S    
C24   C28   A    
C4    C5    S    
C10   C13   A    
C20   S6    S    
S4    O20   S    
S8    O32   S    
C6    C33   T    
C2    C30   S    
C2    C3    S    
C25   C26   A    
S4    O18   D    
S11   O39   D    
C11   C13   A    
C27   N1    A    
C1    O2    A    
C21   S8    S    
O6    Zn2   S    
C31   H5    S    
C32   H6    S    
O35   H16   S    
O23   H12   S    
C9    C18   A    
O5    Zn1   S    
S9    O35   S    
S7    O27   D    
C4    H7    S    
S1    O11   S    
C27   C28   A    
C14   C15   A    
S10   O38   S    
C11   I2    S    
N1    Zn1   S    
