data_mof_unit_56361.cif
_audit_creation_date              2012-12-11T15:56:44-0500
_audit_creation_method            fapswitch 2.2
_symmetry_space_group_name_H-M    P1
_symmetry_Int_Tables_number       1
_space_group_crystal_system       triclinic
_cell_length_a                    17.55827
_cell_length_b                    24.61142
_cell_length_c                    14.948627
_cell_angle_alpha                 89.955137
_cell_angle_beta                  126.120477
_cell_angle_gamma                 89.944997
_cell_volume                      5218.09032381

loop_
_atom_site_label
_atom_site_type_symbol
_atom_type_description
_atom_site_fract_x
_atom_site_fract_y
_atom_site_fract_z
_atom_type_partial_charge
C1    C     C_R   0.322109 0.137637 0.909452 -0.148376
C2    C     C_R   0.560109 0.150122 0.907294 -0.250167
C3    C     C_R   0.814903 0.360297 0.998818 0.003705
C4    C     C_R   0.565948 0.999996 0.368465 0.032564
C5    C     C_R   0.064403 0.499912 0.367801 0.017491
C6    C     C_R   0.174642 0.000687 0.708688 0.032247
C7    C     C_R   0.691745 0.500564 0.636447 0.038824
C8    C     C_R   0.521337 0.045587 0.754172 -0.137758
C9    C     C_R   0.521392 0.954458 0.754112 -0.137821
C10   C     C_R   0.022275 0.545562 0.755374 -0.140104
C11   C     C_R   0.022277 0.454371 0.755421 -0.140311
C12   C     C_R   0.759785 0.953804 0.301645 -0.100311
C13   C     C_R   0.054722 0.347172 0.910019 -0.264531
C14   C     C_R   0.759838 0.045271 0.302990 -0.108788
C15   C     C_R   0.269012 0.453841 0.250277 -0.119715
C16   C     C_R   0.269311 0.545569 0.249792 -0.132901
C17   C     C_R   0.055157 0.652717 0.909814 -0.264185
C18   C     C_R   0.552432 0.000052 0.729217 0.009117
C19   C     C_R   0.053391 0.499941 0.730503 0.007835
C20   C     C_R   0.807763 0.999203 0.360787 -0.022028
C21   C     C_R   0.324009 0.499467 0.276145 -0.026829
C22   C     C_R   0.629505 0.178649 0.998429 -0.164300
C23   C     C_R   0.628995 0.821089 0.998549 -0.163157
C24   C     C_R   0.116764 0.683247 0.002865 -0.123414
C25   C     C_R   0.322595 0.862143 0.909434 -0.148928
C26   C     C_R   0.116050 0.316478 0.003114 -0.120970
C27   C     C_3   0.000096 0.969058 0.627598 -0.163669
C28   C     C_3   0.012366 0.051570 0.579901 -0.168172
C29   C     C_3   0.521744 0.467335 0.523144 -0.149345
C30   C     C_3   0.535671 0.551141 0.483694 -0.167436
C31   C     C_3   0.934721 0.019676 0.576329 -0.146366
C32   C     C_3   0.457717 0.517509 0.474547 -0.126724
C33   C     C_3   0.900054 0.998796 0.461925 0.200254
C34   C     C_3   0.424968 0.499163 0.358910 0.198365
C35   C     C_3   0.962722 0.948268 0.510912 -0.165546
C36   C     C_R   0.809021 0.622878 0.906534 -0.147675
C37   C     C_3   0.975792 0.030646 0.464120 -0.143069
C38   C     C_3   0.488573 0.448826 0.406964 -0.163974
C39   C     C_3   0.501866 0.532844 0.366696 -0.160048
C40   C     C_3   0.039022 0.980231 0.513426 -0.148895
C41   C     C_3   0.567978 0.482385 0.417155 -0.155216
C42   C     C_R   0.414174 0.866506 0.096011 -0.122090
C43   C     C_R   0.413728 0.133085 0.095973 -0.122130
C44   C     C_R   0.902913 0.375109 0.092462 -0.103007
C45   C     C_R   0.902738 0.624610 0.092462 -0.103840
C46   C     C_3   0.075028 0.001016 0.628371 0.186970
C47   C     C_R   0.809190 0.376991 0.906447 -0.148039
C48   C     C_3   0.599258 0.500843 0.531994 0.183329
C49   C     C_3   0.317651 0.785623 0.128884 -0.161813
C50   C     C_3   0.316669 0.213551 0.129063 -0.161245
C51   C     C_3   0.714757 0.326738 0.057988 -0.130523
C52   C     C_3   0.714718 0.672925 0.058504 -0.130779
C53   C     C_3   0.659984 0.275851 0.053007 -0.478963
C54   C     C_3   0.659796 0.723830 0.053462 -0.478865
C55   C     C_3   0.251437 0.744631 0.126498 -0.435478
C56   C     C_3   0.250350 0.254555 0.126699 -0.435699
C57   C     C_3   0.829828 0.264785 0.051894 -0.411759
C58   C     C_R   0.656084 0.149148 0.091347 0.686663
C59   C     C_3   0.829213 0.734838 0.051489 -0.411968
C60   C     C_3   0.273227 0.752678 0.941943 -0.412177
C61   C     C_3   0.272732 0.247000 0.942479 -0.411860
C62   C     C_3   0.175336 0.824977 0.950439 -0.517931
C63   C     C_3   0.174502 0.174772 0.950191 -0.515559
C64   C     C_3   0.680283 0.297900 0.875941 -0.519980
C65   C     C_3   0.679526 0.701793 0.876024 -0.520261
C66   C     C_3   0.276925 0.802593 0.007372 0.382151
C67   C     C_3   0.276153 0.196918 0.007491 0.380694
C68   C     C_3   0.760866 0.314059 0.997352 0.366457
C69   C     C_R   0.655776 0.850613 0.091395 0.686405
C70   C     C_3   0.760436 0.685596 0.997409 0.366549
C71   C     C_3   0.674138 0.228206 0.995913 0.392980
C72   C     C_3   0.673611 0.771483 0.996026 0.392701
C73   C     C_3   0.172049 0.728164 0.004842 0.345747
C74   C     C_3   0.171288 0.271458 0.005084 0.345237
C75   C     C_3   0.780875 0.216379 0.060510 -0.416579
C76   C     C_3   0.780264 0.783227 0.060276 -0.416268
C77   C     C_3   0.220072 0.706994 0.950893 -0.418512
C78   C     C_3   0.219686 0.292720 0.951632 -0.418887
C79   C     C_3   0.632359 0.245684 0.874205 -0.086209
C80   C     C_R   0.144931 0.651614 0.093112 0.648198
C81   C     C_3   0.631622 0.754077 0.874285 -0.086318
C82   C     C_3   0.110906 0.779733 0.943786 -0.080197
C83   C     C_3   0.110059 0.220111 0.943522 -0.080751
C84   C     C_3   0.619081 0.051635 0.644430 -0.466135
C85   C     C_3   0.622970 0.949836 0.647438 -0.467159
C86   C     C_3   0.120907 0.550752 0.645954 -0.470788
C87   C     C_3   0.120810 0.448943 0.646011 -0.470817
C88   C     C_R   0.549089 0.045261 0.304998 -0.150145
C89   C     C_R   0.548996 0.954715 0.305092 -0.149248
C90   C     C_R   0.048260 0.545238 0.304694 -0.135044
C91   C     C_R   0.144602 0.348208 0.093244 0.646135
C92   C     C_R   0.048193 0.454649 0.304683 -0.133838
C93   C     C_3   0.618543 0.053182 0.540521 -0.094154
C94   C     C_3   0.621848 0.947905 0.543065 -0.096958
C95   C     C_3   0.119251 0.552513 0.541269 -0.094228
C96   C     C_3   0.119209 0.447190 0.541367 -0.094726
C97   C     C_3   0.465053 0.998982 0.530563 -0.391211
C98   C     C_3   0.964816 0.500059 0.531479 -0.389527
C99   C     C_3   0.565993 0.000122 0.640857 0.377621
C100  C     C_3   0.066107 0.499925 0.641437 0.382854
C101  C     C_3   0.572437 0.000069 0.471057 0.339085
C102  C     C_R   0.559823 0.849806 0.907398 -0.249912
C103  C     C_3   0.071286 0.499903 0.470681 0.339016
C104  C     C_3   0.468664 0.999131 0.431469 -0.500580
C105  C     C_3   0.967710 0.500022 0.431803 -0.502669
C106  C     C_R   0.228845 0.954618 0.738098 -0.142364
C107  C     C_R   0.229362 0.046133 0.737355 -0.129217
C108  C     C_R   0.740508 0.454824 0.695417 -0.156818
C109  C     C_R   0.740460 0.545833 0.696333 -0.144318
C110  C     C_R   0.333301 0.155339 0.004613 0.013966
C111  C     C_R   0.334014 0.844173 0.004611 0.013975
C112  C     C_R   0.814595 0.639371 0.998872 0.004386
F1    F     F_    0.709907 0.166465 0.197792 -0.766020
F2    F     F_    0.709262 0.833043 0.197776 -0.767402
F3    F     F_    0.179512 0.669493 0.196389 -0.752045
F4    F     F_    0.178724 0.330265 0.196433 -0.751893
H1    H     H_    0.271909 0.152156 0.826149 0.084186
H2    H     H_    0.963875 0.055699 0.395060 0.118162
H3    H     H_    0.411028 0.531826 0.497061 0.119375
H4    H     H_    0.412759 0.724334 0.159547 0.121068
H5    H     H_    0.441860 0.759462 0.272212 0.104528
H6    H     H_    0.411813 0.274790 0.160283 0.121206
H7    H     H_    0.440731 0.239331 0.272691 0.103795
H8    H     H_    0.826258 0.311487 0.221354 0.126614
H9    H     H_    0.748483 0.357935 0.204632 0.105263
H10   H     H_    0.826433 0.688146 0.221632 0.126419
H11   H     H_    0.749029 0.641722 0.205534 0.105633
H12   H     H_    0.712197 0.198463 0.841398 0.120459
H13   H     H_    0.467861 0.406924 0.373607 0.105721
H14   H     H_    0.602775 0.213608 0.729445 0.093608
H15   H     H_    0.711220 0.801166 0.841012 0.120510
H16   H     H_    0.601725 0.786202 0.729272 0.093188
H17   H     H_    0.056894 0.762075 0.780836 0.114997
H18   H     H_    0.988497 0.802941 0.796176 0.099076
H19   H     H_    0.056574 0.238241 0.780829 0.114463
H20   H     H_    0.987833 0.197409 0.795518 0.099918
H21   H     H_    0.765240 0.046409 0.643402 0.106151
H22   H     H_    0.724333 0.105274 0.575972 0.094893
H23   H     H_    0.767931 0.958025 0.643612 0.111231
H24   H     H_    0.490926 0.559396 0.299960 0.105085
H25   H     H_    0.731011 0.897636 0.582242 0.096193
H26   H     H_    0.265655 0.543885 0.641888 0.110186
H27   H     H_    0.226434 0.603710 0.578094 0.100093
H28   H     H_    0.265606 0.455528 0.642035 0.110486
H29   H     H_    0.226416 0.395778 0.578409 0.100873
H30   H     H_    0.083812 0.964259 0.489425 0.113165
H31   H     H_    0.616197 0.468145 0.396947 0.107352
H32   H     H_    0.320075 0.822173 0.174557 0.118723
H33   H     H_    0.319030 0.176867 0.174495 0.118716
H34   H     H_    0.663473 0.360615 0.012991 0.124154
H35   H     H_    0.663578 0.639062 0.013860 0.124319
H36   H     H_    0.219969 0.762826 0.166055 0.194465
H37   H     H_    0.272579 0.847776 0.826059 0.085097
H38   H     H_    0.218596 0.236258 0.165838 0.193757
H39   H     H_    0.583587 0.285759 0.005395 0.142338
H40   H     H_    0.583451 0.713971 0.006044 0.142292
H41   H     H_    0.683429 0.263966 0.137451 0.217458
H42   H     H_    0.683337 0.735669 0.137910 0.217672
H43   H     H_    0.293371 0.708613 0.176739 0.190349
H44   H     H_    0.292307 0.290364 0.177356 0.189921
H45   H     H_    0.893527 0.274225 0.136313 0.159254
H46   H     H_    0.893150 0.725368 0.135819 0.159209
H47   H     H_    0.345207 0.738803 0.972788 0.158401
H48   H     H_    0.751463 0.627648 0.820392 0.100443
H49   H     H_    0.344791 0.260703 0.973551 0.158768
H50   H     H_    0.812778 0.208862 0.149491 0.205283
H51   H     H_    0.812342 0.790639 0.149301 0.204932
H52   H     H_    0.269935 0.673439 0.001924 0.151653
H53   H     H_    0.269654 0.326047 0.003058 0.151968
H54   H     H_    0.146739 0.841005 0.866440 0.163022
H55   H     H_    0.146053 0.158959 0.866171 0.163389
H56   H     H_    0.708280 0.290935 0.826833 0.163770
H57   H     H_    0.707163 0.708721 0.826531 0.163352
H58   H     H_    0.446416 0.860568 0.182881 0.105136
H59   H     H_    0.751745 0.372312 0.820224 0.100140
H60   H     H_    0.445857 0.138820 0.182818 0.105260
H61   H     H_    0.932727 0.366437 0.177998 0.099407
H62   H     H_    0.932526 0.633190 0.177975 0.099532
H63   H     H_    0.176806 0.859807 0.998913 0.153308
H64   H     H_    0.175791 0.139838 0.998431 0.153779
H65   H     H_    0.627394 0.331291 0.834659 0.149017
H66   H     H_    0.626724 0.668452 0.835137 0.150165
H67   H     H_    0.080814 0.793952 0.987729 0.120588
H68   H     H_    0.079679 0.205813 0.987098 0.120562
H69   H     H_    0.555847 0.254703 0.829921 0.114058
H70   H     H_    0.013758 0.944167 0.697669 0.106628
H71   H     H_    0.555139 0.745186 0.830202 0.114002
H72   H     H_    0.855243 0.253442 0.001505 0.167396
H73   H     H_    0.854256 0.746211 0.000725 0.167376
H74   H     H_    0.235807 0.762967 0.852836 0.150167
H75   H     H_    0.235384 0.236995 0.853317 0.149836
H76   H     H_    0.793970 0.179244 0.028966 0.151778
H77   H     H_    0.793119 0.820396 0.028544 0.152161
H78   H     H_    0.168301 0.690078 0.866684 0.159381
H79   H     H_    0.168167 0.309967 0.867525 0.159538
H80   H     H_    0.584529 0.089446 0.644184 0.142766
H81   H     H_    0.034365 0.093832 0.610305 0.103954
H82   H     H_    0.591848 0.911311 0.650562 0.143210
H83   H     H_    0.088245 0.588953 0.647735 0.140794
H84   H     H_    0.088045 0.410828 0.647768 0.140831
H85   H     H_    0.691748 0.051883 0.722665 0.153945
H86   H     H_    0.695847 0.951610 0.725159 0.154137
H87   H     H_    0.193918 0.549888 0.723590 0.152805
H88   H     H_    0.193808 0.449592 0.723674 0.152813
H89   H     H_    0.572279 0.087983 0.489268 0.109330
H90   H     H_    0.577545 0.912263 0.493775 0.110225
H91   H     H_    0.073734 0.587756 0.491120 0.110826
H92   H     H_    0.531351 0.440670 0.589088 0.109575
H93   H     H_    0.073696 0.412047 0.491264 0.110769
H94   H     H_    0.423795 0.034923 0.524920 0.161541
H95   H     H_    0.426602 0.962041 0.526680 0.160857
H96   H     H_    0.925149 0.536567 0.527021 0.161151
H97   H     H_    0.925047 0.463681 0.527102 0.160568
H98   H     H_    0.563027 0.087110 0.331678 0.095765
H99   H     H_    0.562623 0.912838 0.331922 0.095039
H100  H     H_    0.061666 0.587124 0.331255 0.101881
H101  H     H_    0.061501 0.412717 0.331231 0.102016
H102  H     H_    0.429379 0.035176 0.378585 0.168755
H103  H     H_    0.555730 0.593177 0.516402 0.105884
H104  H     H_    0.431455 0.962485 0.379934 0.168381
H105  H     H_    0.929305 0.536404 0.379609 0.171218
H106  H     H_    0.929300 0.463705 0.379758 0.171017
H107  H     H_    0.203514 0.913715 0.712421 0.094854
H108  H     H_    0.205321 0.087187 0.710948 0.087859
H109  H     H_    0.725676 0.413485 0.665166 0.093829
H110  H     H_    0.726531 0.587339 0.666892 0.086563
H111  H     H_    0.526777 0.087614 0.738575 0.103048
H112  H     H_    0.526705 0.912480 0.738030 0.102559
H113  H     H_    0.028566 0.587671 0.740859 0.093120
H114  H     H_    0.941237 0.905848 0.481467 0.117461
H115  H     H_    0.028580 0.412251 0.741008 0.093090
H116  H     H_    0.774813 0.912098 0.329569 0.164589
H117  H     H_    0.776024 0.086713 0.332389 0.168891
H118  H     H_    0.291583 0.411900 0.265901 0.142814
H119  H     H_    0.292738 0.587327 0.265488 0.147899
H120  H     H_    0.513236 0.836487 0.822390 0.137491
H121  H     H_    0.513649 0.163568 0.822261 0.137491
H122  H     H_    0.014449 0.334635 0.824423 0.141778
H123  H     H_    0.015004 0.665333 0.824187 0.141648
H124  H     H_    0.888517 0.035523 0.598246 0.111076
N1    N     N_R   0.392450 0.103580 0.942190 -0.035699
N2    N     N_R   0.525490 0.971610 0.207550 -0.038686
N3    N     N_R   0.025490 0.528390 0.207550 -0.040195
N4    N     N_R   0.025490 0.471610 0.207550 -0.040327
N5    N     N_R   0.317450 0.971190 0.792000 -0.038891
N6    N     N_R   0.317450 0.028810 0.792000 -0.039249
N7    N     N_R   0.817450 0.471190 0.792000 -0.035421
N8    N     N_R   0.817450 0.528810 0.792000 -0.035934
N9    N     N_R   0.473900 0.028390 0.792280 -0.038012
N10   N     N_R   0.473900 0.971610 0.792280 -0.037935
N11   N     N_R   0.973900 0.528390 0.792280 -0.035572
N12   N     N_R   0.392450 0.896420 0.942190 -0.035255
N13   N     N_R   0.973900 0.471610 0.792280 -0.035425
N14   N     N_R   0.682310 0.971180 0.208170 -0.046872
N15   N     N_R   0.682310 0.028820 0.208170 -0.046116
N16   N     N_R   0.182310 0.471180 0.208170 -0.036334
N17   N     N_R   0.182310 0.528820 0.208170 -0.035719
N18   N     N_R   0.606470 0.103570 0.057210 -0.097273
N19   N     N_R   0.606470 0.896430 0.057210 -0.097531
N20   N     N_R   0.106470 0.603570 0.057210 -0.096119
N21   N     N_R   0.106470 0.396430 0.057210 -0.096636
N22   N     N_R   0.549740 0.896000 0.943240 -0.067704
N23   N     N_R   0.892450 0.603580 0.942190 -0.039126
N24   N     N_R   0.549740 0.104000 0.943240 -0.067836
N25   N     N_R   0.049740 0.396000 0.943240 -0.068668
N26   N     N_R   0.049740 0.604000 0.943240 -0.068702
N27   N     N_3   0.413816 0.763219 0.188353 -0.217286
N28   N     N_3   0.412829 0.235820 0.188855 -0.217538
N29   N     N_3   0.784463 0.344415 0.172657 -0.226442
N30   N     N_3   0.784741 0.655230 0.173226 -0.226459
N31   N     N_3   0.641995 0.202568 0.813049 -0.222545
N32   N     N_3   0.641069 0.797172 0.812851 -0.222668
N33   N     N_3   0.031896 0.768555 0.828461 -0.221415
N34   N     N_R   0.892450 0.396420 0.942190 -0.038599
N35   N     N_3   0.031311 0.231664 0.828155 -0.221594
N36   N     N_3   0.712301 0.063357 0.567091 -0.214274
N37   N     N_3   0.715891 0.939224 0.569333 -0.210244
N38   N     N_3   0.212852 0.561964 0.566886 -0.208915
N39   N     N_3   0.212830 0.437551 0.567071 -0.207691
N40   N     N_R   0.450490 0.896000 0.057360 -0.041280
N41   N     N_R   0.450490 0.104000 0.057360 -0.041317
N42   N     N_R   0.950490 0.396000 0.057360 -0.036065
N43   N     N_R   0.950490 0.604000 0.057360 -0.036285
N44   N     N_R   0.525490 0.028390 0.207550 -0.038572
Ni1   Ni    Ni4+2 0.433780 0.065390 0.868430 0.197406
Ni2   Ni    Ni4+2 0.433780 0.934610 0.868430 0.196832
Ni3   Ni    Ni4+2 0.933780 0.565390 0.868430 0.198334
Ni4   Ni    Ni4+2 0.933780 0.434610 0.868430 0.198199
Ni5   Ni    Ni4+2 0.565800 0.934190 0.131570 0.244498
Ni6   Ni    Ni4+2 0.565800 0.065810 0.131570 0.244579
Ni7   Ni    Ni4+2 0.065800 0.434190 0.131570 0.266779
Ni8   Ni    Ni4+2 0.065800 0.565810 0.131570 0.265986

loop_
_geom_bond_atom_site_label_1
_geom_bond_atom_site_label_2
_ccdc_geom_bond_type
C102  H120  S    
C45   N43   A    
N34   N42   A    
C74   C83   S    
C90   H100  S    
C39   C41   S    
C77   H52   S    
C40   C46   S    
C29   H92   S    
N15   Ni6   S    
C54   H40   S    
N19   Ni5   S    
C105  H106  S    
C60   H47   S    
N25   Ni4   S    
N26   Ni3   S    
C52   N30   S    
C109  N8    A    
H11   N30   S    
C2    C22   A    
C58   F1    S    
C102  N22   A    
C43   C110  A    
N44   Ni6   S    
H4    N27   S    
N5    N6    A    
C84   C99   S    
N11   Ni3   S    
C87   H84   S    
N2    N44   A    
H23   N37   S    
C60   C77   S    
C47   N34   A    
N23   Ni3   S    
C27   C31   S    
C38   H13   S    
C93   N36   S    
C56   H38   S    
C93   C101  S    
N2    Ni5   S    
C27   C35   S    
C79   N31   S    
C32   C34   S    
C22   C58   A    
C1    C110  A    
C12   C20   A    
C6    C106  A    
C70   C112  S    
C85   H86   S    
C20   C33   S    
C17   H123  S    
C27   C46   S    
C79   H69   S    
C64   C79   S    
C59   H73   S    
N34   Ni4   S    
N20   N26   A    
C53   C71   S    
C87   H88   S    
C4    C89   A    
C39   H24   S    
C11   H115  S    
C23   C72   S    
H10   N30   S    
N18   N24   A    
C28   H81   S    
H16   N32   S    
N43   Ni8   S    
N40   Ni5   S    
C7    C48   S    
C35   C40   S    
C59   H46   S    
C52   H35   S    
C9    H112  S    
H19   N35   S    
C84   C93   S    
C78   H53   S    
C92   H101  S    
C86   C95   S    
C85   H82   S    
C57   H45   S    
C60   H74   S    
H9    N29   S    
C61   H75   S    
C73   C77   S    
N1    Ni1   S    
C31   H124  S    
C5    C103  S    
C16   C21   A    
C94   H90   S    
H5    N27   S    
C71   C79   S    
H6    N28   S    
C28   C46   S    
N9    N10   A    
C58   N18   A    
C64   C68   S    
C30   C48   S    
C37   C40   S    
C65   C70   S    
C91   F4    S    
N4    Ni7   S    
C43   N41   A    
H7    N28   S    
H15   N32   S    
C51   H34   S    
C29   C38   S    
C50   C67   S    
C91   N21   A    
N16   N17   A    
H29   N39   S    
C83   N35   S    
C88   N44   A    
C95   C103  S    
C65   H66   S    
C2    N24   A    
C3    C44   A    
H17   N33   S    
C49   C66   S    
C62   C66   S    
C34   C39   S    
C36   N23   A    
C38   C41   S    
C42   H58   S    
C62   H63   S    
C16   H119  S    
C49   C55   S    
C81   N32   S    
C50   C56   S    
C63   H64   S    
C49   H32   S    
C51   C53   S    
C17   N26   A    
C85   C99   S    
C42   N40   A    
C61   C67   S    
C67   C110  S    
C106  H107  S    
C44   N42   A    
C103  C105  S    
C1    H1    S    
C45   H62   S    
N22   Ni2   S    
C53   H39   S    
C13   C26   A    
H20   N35   S    
C18   C99   S    
C57   C68   S    
C87   C100  S    
C97   H95   S    
N7    Ni4   S    
N8    Ni3   S    
C109  H110  S    
C2    H121  S    
C4    C88   A    
C86   H83   S    
C40   H30   S    
C35   H114  S    
C57   C75   S    
C9    N10   A    
H14   N31   S    
C50   H33   S    
C28   C37   S    
C84   H80   S    
C105  H105  S    
C15   H118  S    
C3    C47   A    
C33   C35   S    
C30   C39   S    
H28   N39   S    
C61   H49   S    
C106  N5    A    
C25   C111  A    
C55   C73   S    
C9    C18   A    
H18   N33   S    
C89   N2    A    
C32   H3    S    
C59   C76   S    
C14   H117  S    
C47   H59   S    
C84   H85   S    
C107  N6    A    
C3    C68   S    
H26   N38   S    
N20   Ni8   S    
N13   Ni4   S    
C11   C19   A    
C107  H108  S    
C29   C32   S    
C24   C73   S    
C108  H109  S    
N3    N4    A    
C69   F2    S    
C36   C112  A    
C6    C107  A    
C66   C111  S    
C86   C100  S    
C72   C81   S    
N41   Ni6   S    
C69   N19   A    
N18   Ni6   S    
C55   H43   S    
C62   C82   S    
C60   C66   S    
C95   N38   S    
C62   H54   S    
C95   H91   S    
C50   N28   S    
C56   C74   S    
C25   H37   S    
C14   C20   A    
C82   N33   S    
C21   C34   S    
C26   C91   A    
C98   H96   S    
H27   N38   S    
C8    C18   A    
C63   C83   S    
C64   H56   S    
C77   H78   S    
N21   N25   A    
N14   N15   A    
C43   H60   S    
C65   C81   S    
C80   F3    S    
C10   C19   A    
C4    C101  S    
C104  H102  S    
C98   H97   S    
C101  C104  S    
C98   C100  S    
C73   C82   S    
N3    Ni8   S    
N5    Ni2   S    
C96   N39   S    
C28   C31   S    
C13   N25   A    
C19   C100  S    
C13   H122  S    
H21   N36   S    
N12   N40   A    
C16   N17   A    
N21   Ni7   S    
C11   N13   A    
C83   H68   S    
C75   H50   S    
C33   C37   S    
C97   C104  S    
C59   C70   S    
N42   Ni7   S    
C74   C78   S    
C96   C103  S    
C36   H48   S    
C30   H103  S    
C71   C75   S    
C23   C69   A    
C72   C76   S    
N19   N22   A    
C93   H89   S    
C45   C112  A    
C55   H36   S    
C108  N7    A    
C98   C105  S    
C88   H98   S    
N24   Ni1   S    
C25   N12   A    
N11   N13   A    
C23   C102  A    
N23   N43   A    
C76   H51   S    
C10   N11   A    
H8    N29   S    
C104  H104  S    
C57   H72   S    
C63   H55   S    
C24   C80   A    
C37   H2    S    
C94   C101  S    
C31   C33   S    
C80   N20   A    
N14   Ni5   S    
C5    C90   A    
C78   H79   S    
N9    Ni1   S    
C90   N3    A    
C97   C99   S    
C8    H111  S    
C52   C54   S    
C12   H116  S    
C15   N16   A    
C49   N27   S    
N10   Ni2   S    
C63   C67   S    
C8    N9    A    
C17   C24   A    
C12   N14   A    
C97   H94   S    
C14   N15   A    
C29   C48   S    
C82   H67   S    
C10   H113  S    
C7    C109  A    
H22   N36   S    
C27   H70   S    
C42   C111  A    
C54   H42   S    
C85   C94   S    
C41   H31   S    
C61   C78   S    
C87   C96   S    
C1    N1    A    
C64   H65   S    
C51   N29   S    
H12   N31   S    
C22   C71   S    
C96   H93   S    
C6    C46   S    
C65   H57   S    
C34   C38   S    
N1    N41   A    
N12   Ni2   S    
C44   H61   S    
N7    N8    A    
C53   H41   S    
C89   H99   S    
C75   H76   S    
H25   N37   S    
C56   H44   S    
C94   N37   S    
C30   C32   S    
C92   N4    A    
C86   H87   S    
C26   C74   S    
C41   C48   S    
C51   C68   S    
N16   Ni7   S    
C5    C92   A    
C52   C70   S    
C76   H77   S    
C15   C21   A    
C54   C72   S    
C7    C108  A    
N6    Ni1   S    
C81   H71   S    
N17   Ni8   S    
