data_mof_unit_14799.cif
_audit_creation_date              2013-03-05T15:46:03-0500
_audit_creation_method            fapswitch 2.2
_symmetry_space_group_name_H-M    P1
_symmetry_Int_Tables_number       1
_space_group_crystal_system       triclinic
_cell_length_a                    17.373835
_cell_length_b                    24.266446
_cell_length_c                    14.823591
_cell_angle_alpha                 90.316059
_cell_angle_beta                  124.259583
_cell_angle_gamma                 89.583555
_cell_volume                      5165.15934197

loop_
_atom_site_label
_atom_site_type_symbol
_atom_site_description
_atom_site_fract_x
_atom_site_fract_y
_atom_site_fract_z
_atom_type_partial_charge
C1    C     C_R   0.352104 0.151953 0.907469 -0.139717
C2    C     C_R   0.307914 0.881398 0.910456 -0.094911
C3    C     C_R   0.852951 0.652173 0.907831 -0.136633
C4    C     C_R   0.810724 0.375152 0.911176 -0.115954
H1    H     H_    0.310037 0.162442 0.822255 0.096996
H2    H     H_    0.248817 0.877482 0.826902 0.113027
H3    H     H_    0.811518 0.663002 0.822765 0.097223
H4    H     H_    0.756001 0.366793 0.827893 0.100166
N1    N     N_R   0.392140 0.102630 0.941800 -0.048520
N2    N     N_R   0.392140 0.897370 0.941800 -0.052399
N3    N     N_R   0.892140 0.602630 0.941800 -0.048170
N4    N     N_R   0.892140 0.397370 0.941800 -0.047241
C5    C     C_R   0.404432 0.871611 0.092766 -0.024997
C6    C     C_R   0.445218 0.154158 0.089206 0.030849
C7    C     C_R   0.904498 0.372699 0.094147 -0.002825
C8    C     C_R   0.946051 0.654170 0.089604 0.036716
N5    N     N_R   0.450890 0.896450 0.057150 -0.034954
N6    N     N_R   0.450890 0.103550 0.057150 -0.078141
N7    N     N_R   0.950890 0.396450 0.057150 -0.049897
N8    N     N_R   0.950890 0.603550 0.057150 -0.076819
C9    C     C_R   0.548049 0.045742 0.303582 -0.082343
C10   C     C_R   0.550020 0.955099 0.304685 -0.125325
C11   C     C_R   0.049986 0.545794 0.304386 -0.074212
C12   C     C_R   0.054694 0.455365 0.306533 -0.177390
H5    H     H_    0.567646 0.087442 0.331663 0.115506
H6    H     H_    0.572971 0.913946 0.334525 0.156835
H7    H     H_    0.068938 0.587626 0.331877 0.128935
H8    H     H_    0.081830 0.414677 0.337081 0.127588
N9    N     N_R   0.525160 0.027960 0.206160 -0.056384
N10   N     N_R   0.525160 0.972040 0.206160 -0.048126
N11   N     N_R   0.025160 0.527960 0.206160 -0.053520
N12   N     N_R   0.025160 0.472040 0.206160 -0.051102
C13   C     C_R   0.245748 0.954231 0.697335 -0.154378
C14   C     C_R   0.243578 0.046478 0.699455 -0.124851
C15   C     C_R   0.738554 0.453544 0.709381 -0.167292
C16   C     C_R   0.734981 0.546671 0.713604 -0.137172
H9    H     H_    0.234369 0.911788 0.670679 0.099534
H10   H     H_    0.227720 0.089296 0.676179 0.104245
H11   H     H_    0.724771 0.411237 0.682067 0.109242
H12   H     H_    0.714832 0.589356 0.692347 0.110101
N13   N     N_R   0.317870 0.971120 0.792790 -0.041446
N14   N     N_R   0.317870 0.028880 0.792790 -0.038520
N15   N     N_R   0.817870 0.471120 0.792790 -0.039267
N16   N     N_R   0.817870 0.528880 0.792790 -0.037864
C17   C     C_R   0.387792 0.187117 0.996766 0.018705
C18   C     C_R   0.313310 0.864140 0.002385 -0.083077
C19   C     C_R   0.888995 0.687179 0.997406 0.010664
C20   C     C_R   0.812711 0.362176 0.004379 -0.024140
C21   C     C_R   0.566072 0.000633 0.368344 0.038714
C22   C     C_R   0.070929 0.500805 0.370246 0.041079
C23   C     C_R   0.197204 0.000421 0.637945 0.067409
C24   C     C_R   0.683873 0.499738 0.662987 0.072290
C25   C     C_R   0.517525 0.046301 0.749758 -0.098549
C26   C     C_R   0.512261 0.954863 0.741875 -0.114512
C27   C     C_R   0.015633 0.546275 0.747402 -0.111344
C28   C     C_R   0.009751 0.454884 0.739045 -0.123647
H13   H     H_    0.528386 0.089146 0.741691 0.102215
H14   H     H_    0.512228 0.913267 0.717114 0.093874
H15   H     H_    0.025923 0.589057 0.738368 0.094941
H16   H     H_    0.008176 0.413372 0.712856 0.090747
N17   N     N_R   0.473480 0.027920 0.793480 -0.043916
N18   N     N_R   0.473480 0.972080 0.793480 -0.042292
N19   N     N_R   0.973480 0.527920 0.793480 -0.041986
N20   N     N_R   0.973480 0.472080 0.793480 -0.041021
C29   C     C_R   0.768611 0.953747 0.269511 -0.049010
C30   C     C_R   0.768577 0.046549 0.264189 -0.080115
C31   C     C_R   0.257399 0.453805 0.297336 -0.110285
C32   C     C_R   0.260924 0.546383 0.293230 -0.078219
H17   H     H_    0.788906 0.912285 0.298864 0.110005
H18   H     H_    0.789175 0.089191 0.282381 0.097542
H19   H     H_    0.268894 0.411859 0.326217 0.132458
H20   H     H_    0.279049 0.589144 0.314904 0.142615
N21   N     N_R   0.681610 0.971120 0.207570 -0.044986
N22   N     N_R   0.681610 0.028880 0.207570 -0.051202
N23   N     N_R   0.181610 0.471120 0.207570 -0.046427
N24   N     N_R   0.181610 0.528880 0.207570 -0.053572
C33   C     C_R   0.650770 0.150410 0.091791 -0.095311
C34   C     C_R   0.678599 0.864358 0.089910 -0.081793
C35   C     C_R   0.154454 0.649043 0.091959 -0.164847
C36   C     C_R   0.184296 0.370096 0.090428 -0.069425
H21   H     H_    0.689363 0.163483 0.175986 0.073980
H22   H     H_    0.730474 0.853043 0.172890 0.096657
H23   H     H_    0.197965 0.662360 0.176107 0.108721
H24   H     H_    0.241087 0.364633 0.174349 0.148187
N25   N     N_R   0.605410 0.102620 0.056870 -0.047683
N26   N     N_R   0.605410 0.897380 0.056870 -0.039739
N27   N     N_R   0.105410 0.602620 0.056870 -0.045899
N28   N     N_R   0.105410 0.397380 0.056870 -0.044517
C37   C     C_R   0.586927 0.861849 0.908522 -0.126998
C38   C     C_R   0.559918 0.152155 0.910542 -0.140196
C39   C     C_R   0.090405 0.364532 0.908946 -0.118008
C40   C     C_R   0.062489 0.650425 0.909725 -0.154333
H25   H     H_    0.553591 0.847731 0.825782 0.098269
H26   H     H_    0.514395 0.166774 0.827724 0.093756
H27   H     H_    0.058042 0.349982 0.826675 0.093681
H28   H     H_    0.019781 0.665617 0.826838 0.103090
N29   N     N_R   0.549680 0.896430 0.944180 -0.045072
N30   N     N_R   0.549680 0.103570 0.944180 -0.040358
N31   N     N_R   0.049680 0.396430 0.944180 -0.043789
N32   N     N_R   0.049680 0.603570 0.944180 -0.037725
Ni1   Ni    Ni4+2 0.433410 0.064680 0.868830 0.213157
Ni2   Ni    Ni4+2 0.433410 0.935320 0.868830 0.224833
Ni3   Ni    Ni4+2 0.933410 0.564680 0.868830 0.211302
Ni4   Ni    Ni4+2 0.933410 0.435320 0.868830 0.228032
Ni5   Ni    Ni4+2 0.565650 0.934380 0.131170 0.287207
Ni6   Ni    Ni4+2 0.565650 0.065620 0.131170 0.212901
Ni7   Ni    Ni4+2 0.065650 0.434380 0.131170 0.261260
Ni8   Ni    Ni4+2 0.065650 0.565620 0.131170 0.212748
C41   C     C_R   0.546083 0.000694 0.719691 0.049877
C42   C     C_R   0.042982 0.500670 0.715937 0.046067
C43   C     C_R   0.824651 0.999886 0.300895 0.046043
C44   C     C_R   0.310999 0.499619 0.347713 0.029984
C45   C     C_R   0.622581 0.182861 0.001560 0.073904
C46   C     C_R   0.672271 0.845217 0.997764 0.050999
C47   C     C_R   0.128063 0.679014 0.000497 0.065705
C48   C     C_R   0.178312 0.351163 0.997983 0.049894
C49   C     C_3   0.040235 0.010106 0.590204 -0.487017
C50   C     C_3   0.080698 0.046308 0.461003 -0.492669
C51   C     C_3   0.552818 0.438968 0.542655 -0.478178
C52   C     C_3   0.533291 0.523814 0.627905 -0.488768
H29   H     H_    0.056361 0.978030 0.652045 0.214405
H30   H     H_    0.123306 0.038707 0.427593 0.219678
H31   H     H_    0.591414 0.420284 0.510226 0.207898
H32   H     H_    0.556676 0.566790 0.655981 0.215563
H33   H     H_    0.058054 0.050495 0.633440 0.153343
H34   H     H_    0.101314 0.087324 0.501378 0.151423
H35   H     H_    0.567513 0.413479 0.612863 0.178374
H36   H     H_    0.550513 0.499911 0.701066 0.153008
C53   C     C_3   0.936451 0.010173 0.497727 0.225314
C54   C     C_3   0.975412 0.048063 0.369658 0.229494
C55   C     C_3   0.449204 0.437909 0.456717 0.233005
C56   C     C_3   0.427513 0.521797 0.541704 0.219068
H37   H     H_    0.908744 0.052192 0.495120 0.057302
H38   H     H_    0.948582 0.087892 0.379490 0.051260
H39   H     H_    0.416736 0.415106 0.492343 0.084793
H40   H     H_    0.397346 0.492045 0.570751 0.073728
H41   H     H_    0.084761 0.909951 0.538760 0.175174
H42   H     H_    0.117734 0.935873 0.451563 0.185852
H43   H     H_    0.601661 0.514136 0.445505 0.184911
H44   H     H_    0.591479 0.575870 0.505487 0.174102
H45   H     H_    0.938446 0.908381 0.400460 0.189057
H46   H     H_    0.963310 0.936286 0.310446 0.206634
H47   H     H_    0.445482 0.520907 0.315088 0.208392
H48   H     H_    0.437560 0.578120 0.382455 0.190864
C57   C     C_3   0.073798 0.944185 0.483045 -0.370061
C58   C     C_3   0.565649 0.532935 0.480987 -0.373352
C59   C     C_3   0.100165 0.000330 0.543944 0.252824
C60   C     C_3   0.585614 0.498961 0.579789 0.240825
C61   C     C_3   0.924631 0.999910 0.386312 0.004546
C62   C     C_3   0.409544 0.498697 0.432544 0.000718
C63   C     C_3   0.971113 0.944177 0.388944 -0.335496
C64   C     C_3   0.461095 0.534556 0.395257 -0.303889
C65   C     C_R   0.220538 0.821681 0.064692 -0.070956
C66   C     C_R   0.297702 0.271756 0.891368 -0.030614
C67   C     C_R   0.652412 0.318761 0.905489 -0.004085
C68   C     C_R   0.797032 0.770775 0.892654 -0.034902
C69   C     C_R   0.611255 0.269356 0.904874 -0.155602
C70   C     C_R   0.731560 0.803641 0.894169 -0.133495
C71   C     C_R   0.177994 0.773581 0.066535 -0.147672
C72   C     C_R   0.235497 0.307757 0.893199 -0.138853
H49   H     H_    0.553023 0.253428 0.828400 0.154934
H50   H     H_    0.671151 0.818286 0.817933 0.145237
H51   H     H_    0.156510 0.769362 0.122088 0.152503
H52   H     H_    0.176003 0.323280 0.817107 0.142788
C73   C     C_R   0.646829 0.240550 0.002612 0.075365
C74   C     C_R   0.745305 0.817480 0.994342 0.085969
C75   C     C_R   0.163767 0.730386 0.996099 0.093716
C76   C     C_R   0.250857 0.323188 0.993506 0.062479
C77   C     C_R   0.709613 0.267060 0.101519 -0.127822
C78   C     C_R   0.833080 0.808662 0.090648 -0.118742
C79   C     C_R   0.186634 0.734567 0.920600 -0.160920
C80   C     C_R   0.337962 0.312773 0.089187 -0.085913
H53   H     H_    0.731241 0.249444 0.179245 0.112693
H54   H     H_    0.851872 0.825504 0.168193 0.113917
H55   H     H_    0.175677 0.700834 0.866290 0.124050
H56   H     H_    0.357882 0.330191 0.166294 0.198809
C81   C     C_R   0.230669 0.780428 0.920252 -0.110462
C82   C     C_R   0.398530 0.276485 0.086936 -0.084471
C83   C     C_R   0.751749 0.315143 0.101631 -0.130420
C84   C     C_R   0.896782 0.775359 0.088272 -0.069783
H57   H     H_    0.254427 0.780633 0.866526 0.126012
H58   H     H_    0.464763 0.269101 0.162022 0.157968
H59   H     H_    0.800151 0.333961 0.179035 0.102172
H60   H     H_    0.963565 0.769097 0.163332 0.152395
C85   C     C_R   0.250632 0.823188 0.994024 0.034599
C86   C     C_R   0.368685 0.247342 0.990830 -0.037755
C87   C     C_R   0.735839 0.335017 0.003877 0.012122
C88   C     C_R   0.869458 0.747199 0.991981 -0.033510
C89   C     C_R   0.608904 0.951329 0.628116 -0.151055
C90   C     C_R   0.604510 0.051085 0.625678 -0.140745
C91   C     C_R   0.107181 0.451228 0.625771 -0.148253
C92   C     C_R   0.103934 0.551011 0.624238 -0.169613
H61   H     H_    0.608027 0.912126 0.661868 0.131084
H62   H     H_    0.599555 0.090394 0.656709 0.125740
H63   H     H_    0.104556 0.411991 0.658157 0.127007
H64   H     H_    0.098249 0.590309 0.654718 0.117417
C93   C     C_R   0.613343 0.951234 0.537890 -0.087290
C94   C     C_R   0.609228 0.051055 0.535742 -0.126058
C95   C     C_R   0.115545 0.451223 0.538376 -0.150564
C96   C     C_R   0.112663 0.551040 0.537161 -0.076576
H65   H     H_    0.614998 0.911846 0.504687 0.139635
H66   H     H_    0.607444 0.090378 0.500787 0.131618
H67   H     H_    0.117590 0.411859 0.505336 0.138690
H68   H     H_    0.112657 0.590357 0.503292 0.140735
C97   C     C_R   0.602317 0.001013 0.484085 0.157309
C98   C     C_R   0.106910 0.501080 0.485923 0.126624
C99   C     C_R   0.592422 0.001096 0.662923 0.117040
C100  C     C_R   0.089713 0.501013 0.659552 0.120106
N33   N     N_R   0.884712 0.970785 0.519402 0.251779
O1    O     O_R   0.911435 0.919656 0.544054 -0.407178
O2    O     O_R   0.814201 0.987944 0.520674 -0.403563
N34   N     N_R   0.958300 0.047906 0.260570 0.256701
O3    O     O_R   0.997804 0.011763 0.233716 -0.382444
O4    O     O_R   0.908579 0.087128 0.192150 -0.374044
N35   N     N_R   0.431005 0.406268 0.361678 0.231662
O5    O     O_R   0.458112 0.424015 0.301243 -0.434057
O6    O     O_R   0.408457 0.354638 0.354404 -0.423721
N36   N     N_R   0.383911 0.575771 0.530534 0.243262
O7    O     O_R   0.416822 0.620651 0.516939 -0.416004
O8    O     O_R   0.315224 0.579511 0.542218 -0.415065
C101  C     C_2   0.233743 0.869094 0.135753 0.511147
H69   H     H_    0.264436 0.907046 0.131969 0.016673
O9    O     O_2   0.209982 0.866473 0.199050 -0.562890
C102  C     C_2   0.292860 0.263844 0.789120 0.502486
H70   H     H_    0.351705 0.245980 0.792039 0.005867
O10   O     O_2   0.224366 0.278210 0.701062 -0.576988
C103  C     C_2   0.603859 0.354346 0.807305 0.461401
H71   H     H_    0.623443 0.397268 0.813454 -0.000802
O11   O     O_2   0.539858 0.336666 0.719204 -0.577414
C104  C     C_2   0.793266 0.764636 0.790740 0.520194
H72   H     H_    0.852809 0.747845 0.793839 0.005195
O12   O     O_2   0.724791 0.779150 0.702798 -0.567213
C105  C     C_2   0.450107 0.839819 0.194967 0.467009
H73   H     H_    0.411181 0.826474 0.227722 0.020121
O13   O     O_2   0.531436 0.825702 0.240876 -0.568073
C106  C     C_2   0.508476 0.171521 0.203049 0.421454
H74   H     H_    0.583157 0.169686 0.241850 -0.014613
O14   O     O_2   0.477677 0.184672 0.256580 -0.551085
C107  C     C_2   0.953566 0.348336 0.203596 0.508673
H75   H     H_    0.939054 0.361958 0.262310 -0.023763
O15   O     O_2   0.015165 0.314381 0.231294 -0.544658
C108  C     C_2   0.011651 0.671774 0.202851 0.403537
H76   H     H_    0.085873 0.671080 0.238359 0.017069
O16   O     O_2   0.983485 0.683961 0.259522 -0.573495

loop_
_geom_bond_atom_site_label_1
_geom_bond_atom_site_label_2
_geom_bond_distance
_ccdc_geom_bond_type
C35   H23   1.081336 S    
H43   C58   1.113516 S    
N23   Ni7   1.892733 S    
C35   C47   1.372404 A    
C67   C69   1.397742 A    
C56   C62   1.566478 S    
N13   N14   1.401632 A    
C6    N6    1.337238 A    
C54   N34   1.470371 S    
C107  H75   1.083070 S    
C14   N14   1.323064 A    
C66   C102  1.481454 S    
C4    H4    1.071320 S    
C102  H70   1.085809 S    
C9    C21   1.373343 A    
C81   C85   1.399475 A    
C34   C46   1.385026 A    
C39   C48   1.381243 A    
C7    N7    1.338105 A    
C80   H56   1.075315 S    
C66   C86   1.413336 A    
C90   C94   1.380980 A    
C14   C23   1.380001 A    
C101  H69   1.084920 S    
C65   C85   1.410482 A    
C1    H1    1.075170 S    
C72   H52   1.081175 S    
H41   C57   1.112055 S    
C50   C59   1.553158 S    
C38   N30   1.334059 A    
C91   C95   1.382555 A    
N4    Ni4   1.850954 S    
C5    C105  1.473262 S    
C55   H39   1.116439 S    
N35   O6    1.301106 A    
C32   C44   1.379008 A    
C5    C18   1.395567 A    
C81   H57   1.083914 S    
C17   C86   1.488390 S    
C83   C87   1.401262 A    
H42   C57   1.113084 S    
C80   C82   1.381895 A    
C30   N22   1.322459 A    
C7    C107  1.467842 S    
C40   H28   1.081991 S    
C29   N21   1.318314 A    
C106  H74   1.084213 S    
N11   Ni8   1.861911 S    
C38   C45   1.381210 A    
C3    C19   1.391398 A    
C41   C99   1.455797 S    
N26   N29   1.381075 A    
C49   H29   1.113663 S    
N15   Ni4   1.868885 S    
C29   C43   1.384960 A    
C44   C62   1.445278 S    
C89   C93   1.382343 A    
N25   N30   1.381148 A    
C84   C88   1.400282 A    
N33   O2    1.301152 A    
C65   C101  1.484717 S    
C25   N17   1.330828 A    
N27   Ni8   1.836554 S    
C36   C48   1.390391 A    
N18   Ni2   1.850263 S    
C71   C75   1.396817 A    
N12   Ni7   1.850839 S    
C27   N19   1.331383 A    
C94   H66   1.080249 S    
C108  O16   1.220911 D    
C28   N20   1.336914 A    
C93   H65   1.080286 S    
C33   H21   1.079098 S    
C30   C43   1.386100 A    
C4    N4    1.335304 A    
C49   C53   1.532145 S    
C105  H73   1.082891 S    
C58   C60   1.543448 S    
N29   Ni2   1.913735 S    
C16   C24   1.379739 A    
C36   H24   1.075463 S    
C34   N26   1.336873 A    
C92   C96   1.381855 A    
N31   Ni4   1.913735 S    
H48   C64   1.108756 S    
C33   N25   1.334641 A    
C24   C60   1.437168 S    
H45   C63   1.106189 S    
C52   C56   1.539240 S    
C35   N27   1.331972 A    
C94   C97   1.401347 A    
C95   H67   1.080527 S    
C92   C100  1.401475 A    
C2    H2    1.079640 S    
C7    C20   1.411371 A    
C33   C45   1.384742 A    
C43   C61   1.464319 S    
C8    C19   1.402611 A    
C28   C42   1.386130 A    
C57   C59   1.552711 S    
N16   Ni3   1.876652 S    
C38   H26   1.079838 S    
C6    C17   1.404994 A    
C83   H59   1.070362 S    
C68   C88   1.411186 A    
N21   N22   1.401632 A    
C73   C77   1.397302 A    
N3    N8    1.414565 A    
C101  O9    1.221462 D    
C55   N35   1.471172 S    
N2    Ni2   1.850954 S    
C1    N1    1.330956 A    
C20   C87   1.489864 S    
N19   Ni3   1.839411 S    
C93   C97   1.402581 A    
C69   C73   1.402303 A    
N28   Ni7   1.825672 S    
C25   H13   1.077272 S    
C11   C22   1.372371 A    
C75   C79   1.386757 A    
C26   N18   1.336559 A    
C91   H63   1.081405 S    
C51   C60   1.548269 S    
N36   O8    1.301274 A    
C79   H55   1.084860 S    
C95   C98   1.402569 A    
C2    C18   1.379504 A    
C28   H16   1.072530 S    
C26   C41   1.386141 A    
C78   C84   1.381941 A    
C32   H20   1.079933 S    
C11   N11   1.334961 A    
H46   C63   1.108774 S    
C65   C71   1.394685 A    
N17   Ni1   1.839411 S    
N23   N24   1.401632 A    
C12   N12   1.335989 A    
C50   H30   1.112241 S    
C66   C72   1.396772 A    
N9    N10   1.356982 A    
C50   C54   1.546659 S    
C62   C64   1.561681 S    
N5    Ni5   1.891792 S    
C96   H68   1.080545 S    
N22   Ni6   1.884807 S    
C34   H22   1.073635 S    
C51   C55   1.510796 S    
C103  H71   1.085420 S    
C23   C59   1.462559 S    
C56   H40   1.115506 S    
C46   C74   1.457846 S    
C67   C103  1.482075 S    
C54   C61   1.571029 S    
N33   O1    1.301561 A    
C49   H33   1.114129 S    
C31   C44   1.372501 A    
C107  O15   1.220262 D    
C8    N8    1.336001 A    
C32   N24   1.313070 A    
C89   C99   1.400412 A    
C104  O12   1.221336 D    
C105  O13   1.220635 D    
C12   C22   1.371331 A    
C78   H54   1.081301 S    
C57   C63   1.525354 S    
C10   C21   1.373260 A    
C58   C64   1.522070 S    
C22   C98   1.457489 S    
N1    Ni1   1.839797 S    
H47   C64   1.108871 S    
C103  O11   1.221400 D    
N34   O4    1.301176 A    
C52   C60   1.554385 S    
C11   H7    1.074306 S    
C27   C42   1.379933 A    
C71   H51   1.084185 S    
N9    Ni6   1.861911 S    
C16   N16   1.315849 A    
N26   Ni5   1.825672 S    
C31   N23   1.306304 A    
H44   C58   1.112622 S    
N25   Ni6   1.836554 S    
C2    N2    1.322196 A    
N14   Ni1   1.876652 S    
C92   H64   1.080459 S    
C6    C106  1.464239 S    
C16   H12   1.081155 S    
C15   N15   1.301547 A    
C27   H15   1.076513 S    
C40   N32   1.319558 A    
C4    C20   1.400039 A    
N27   N32   1.381148 A    
C26   H14   1.072039 S    
C76   C80   1.395533 A    
C25   C41   1.380302 A    
N20   Ni4   1.850263 S    
C9    H5    1.074201 S    
C37   C46   1.378485 A    
C96   C98   1.400994 A    
C53   H37   1.115917 S    
C10   N10   1.335069 A    
C56   N36   1.470890 S    
C108  H76   1.084347 S    
C47   C75   1.414478 S    
C14   H10   1.080420 S    
N11   N12   1.356982 A    
C79   C81   1.356731 A    
C12   H8    1.077031 S    
N32   Ni3   1.922121 S    
C21   C97   1.457308 S    
C69   H49   1.080575 S    
C102  O10   1.221326 D    
C42   C100  1.456722 S    
C52   H36   1.114081 S    
C74   C78   1.398903 A    
C51   H31   1.114631 S    
C13   C23   1.379811 A    
N30   Ni1   1.922121 S    
C50   H34   1.111048 S    
C3    H3    1.075285 S    
N10   Ni5   1.850839 S    
C5    N5    1.335639 A    
N21   Ni5   1.892733 S    
C49   C59   1.552152 S    
C13   N13   1.321013 A    
C61   C63   1.559486 S    
C19   C88   1.485395 S    
C104  H72   1.085758 S    
C36   N28   1.336802 A    
C67   C87   1.416158 A    
C45   C73   1.462315 S    
C90   H62   1.080482 S    
C1    C17   1.391365 A    
N36   O7    1.301854 A    
C30   H18   1.079436 S    
C9    N9    1.333759 A    
N6    Ni6   1.883562 S    
N15   N16   1.401632 A    
C29   H17   1.073736 S    
C15   H11   1.079403 S    
N4    N7    1.414629 A    
C68   C70   1.394925 A    
C90   C99   1.400741 A    
N13   Ni2   1.868885 S    
C106  O14   1.220919 D    
C31   H19   1.079264 S    
C91   C100  1.400514 A    
C72   C76   1.403879 A    
C18   C85   1.432196 S    
C37   H25   1.074987 S    
N17   N18   1.355041 A    
C54   H38   1.114026 S    
C40   C47   1.365655 A    
C13   H9    1.080057 S    
N28   N31   1.381075 A    
C3    N3    1.330891 A    
C52   H32   1.112154 S    
C70   H50   1.080997 S    
C39   H27   1.074350 S    
N19   N20   1.355041 A    
C82   C86   1.400382 A    
C70   C74   1.404008 A    
C89   H61   1.081463 S    
N1    N6    1.414565 A    
N35   O5    1.300789 A    
N34   O3    1.301427 A    
N24   Ni8   1.884807 S    
C10   H6    1.073523 S    
C37   N29   1.332164 A    
C15   C24   1.374584 A    
C77   H53   1.080318 S    
C48   C76   1.461183 S    
C55   C62   1.578690 S    
N3    Ni3   1.839797 S    
N2    N5    1.414629 A    
C39   N31   1.332738 A    
C53   C61   1.564036 S    
C68   C104  1.481609 S    
C53   N33   1.471700 S    
C82   H58   1.073452 S    
C77   C83   1.381456 A    
C8    C108  1.464453 S    
C84   H60   1.073834 S    
C51   H35   1.112002 S    
N8    Ni8   1.883562 S    
N7    Ni7   1.891792 S    
