data_mof_unit_10953.cif
_audit_creation_date              2012-12-11T14:15:31-0500
_audit_creation_method            fapswitch 2.2
_symmetry_space_group_name_H-M    P1
_symmetry_Int_Tables_number       1
_space_group_crystal_system       triclinic
_cell_length_a                    11.169524
_cell_length_b                    12.743162
_cell_length_c                    23.535135
_cell_angle_alpha                 90.779195
_cell_angle_beta                  96.917902
_cell_angle_gamma                 68.641655
_cell_volume                      3095.43501841

loop_
_atom_site_label
_atom_site_type_symbol
_atom_type_description
_atom_site_fract_x
_atom_site_fract_y
_atom_site_fract_z
_atom_type_partial_charge
C1    C     C_R   0.150340 0.616665 0.429412 0.533591
C2    C     C_2   0.182595 0.231326 0.227094 -0.116034
C3    C     C_2   0.155313 0.164445 0.262947 -0.107872
C4    C     C_R   0.744974 0.606360 0.405098 0.538497
C5    C     C_1   0.132323 0.198156 0.320719 -0.025844
C6    C     C_1   0.211575 0.196169 0.170112 -0.037756
C7    C     C_1   0.115935 0.231557 0.368486 0.014169
C8    C     C_1   0.173083 0.759834 0.126246 0.000047
C9    C     C_2   0.149512 0.738455 0.235547 -0.011592
C10   C     C_2   0.236763 0.655203 0.269934 -0.131887
C11   C     C_1   0.219985 0.642247 0.329090 -0.020887
C12   C     C_R   0.624952 0.577876 0.313515 -0.024158
C13   C     C_1   0.162596 0.745889 0.175701 -0.054588
C14   C     C_1   0.195063 0.631596 0.376608 0.023397
C15   C     C_1   0.628173 0.756384 0.865044 -0.029001
C16   C     C_R   0.101090 0.282128 0.423413 0.540779
C17   C     C_2   0.699395 0.713139 0.761249 -0.128944
C18   C     C_2   0.614524 0.700080 0.718963 -0.124756
C19   C     C_1   0.652709 0.668340 0.662894 -0.066513
C20   C     C_1   0.663652 0.737517 0.818248 -0.074764
C21   C     C_1   0.691119 0.639451 0.617299 -0.014191
C22   C     C_R   0.197266 0.189379 0.856596 -0.002291
C23   C     C_R   0.688132 0.742795 0.321383 -0.031764
C24   C     C_R   0.106640 0.232148 0.642697 -0.058798
C25   C     C_R   0.985313 0.210564 0.717945 0.264613
C26   C     C_R   0.993165 0.228878 0.660523 -0.150872
C27   C     C_R   0.214658 0.217006 0.683287 -0.014377
C28   C     C_R   0.150767 0.615377 0.591193 0.557831
C29   C     C_R   0.198671 0.222922 0.741185 -0.050058
C30   C     C_R   0.087339 0.211336 0.759691 0.043274
C31   C     C_R   0.086581 0.195408 0.819027 0.279962
C32   C     C_R   0.287021 0.230640 0.838298 -0.176375
C33   C     C_R   0.291069 0.242780 0.780882 -0.147538
C34   C     C_R   0.681423 0.749270 0.261386 0.015393
C35   C     C_R   0.123022 0.747794 0.851360 -0.007572
C36   C     C_R   0.198791 0.630829 0.650350 0.002845
C37   C     C_R   0.291011 0.543706 0.744786 -0.120817
C38   C     C_R   0.286829 0.538682 0.685301 0.210243
C39   C     C_R   0.130577 0.731094 0.675919 0.210051
C40   C     C_R   0.749987 0.602240 0.566020 0.543069
C41   C     C_R   0.118240 0.727153 0.733833 -0.007616
C42   C     C_R   0.204103 0.636846 0.769782 -0.066049
C43   C     C_R   0.202705 0.645072 0.829494 -0.054831
C44   C     C_R   0.021689 0.826234 0.814104 0.217283
C45   C     C_R   0.655913 0.664254 0.229084 0.013983
C46   C     C_R   0.019487 0.812320 0.755965 -0.098269
C47   C     C_R   0.266010 0.109874 0.069491 0.539111
C48   C     C_R   0.599562 0.775315 0.081622 0.536556
C49   C     C_R   0.189778 0.788563 0.069817 0.541421
C50   C     C_R   0.239926 0.117860 0.908755 0.555624
C51   C     C_R   0.573652 0.776426 0.918185 0.540244
C52   C     C_R   0.099704 0.280050 0.585736 0.543501
C53   C     C_R   0.163240 0.786452 0.907040 0.554935
C54   C     C_R   0.661633 0.757256 0.141247 -0.009073
C55   C     C_R   0.675866 0.647910 0.347595 -0.022415
C56   C     C_R   0.656734 0.664228 0.170573 -0.124848
C57   C     C_R   0.620224 0.583944 0.254657 -0.141064
C58   C     C_1   0.045643 0.828184 0.257806 0.225154
C59   C     C_3   0.890168 0.279022 0.851710 0.033829
C60   C     C_3   0.908820 0.305030 0.915166 -0.286902
C61   C     C_3   0.799227 0.411268 0.929780 -0.465301
C62   C     C_3   0.866010 0.097356 0.716022 0.021761
C63   C     C_3   0.765109 0.111173 0.663818 -0.295559
C64   C     C_3   0.733301 0.005177 0.653045 -0.455309
C65   C     C_1   0.342012 0.193433 0.666116 0.263439
C66   C     C_1   0.286837 0.552390 0.867752 0.207598
C67   C     C_R   0.691647 0.841405 0.172788 -0.027761
C68   C     C_1   0.709008 0.934604 0.145302 0.235398
C69   C     C_3   0.834971 0.929808 0.850497 0.012153
C70   C     C_3   0.762032 0.047308 0.871592 -0.258184
C71   C     C_3   0.646558 0.051126 0.900802 -0.444198
C72   C     C_3   0.474560 0.438508 0.647526 0.015071
C73   C     C_3   0.479986 0.418534 0.583142 -0.227673
C74   C     C_3   0.616144 0.352213 0.568872 -0.456430
C75   C     C_3   0.152685 0.871336 0.623913 0.009114
C76   C     C_3   0.082786 0.960605 0.576368 -0.250091
C77   C     C_3   0.177828 0.998679 0.548867 -0.465541
C78   C     C_R   0.702341 0.836342 0.232612 -0.122105
C79   C     C_1   0.580605 0.496496 0.337390 0.223979
C80   C     C_1   0.708468 0.831996 0.355520 0.224916
C81   C     C_1   0.236521 0.161806 0.123240 0.007945
Cr1   Cr    Cr6+3 0.189770 0.415650 0.511620 1.033240
Cr2   Cr    Cr6+3 0.930400 0.667320 0.496770 1.058409
Cr3   Cr    Cr6+3 0.879870 0.417010 0.491650 1.018329
Cr4   Cr    Cr6+3 0.149500 0.973980 0.985330 1.048246
Cr5   Cr    Cr6+3 0.457000 0.976510 0.994660 1.021992
Cr6   Cr    Cr6+3 0.411170 0.724270 0.995270 1.045165
H1    H     H_    0.638250 0.596358 0.147439 0.142550
H2    H     H_    0.722439 0.902802 0.256190 0.158629
H3    H     H_    0.152793 0.083298 0.249476 0.149562
H4    H     H_    0.185857 0.312114 0.240804 0.140881
H5    H     H_    0.317126 0.591384 0.252623 0.128110
H6    H     H_    0.794247 0.270903 0.841921 0.162480
H7    H     H_    0.886010 0.351678 0.824395 0.133585
H8    H     H_    0.911396 0.232816 0.941892 0.174470
H9    H     H_    0.002211 0.317678 0.925479 0.154981
H10   H     H_    0.795997 0.484963 0.904076 0.159652
H11   H     H_    0.815569 0.428277 0.975894 0.159298
H12   H     H_    0.517199 0.709586 0.726745 0.128418
H13   H     H_    0.704648 0.400124 0.921058 0.165521
H14   H     H_    0.833467 0.064527 0.751909 0.206040
H15   H     H_    0.961071 0.033538 0.707542 0.153776
H16   H     H_    0.675406 0.182113 0.670677 0.202364
H17   H     H_    0.801797 0.129540 0.625084 0.137643
H18   H     H_    0.818880 0.934970 0.641237 0.199701
H19   H     H_    0.655420 0.021617 0.616523 0.178912
H20   H     H_    0.699913 0.980095 0.691462 0.150369
H21   H     H_    0.858454 0.866469 0.886347 0.140245
H22   H     H_    0.772484 0.910256 0.814663 0.115274
H23   H     H_    0.797077 0.702696 0.753618 0.132550
H24   H     H_    0.828762 0.073244 0.902496 0.201953
H25   H     H_    0.727055 0.108776 0.834739 0.159677
H26   H     H_    0.680430 0.995964 0.940077 0.174329
H27   H     H_    0.579128 0.023947 0.871059 0.178681
H28   H     H_    0.594363 0.138678 0.913453 0.145653
H29   H     H_    0.553324 0.369570 0.672956 0.160816
H30   H     H_    0.493212 0.517462 0.658013 0.099715
H31   H     H_    0.418233 0.370203 0.567333 0.228700
H32   H     H_    0.441726 0.501523 0.559648 0.139384
H33   H     H_    0.689988 0.370843 0.598759 0.173955
H34   H     H_    0.365518 0.238441 0.867710 0.157889
H35   H     H_    0.624345 0.373197 0.524219 0.178194
H36   H     H_    0.634366 0.260942 0.571363 0.133137
H37   H     H_    0.233574 0.803918 0.606137 0.117815
H38   H     H_    0.194108 0.910309 0.659925 0.130901
H39   H     H_    0.030316 0.925483 0.542855 0.197565
H40   H     H_    0.010863 0.034382 0.594339 0.150404
H41   H     H_    0.244536 0.927472 0.526877 0.151250
H42   H     H_    0.235726 0.029709 0.581811 0.150797
H43   H     H_    0.123587 0.067798 0.516753 0.160240
H44   H     H_    0.370064 0.263075 0.767804 0.147645
H45   H     H_    0.908329 0.244096 0.629846 0.133652
H46   H     H_    0.357947 0.472037 0.770662 0.140476
H47   H     H_    0.943897 0.872735 0.727941 0.140198
H48   H     H_    0.589301 0.525190 0.228647 0.113626
N1    N     N_1   0.963494 0.900451 0.275863 -0.297706
N2    N     N_1   0.443277 0.174578 0.652171 -0.331309
N3    N     N_1   0.353947 0.478327 0.898198 -0.327925
N4    N     N_1   0.723111 0.009281 0.123349 -0.277978
N5    N     N_1   0.544837 0.431490 0.356383 -0.289181
N6    N     N_1   0.724577 0.903250 0.382644 -0.274320
O1    O     O_R   0.196340 0.303200 0.448500 -0.506321
O2    O     O_R   0.555390 0.700940 0.062700 -0.524280
O3    O     O_R   0.295020 0.731920 0.049950 -0.495905
O4    O     O_R   0.199310 0.519670 0.454880 -0.506037
O5    O     O_R   0.094290 0.884230 0.921550 -0.456519
O6    O     O_R   0.168980 0.069410 0.926940 -0.452339
O7    O     O_R   0.358400 0.089990 0.927950 -0.538053
O8    O     O_R   0.544850 0.873850 0.939920 -0.513294
O9    O     O_R   0.536020 0.701900 0.936430 -0.498173
O10   O     O_R   0.277070 0.732810 0.932890 -0.491903
O11   O     O_3   0.339220 0.891590 0.991750 -0.255880
O12   O     O_R   0.811960 0.658090 0.547150 -0.488200
O13   O     O_R   0.045660 0.691380 0.441680 -0.497939
O14   O     O_R   0.811930 0.659460 0.430950 -0.487365
O15   O     O_R   0.757900 0.507620 0.421760 -0.497298
O16   O     O_R   0.988630 0.322990 0.439840 -0.490300
O17   O     O_R   0.196380 0.301720 0.573850 -0.484244
O18   O     O_R   0.199350 0.518300 0.571080 -0.483047
O19   O     O_R   0.045700 0.689900 0.567030 -0.473235
O20   O     O_3   0.985866 0.174996 0.839588 -0.502592
O21   O     O_3   0.872767 0.202504 0.732719 -0.566965
O22   O     O_3   0.948667 0.931792 0.831337 -0.531549
O23   O     O_R   0.757930 0.506140 0.547110 -0.531750
O24   O     O_3   0.355787 0.437480 0.662299 -0.540924
O25   O     O_3   0.063059 0.829627 0.643516 -0.580562
O26   O     O_R   0.988670 0.321620 0.556040 -0.513567
O27   O     O_3   0.000020 0.499990 0.500010 -0.256965
O28   O     O_R   0.113660 0.883270 0.047820 -0.508880
O29   O     O_R   0.186930 0.068530 0.043990 -0.506424
O30   O     O_R   0.377770 0.089040 0.054220 -0.494598
O31   O     O_R   0.562800 0.872960 0.056970 -0.485823

loop_
_geom_bond_atom_site_label_1
_geom_bond_atom_site_label_2
_ccdc_geom_bond_type
C50   O6    A    
C24   C52   S    
C38   O24   S    
C31   O20   S    
C8    C13   T    
C73   H32   S    
C35   C53   S    
C76   H39   S    
C72   O24   S    
C1    O4    A    
C61   H11   S    
C24   C27   A    
Cr1   O1    S    
C51   O8    A    
C17   H23   S    
Cr1   O4    S    
C64   H18   S    
C39   C41   A    
Cr2   O13   S    
Cr1   O27   S    
C48   C54   S    
C45   C57   A    
C37   C38   A    
C22   C32   A    
C3    H3    S    
Cr5   O31   S    
C19   C21   T    
C24   C26   A    
C40   O23   A    
C52   O26   A    
C30   C31   A    
Cr1   O17   S    
C11   C14   T    
C56   H1    S    
Cr2   O14   S    
C49   O3    A    
C29   C33   A    
C28   O19   A    
C17   C20   S    
C27   C29   A    
C71   H26   S    
C18   C19   S    
C41   C42   A    
C37   C42   A    
C9    C13   S    
C48   O31   A    
C69   H22   S    
Cr2   O19   S    
C45   C56   A    
Cr6   O9    S    
C72   H30   S    
C41   C46   A    
C70   C71   S    
C44   O22   S    
C15   C51   S    
Cr6   O3    S    
C35   C43   A    
C9    C10   D    
Cr3   O23   S    
C22   C50   S    
C62   H14   S    
C65   N2    T    
C33   H44   S    
C79   N5    T    
C10   H5    S    
C59   C60   S    
C1    O13   A    
C6    C81   T    
Cr6   O10   S    
C2    C6    S    
C67   C78   A    
C69   H21   S    
C44   C46   A    
C78   H2    S    
C52   O17   A    
C15   C20   T    
C54   C56   A    
C22   C31   A    
C67   C68   S    
Cr4   O6    S    
C76   C77   S    
C51   O9    A    
C63   H16   S    
C10   C11   S    
Cr5   O8    S    
C5    C7    T    
C72   C73   S    
C54   C67   A    
C58   N1    T    
C25   C26   A    
C63   C64   S    
C28   O18   A    
Cr4   O28   S    
C75   H37   S    
C71   H27   S    
C60   C61   S    
C75   H38   S    
C59   O20   S    
C16   O1    A    
C75   C76   S    
C29   C30   A    
C27   C65   S    
Cr5   O11   S    
C46   H47   S    
C66   N3    T    
C25   O21   S    
C23   C34   A    
C62   C63   S    
C17   C18   D    
C71   H28   S    
C34   C45   A    
C77   H42   S    
Cr4   O5    S    
C64   H19   S    
C35   C44   A    
C28   C36   S    
C77   H41   S    
C70   H25   S    
C12   C57   A    
C60   H9    S    
C7    C16   S    
C59   H7    S    
Cr6   O11   S    
C4    C55   S    
C23   C80   S    
C37   H46   S    
C40   O12   A    
C61   H13   S    
C18   H12   S    
C2    H4    S    
C4    O15   A    
C73   C74   S    
C47   O29   A    
C26   H45   S    
C64   H20   S    
C50   O7    A    
C25   C30   A    
C9    C58   S    
C73   H31   S    
C74   H35   S    
C16   O16   A    
C32   H34   S    
C36   C39   A    
C61   H10   S    
C69   O22   S    
C63   H17   S    
C3    C5    S    
Cr5   O7    S    
C47   O30   A    
Cr3   O16   S    
C23   C55   A    
Cr2   O12   S    
C74   H33   S    
Cr2   O27   S    
C72   H29   S    
Cr4   O29   S    
C32   C33   A    
C39   O25   S    
C36   C38   A    
C2    C3    D    
Cr4   O11   S    
Cr3   O26   S    
C34   C78   A    
C49   O28   A    
Cr1   O18   S    
Cr3   O15   S    
C62   O21   S    
C21   C40   S    
C43   C66   S    
C53   O5    A    
C74   H36   S    
C75   O25   S    
C77   H43   S    
C47   C81   S    
C69   C70   S    
C12   C55   A    
C70   H24   S    
Cr5   O30   S    
C60   H8    S    
C4    O14   A    
Cr3   O27   S    
C48   O2    A    
C80   N6    T    
C42   C43   A    
C53   O10   A    
C76   H40   S    
C57   H48   S    
C68   N4    T    
C1    C14   S    
C59   H6    S    
Cr6   O2    S    
C8    C49   S    
C12   C79   S    
C62   H15   S    
