data_mof_unit_64294.cif
_audit_creation_date              2012-12-10T17:15:47-0500
_audit_creation_method            fapswitch 2.2
_symmetry_space_group_name_H-M    P1
_symmetry_Int_Tables_number       1
_space_group_crystal_system       triclinic
_cell_length_a                    18.297121
_cell_length_b                    18.296478
_cell_length_c                    43.062309
_cell_angle_alpha                 90.000564
_cell_angle_beta                  89.999151
_cell_angle_gamma                 89.938161
_cell_volume                      14416.0844532

loop_
_atom_site_label
_atom_site_type_symbol
_atom_type_description
_atom_site_fract_x
_atom_site_fract_y
_atom_site_fract_z
_atom_type_partial_charge
C1    C     C_R   0.000003 0.499961 0.915716 1.001756
C2    C     C_R   0.499979 0.000000 0.915732 1.006606
C3    C     C_R   0.500001 0.999994 0.415735 1.023819
C4    C     C_R   0.999997 0.500000 0.415714 1.020946
C5    C     C_R   0.994256 0.566473 0.167347 -0.009203
C6    C     C_R   0.433350 0.998241 0.167384 -0.004849
C7    C     C_R   0.005316 0.433587 0.167360 -0.002217
C8    C     C_R   0.566636 0.001018 0.167389 -0.005180
C9    C     C_R   0.501901 0.066642 0.667384 -0.004856
C10   C     C_R   0.933517 0.504742 0.667363 -0.004467
C11   C     C_R   0.497883 0.933383 0.667385 -0.004521
C12   C     C_R   0.066495 0.494945 0.667356 -0.004803
C13   C     C_R   0.999764 0.500038 0.184017 0.013982
C14   C     C_R   0.499989 0.999604 0.184053 0.014693
C15   C     C_R   0.499870 0.000015 0.684049 0.012946
C16   C     C_R   0.000009 0.499811 0.684024 0.012610
C17   C     C_R   0.999905 0.500012 0.118457 -0.034092
C18   C     C_R   0.499999 0.999819 0.118478 -0.032554
C19   C     C_R   0.499962 0.000005 0.618477 -0.034023
C20   C     C_R   0.000001 0.499947 0.618461 -0.033314
C21   C     C_R   0.499814 0.000009 0.781431 0.477575
C22   C     C_R   0.000042 0.499697 0.781392 0.479294
C23   C     C_R   0.999818 0.500049 0.281384 0.482293
C24   C     C_R   0.499975 0.999720 0.281438 0.478902
C25   C     C_R   0.999759 0.500058 0.218368 0.242402
C26   C     C_R   0.499974 0.999621 0.218411 0.239445
C27   C     C_R   0.499847 0.000016 0.718405 0.240381
C28   C     C_R   0.000018 0.499765 0.718376 0.241303
C29   C     C_R   0.477509 0.062451 0.832399 0.544980
C30   C     C_R   0.936398 0.481266 0.832328 0.544121
C31   C     C_R   0.522123 0.937540 0.832387 0.547115
C32   C     C_R   0.063688 0.518146 0.832321 0.548585
C33   C     C_R   0.017804 0.563823 0.332316 0.552893
C34   C     C_R   0.437739 0.022706 0.332397 0.550031
C35   C     C_R   0.981982 0.436229 0.332316 0.552162
C36   C     C_R   0.562238 0.976953 0.332409 0.550209
C37   C     C_R   0.477668 0.062489 0.864818 0.544611
C38   C     C_R   0.936333 0.481456 0.864744 0.535532
C39   C     C_R   0.522060 0.937500 0.864804 0.517095
C40   C     C_R   0.063729 0.518113 0.864736 0.522964
C41   C     C_R   0.017748 0.563861 0.364731 0.536949
C42   C     C_R   0.437709 0.022667 0.364816 0.541523
C43   C     C_R   0.982141 0.436162 0.364731 0.537066
C44   C     C_R   0.562286 0.977144 0.364828 0.541732
C45   C     C_R   0.499907 1.000000 0.881400 -0.508516
C46   C     C_R   0.000018 0.499850 0.881355 -0.502242
C47   C     C_R   0.999968 0.500005 0.381349 -0.500304
C48   C     C_R   0.500002 0.999943 0.381407 -0.515543
C49   C     C_R   0.499807 0.000000 0.815790 -0.424840
C50   C     C_R   0.000044 0.499689 0.815735 -0.423457
C51   C     C_R   0.999865 0.500034 0.315727 -0.423979
C52   C     C_R   0.499984 0.999790 0.315799 -0.426937
C53   C     C_R   0.999982 0.500002 0.084208 0.855055
C54   C     C_R   0.500000 0.999957 0.084215 0.852309
C55   C     C_R   0.499996 0.000001 0.584215 0.834899
C56   C     C_R   1.000000 0.499994 0.584209 0.834677
C57   C     C_R   0.859805 0.639655 0.000124 0.901449
C58   C     C_R   0.360462 0.859649 0.000237 0.927688
C59   C     C_R   0.139617 0.359770 0.999791 0.949806
C60   C     C_R   0.640346 0.139527 0.999714 0.894475
C61   C     C_R   0.140363 0.639509 0.000251 0.897858
C62   C     C_R   0.639599 0.859754 0.000173 0.949612
C63   C     C_R   0.860442 0.359669 0.999729 0.928789
C64   C     C_R   0.359821 0.139669 0.999839 0.902751
C65   C     C_R   0.360283 0.140130 0.499856 0.930796
C66   C     C_R   0.860506 0.359614 0.500259 0.920332
C67   C     C_R   0.639717 0.859870 0.499855 0.930846
C68   C     C_R   0.139494 0.640386 0.500259 0.920278
C69   C     C_R   0.640387 0.139493 0.500261 0.917918
C70   C     C_R   0.140135 0.360286 0.499854 0.930494
C71   C     C_R   0.359613 0.860507 0.500261 0.917940
C72   C     C_R   0.859865 0.639714 0.499854 0.930527
C73   C     C_R   0.284223 0.607793 0.026879 0.429245
C74   C     C_R   0.251890 0.143618 0.949822 0.443939
C75   C     C_R   0.892126 0.215796 0.973094 0.452098
C76   C     C_R   0.644300 0.752248 0.050398 0.470525
C77   C     C_R   0.751786 0.643532 0.050111 0.422802
C78   C     C_R   0.784194 0.107826 0.973069 0.429293
C79   C     C_R   0.144322 0.252255 0.949566 0.478772
C80   C     C_R   0.392164 0.715753 0.026846 0.446821
C81   C     C_R   0.784771 0.107263 0.526307 0.418210
C82   C     C_R   0.750145 0.642036 0.450536 0.426774
C83   C     C_R   0.215229 0.892737 0.526309 0.418207
C84   C     C_R   0.249859 0.357963 0.450537 0.426862
C85   C     C_R   0.357898 0.249765 0.450507 0.439235
C86   C     C_R   0.107266 0.784777 0.526306 0.418257
C87   C     C_R   0.642109 0.750236 0.450506 0.439132
C88   C     C_R   0.892733 0.215224 0.526305 0.418285
C89   C     C_R   0.353354 0.593095 0.038905 0.460619
C90   C     C_R   0.200497 0.146628 0.925998 0.481327
C91   C     C_R   0.906871 0.146697 0.961053 0.481329
C92   C     C_R   0.647134 0.700534 0.074100 0.518544
C93   C     C_R   0.700400 0.646550 0.073938 0.462249
C94   C     C_R   0.853322 0.093133 0.961039 0.457734
C95   C     C_R   0.147181 0.200562 0.925855 0.525501
C96   C     C_R   0.406908 0.646653 0.038886 0.483565
C97   C     C_R   0.854161 0.092280 0.537991 0.480455
C98   C     C_R   0.697674 0.644050 0.427119 0.478759
C99   C     C_R   0.145838 0.907721 0.537993 0.480489
C100  C     C_R   0.302334 0.355949 0.427120 0.478409
C101  C     C_R   0.355918 0.302267 0.427102 0.489224
C102  C     C_R   0.092286 0.854170 0.537992 0.480913
C103  C     C_R   0.644091 0.697734 0.427100 0.489627
C104  C     C_R   0.907713 0.145831 0.537990 0.481010
C105  C     C_R   0.322640 0.732213 0.013675 -0.218228
C106  C     C_R   0.196214 0.251056 0.974216 -0.225327
C107  C     C_R   0.767727 0.177354 0.986261 -0.197555
C108  C     C_R   0.750927 0.695935 0.025652 -0.200882
C109  C     C_R   0.696173 0.751026 0.025739 -0.223076
C110  C     C_R   0.822606 0.232250 0.986271 -0.217381
C111  C     C_R   0.250991 0.195987 0.974295 -0.206510
C112  C     C_R   0.267758 0.677320 0.013687 -0.197655
C113  C     C_R   0.822954 0.231938 0.513412 -0.199547
C114  C     C_R   0.695187 0.750116 0.474699 -0.206128
C115  C     C_R   0.177045 0.768062 0.513412 -0.199538
C116  C     C_R   0.304816 0.249884 0.474700 -0.206088
C117  C     C_R   0.249917 0.304829 0.474707 -0.202876
C118  C     C_R   0.231940 0.822956 0.513414 -0.199365
C119  C     C_R   0.750086 0.695170 0.474707 -0.202899
C120  C     C_R   0.768059 0.177044 0.513413 -0.199363
C121  C     C_R   0.197824 0.694223 0.001243 -0.003475
C122  C     C_R   0.302235 0.194266 0.999051 -0.000742
C123  C     C_R   0.805712 0.302198 0.998721 -0.021549
C124  C     C_R   0.694293 0.802256 0.000968 -0.022952
C125  C     C_R   0.802190 0.694227 0.000902 -0.001371
C126  C     C_R   0.697793 0.194254 0.998707 -0.005150
C127  C     C_R   0.194338 0.302295 0.998986 -0.020968
C128  C     C_R   0.305744 0.802165 0.001229 -0.022537
C129  C     C_R   0.697880 0.194186 0.501263 -0.013024
C130  C     C_R   0.802392 0.694431 0.499068 -0.012318
C131  C     C_R   0.302120 0.805814 0.501263 -0.013022
C132  C     C_R   0.197607 0.305567 0.499068 -0.012349
C133  C     C_R   0.305561 0.197594 0.499067 -0.012944
C134  C     C_R   0.194185 0.697881 0.501260 -0.011849
C135  C     C_R   0.694440 0.802407 0.499066 -0.012917
C136  C     C_R   0.805815 0.302119 0.501260 -0.011858
C137  C     C_R   0.181644 0.764426 0.989778 -0.070441
C138  C     C_R   0.298714 0.244808 0.023626 -0.069736
C139  C     C_R   0.735497 0.318371 0.010175 -0.086975
C140  C     C_R   0.744735 0.798760 0.976357 -0.095163
C141  C     C_R   0.798658 0.744758 0.976323 -0.072017
C142  C     C_R   0.681604 0.264465 0.010163 -0.071127
C143  C     C_R   0.244815 0.298833 0.023584 -0.089084
C144  C     C_R   0.235536 0.818333 0.989768 -0.087233
C145  C     C_R   0.681508 0.264600 0.490081 -0.086298
C146  C     C_R   0.800139 0.746173 0.523214 -0.092116
C147  C     C_R   0.318493 0.735400 0.490080 -0.086299
C148  C     C_R   0.199858 0.253827 0.523214 -0.092203
C149  C     C_R   0.253827 0.199856 0.523215 -0.092262
C150  C     C_R   0.264597 0.681507 0.490078 -0.085312
C151  C     C_R   0.746171 0.800145 0.523214 -0.092195
C152  C     C_R   0.735403 0.318493 0.490079 -0.085314
C153  C     C_R   0.994504 0.565931 0.134890 -0.175887
C154  C     C_R   0.433893 0.998434 0.134924 -0.193942
C155  C     C_R   0.005207 0.434104 0.134903 -0.201552
C156  C     C_R   0.566103 0.001038 0.134928 -0.184747
C157  C     C_R   0.501847 0.066100 0.634923 -0.202060
C158  C     C_R   0.934046 0.504644 0.634905 -0.202068
C159  C     C_R   0.498028 0.933915 0.634925 -0.202421
C160  C     C_R   0.065960 0.495179 0.634899 -0.202340
H1    H     H_    0.989840 0.617238 0.122436 0.175678
H2    H     H_    0.382390 0.997046 0.122478 0.173271
H3    H     H_    0.009912 0.382787 0.122458 0.171217
H4    H     H_    0.617609 0.002485 0.122486 0.173116
H5    H     H_    0.503769 0.117588 0.622479 0.172022
H6    H     H_    0.882690 0.508851 0.622460 0.171450
H7    H     H_    0.496136 0.882424 0.622481 0.171983
H8    H     H_    0.117312 0.491017 0.622447 0.171462
N1    N     N_R   0.957338 0.452412 0.234398 -0.128586
N2    N     N_R   0.544820 0.954170 0.234449 -0.124734
N3    N     N_R   0.042206 0.547702 0.234387 -0.133673
N4    N     N_R   0.455129 0.045121 0.234426 -0.134625
N5    N     N_R   0.544910 0.954764 0.734434 -0.135198
N6    N     N_R   0.047281 0.542611 0.734406 -0.135234
N7    N     N_R   0.454768 0.045268 0.734429 -0.132926
N8    N     N_R   0.952766 0.456883 0.734396 -0.133294
N9    N     N_R   0.544850 0.954752 0.765335 -0.066129
N10   N     N_R   0.047306 0.542529 0.765305 -0.067319
N11   N     N_R   0.454797 0.045274 0.765331 -0.060889
N12   N     N_R   0.952763 0.456900 0.765296 -0.061595
N13   N     N_R   0.957415 0.452395 0.265298 -0.060372
N14   N     N_R   0.544829 0.954263 0.265352 -0.057701
N15   N     N_R   0.042185 0.547711 0.265286 -0.061216
N16   N     N_R   0.455120 0.045124 0.265327 -0.060462
O1    O     O_3   1.000000 0.500000 0.999980 -0.538138
O2    O     O_3   0.500000 0.000000 0.999980 -0.537489
O3    O     O_3   0.500000 1.000000 0.499980 -0.537671
O4    O     O_3   1.000000 0.500000 0.499980 -0.538642
O5    O     O_R   0.060770 0.500000 0.930660 -0.571449
O6    O     O_R   0.500000 0.060770 0.930660 -0.564563
O7    O     O_R   0.939230 0.500000 0.930660 -0.586649
O8    O     O_R   0.500000 0.939230 0.930660 -0.596043
O9    O     O_R   0.560770 1.000000 0.430660 -0.576802
O10   O     O_R   1.000000 0.560770 0.430660 -0.573467
O11   O     O_R   0.439230 1.000000 0.430660 -0.576740
O12   O     O_R   0.000000 0.439230 0.430660 -0.573545
O13   O     O_R   1.000000 0.560700 0.069300 -0.620019
O14   O     O_R   0.439300 1.000000 0.069300 -0.643575
O15   O     O_R   0.000000 0.439300 0.069300 -0.654781
O16   O     O_R   0.560700 1.000000 0.069300 -0.632884
O17   O     O_R   0.500000 0.060700 0.569300 -0.643491
O18   O     O_R   0.939300 0.500000 0.569300 -0.643559
O19   O     O_R   0.500000 0.939300 0.569300 -0.643514
O20   O     O_R   0.060700 0.500000 0.569300 -0.643545
O21   O     O_R   0.853840 0.585430 0.981810 -0.633518
O22   O     O_R   0.414570 0.853840 0.981810 -0.587701
O23   O     O_R   0.146160 0.414570 0.981810 -0.575725
O24   O     O_R   0.585430 0.146160 0.981810 -0.634599
O25   O     O_R   0.146160 0.585430 0.981810 -0.592229
O26   O     O_R   0.585430 0.853840 0.981810 -0.605658
O27   O     O_R   0.853840 0.414570 0.981810 -0.610618
O28   O     O_R   0.414570 0.146160 0.981810 -0.592323
O29   O     O_R   0.353840 0.085430 0.481810 -0.563522
O30   O     O_R   0.914570 0.353840 0.481810 -0.582476
O31   O     O_R   0.646160 0.914570 0.481810 -0.563446
O32   O     O_R   0.085430 0.646160 0.481810 -0.582449
O33   O     O_R   0.646160 0.085430 0.481810 -0.591135
O34   O     O_R   0.085430 0.353840 0.481810 -0.570621
O35   O     O_R   0.353840 0.914570 0.481810 -0.591100
O36   O     O_R   0.914570 0.646160 0.481810 -0.570539
O37   O     O_R   0.085460 0.353830 0.018160 -0.629944
O38   O     O_R   0.646170 0.085460 0.018160 -0.618732
O39   O     O_R   0.914540 0.646170 0.018160 -0.615793
O40   O     O_R   0.353830 0.914540 0.018160 -0.636678
O41   O     O_R   0.914540 0.353830 0.018160 -0.606853
O42   O     O_R   0.353830 0.085460 0.018160 -0.650716
O43   O     O_R   0.085460 0.646170 0.018160 -0.653621
O44   O     O_R   0.646170 0.914540 0.018160 -0.593023
O45   O     O_R   0.585460 0.853830 0.518160 -0.656079
O46   O     O_R   0.146170 0.585460 0.518160 -0.647615
O47   O     O_R   0.414540 0.146170 0.518160 -0.656013
O48   O     O_R   0.853830 0.414540 0.518160 -0.647582
O49   O     O_R   0.414540 0.853830 0.518160 -0.646290
O50   O     O_R   0.853830 0.585460 0.518160 -0.655271
O51   O     O_R   0.585460 0.146170 0.518160 -0.646267
O52   O     O_R   0.146170 0.414540 0.518160 -0.655204
Zn1   Zn    Zn3+2 1.000000 0.586740 0.025950 1.046706
Zn2   Zn    Zn3+2 0.413260 0.000000 0.025950 1.050647
Zn3   Zn    Zn3+2 1.000000 0.413260 0.025950 1.085552
Zn4   Zn    Zn3+2 0.586740 0.000000 0.025950 1.080175
Zn5   Zn    Zn3+2 0.500000 0.086740 0.525950 1.041964
Zn6   Zn    Zn3+2 0.913260 0.500000 0.525950 1.042006
Zn7   Zn    Zn3+2 0.500000 0.913260 0.525950 1.041899
Zn8   Zn    Zn3+2 0.086740 0.500000 0.525950 1.042014
Zn9   Zn    Zn3+2 0.913260 0.500000 0.974020 1.112693
Zn10  Zn    Zn3+2 0.500000 0.913260 0.974020 1.147453
Zn11  Zn    Zn3+2 0.086740 0.500000 0.974020 1.144557
Zn12  Zn    Zn3+2 0.500000 0.086740 0.974020 1.106779
Zn13  Zn    Zn3+2 0.413260 1.000000 0.474020 1.154521
Zn14  Zn    Zn3+2 1.000000 0.413260 0.474020 1.157557
Zn15  Zn    Zn3+2 0.586740 1.000000 0.474020 1.154534
Zn16  Zn    Zn3+2 0.000000 0.586740 0.474020 1.157663
C161  C     C_1   0.109512 0.780864 0.977398 0.190421
N17   N     N_1   0.052093 0.793912 0.967566 -0.143460
C162  C     C_1   0.351395 0.241676 0.048876 0.185892
N18   N     N_1   0.393323 0.239106 0.068971 -0.157359
C163  C     C_1   0.719020 0.390479 0.022577 0.211224
N19   N     N_1   0.705900 0.447862 0.032435 -0.070860
C164  C     C_1   0.741744 0.851721 0.951203 0.271359
N20   N     N_1   0.739298 0.893899 0.931198 -0.047942
C165  C     C_1   0.851356 0.741644 0.951079 0.200199
N21   N     N_1   0.893301 0.739091 0.930990 -0.137082
C166  C     C_1   0.609465 0.280910 0.022533 0.186639
N22   N     N_1   0.552039 0.293963 0.032358 -0.140258
C167  C     C_1   0.241896 0.351859 0.048714 0.243432
N23   N     N_1   0.239516 0.394091 0.068700 -0.085639
C168  C     C_1   0.219065 0.890438 0.977361 0.209689
N24   N     N_1   0.205952 0.947818 0.967500 -0.077968
C169  C     C_1   0.609198 0.281295 0.477946 0.204683
N25   N     N_1   0.551663 0.294601 0.468301 -0.093252
C170  C     C_1   0.854201 0.744336 0.547955 0.253033
N26   N     N_1   0.897240 0.742812 0.567641 -0.077970
C171  C     C_1   0.390802 0.718705 0.477945 0.204751
N27   N     N_1   0.448338 0.705399 0.468299 -0.093244
C172  C     C_1   0.145794 0.255665 0.547955 0.253232
N28   N     N_1   0.102753 0.257190 0.567641 -0.077366
C173  C     C_1   0.255657 0.145790 0.547955 0.253720
N29   N     N_1   0.257175 0.102748 0.567640 -0.076495
C174  C     C_1   0.281289 0.609200 0.477938 0.209717
N30   N     N_1   0.294596 0.551666 0.468288 -0.090062
C175  C     C_1   0.744339 0.854212 0.547955 0.253511
N31   N     N_1   0.742821 0.897256 0.567640 -0.076984
C176  C     C_1   0.718711 0.390800 0.477939 0.209715
N32   N     N_1   0.705405 0.448334 0.468290 -0.090094
F1    F     F_    0.233878 0.553645 0.029151 -0.634967
F2    F     F_    0.301242 0.088248 0.948664 -0.615075
F3    F     F_    0.946218 0.266152 0.970856 -0.575237
F4    F     F_    0.589797 0.802460 0.051947 -0.575170
F5    F     F_    0.801085 0.588112 0.051247 -0.628216
F6    F     F_    0.733851 0.053676 0.970799 -0.635603
F7    F     F_    0.089780 0.302428 0.948033 -0.569795
F8    F     F_    0.446265 0.766101 0.029078 -0.577077
F9    F     F_    0.734431 0.053130 0.528630 -0.635528
F10   F     F_    0.799861 0.587007 0.449249 -0.627980
F11   F     F_    0.265569 0.946870 0.528631 -0.635532
F12   F     F_    0.200142 0.412990 0.449249 -0.628058
F13   F     F_    0.412836 0.199954 0.449182 -0.620503
F14   F     F_    0.053131 0.734439 0.528626 -0.635851
F15   F     F_    0.587172 0.800048 0.449180 -0.620400
F16   F     F_    0.946867 0.265562 0.528625 -0.635828
F17   F     F_    0.368088 0.526425 0.051221 -0.545305
F18   F     F_    0.202174 0.096213 0.902901 -0.514548
F19   F     F_    0.973574 0.132009 0.948757 -0.525689
F20   F     F_    0.597160 0.702523 0.097366 -0.504937
F21   F     F_    0.702034 0.596097 0.097020 -0.532977
F22   F     F_    0.868057 0.026464 0.948720 -0.547269
F23   F     F_    0.097190 0.202531 0.902597 -0.491870
F24   F     F_    0.473614 0.631959 0.051176 -0.523114
F25   F     F_    0.869160 0.025335 0.549979 -0.521475
F26   F     F_    0.698560 0.592909 0.404304 -0.521568
F27   F     F_    0.130839 0.974665 0.549982 -0.521426
F28   F     F_    0.301451 0.407090 0.404306 -0.522152
F29   F     F_    0.407003 0.301319 0.404266 -0.517533
F30   F     F_    0.025342 0.869171 0.549979 -0.521431
F31   F     F_    0.593010 0.698683 0.404263 -0.516839
F32   F     F_    0.974656 0.130830 0.549977 -0.521344
C177  C     C_1   0.985717 0.635947 0.182902 0.238299
N33   N     N_1   0.978841 0.691615 0.195332 -0.105957
C178  C     C_1   0.363504 0.994113 0.182949 0.231162
N34   N     N_1   0.307537 0.990775 0.195388 -0.110757
C179  C     C_1   0.013773 0.364123 0.182930 0.226793
N35   N     N_1   0.020581 0.308463 0.195372 -0.111698
C180  C     C_1   0.636481 0.005015 0.182960 0.231494
N36   N     N_1   0.692447 0.008247 0.195404 -0.109147
C181  C     C_1   0.506603 0.136448 0.682952 0.222480
N37   N     N_1   0.510402 0.192383 0.695394 -0.116236
C182  C     C_1   0.863974 0.512532 0.682930 0.221407
N38   N     N_1   0.808250 0.518807 0.695370 -0.117656
C183  C     C_1   0.493135 0.863580 0.682953 0.222168
N39   N     N_1   0.489300 0.807648 0.695396 -0.117437
C184  C     C_1   0.136044 0.487088 0.682912 0.223449
N40   N     N_1   0.191771 0.480759 0.695344 -0.115378
F33   F     F_    0.456725 0.124302 0.817357 -0.547956
F34   F     F_    0.873447 0.464355 0.817265 -0.551542
F35   F     F_    0.542846 0.875681 0.817334 -0.553269
F36   F     F_    0.126656 0.534973 0.817252 -0.551035
F37   F     F_    0.034122 0.626932 0.317251 -0.546582
F38   F     F_    0.376075 0.043996 0.317346 -0.545359
F39   F     F_    0.965619 0.373133 0.317250 -0.547225
F40   F     F_    0.623893 0.955593 0.317367 -0.544499
F41   F     F_    0.454980 0.123639 0.879892 -0.534226
F42   F     F_    0.873828 0.462749 0.879764 -0.543236
F43   F     F_    0.544757 0.876335 0.879863 -0.556269
F44   F     F_    0.126234 0.536862 0.879744 -0.551007
F45   F     F_    0.035961 0.626529 0.379738 -0.542902
F46   F     F_    0.376782 0.045963 0.379885 -0.533070
F47   F     F_    0.963973 0.373482 0.379739 -0.543062
F48   F     F_    0.623221 0.953913 0.379908 -0.532793

loop_
_geom_bond_atom_site_label_1
_geom_bond_atom_site_label_2
_ccdc_geom_bond_type
C24   N16   A    
C34   C42   A    
C17   C153  A    
C104  F32   S    
C11   C159  A    
C90   C95   A    
C4    O10   A    
C61   O43   A    
N3    N15   A    
O47   Zn5   S    
C2    O8    A    
O21   Zn9   S    
C138  C143  A    
C151  C175  S    
C139  C142  A    
C1    C46   S    
C130  C146  A    
C74   F2    S    
C170  N26   T    
C3    C48   S    
C119  C130  A    
C108  C109  A    
C30   C38   A    
O4    Zn16  S    
C117  C132  A    
C118  C131  A    
O13   Zn1   S    
O49   Zn7   S    
C12   C16   A    
C84   C117  A    
C98   F26   S    
C5    C13   A    
C152  C176  S    
O1    Zn11  S    
C25   N3    A    
O41   Zn3   S    
C21   N9    A    
C26   N4    A    
C20   C158  A    
C92   F20   S    
O31   Zn15  S    
O34   Zn14  S    
C95   F23   S    
C136  C152  A    
C78   F6    S    
C5    C177  S    
C180  N36   T    
C84   C100  A    
C147  C150  A    
C29   F33   S    
C140  C141  A    
C82   F10   S    
C116  C133  A    
C106  C127  A    
C3    O11   A    
C153  H1    S    
C143  C167  S    
C19   C157  A    
C40   C46   A    
C65   O29   A    
C110  C123  A    
C113  C120  A    
C15   C27   S    
C115  C118  A    
C55   O19   A    
C127  C143  A    
C14   C26   S    
C128  C144  A    
C66   C136  S    
C105  C112  A    
O36   Zn16  S    
C35   C51   A    
O7    Zn9   S    
C107  C110  A    
O48   Zn6   S    
C36   C44   A    
C144  C168  S    
C142  C166  S    
C37   C45   A    
C138  C162  S    
C17   C155  A    
C18   C156  A    
O38   Zn4   S    
C57   O39   A    
O3    Zn5   S    
C4    O12   A    
C141  C165  S    
C85   C116  A    
C2    O6    A    
O23   Zn11  S    
C115  C134  A    
O6    Zn12  S    
C53   O13   A    
C74   C90   A    
C89   C96   A    
C9    C15   A    
C19   C159  A    
C10   C16   A    
C91   C94   A    
C102  F30   S    
C78   C94   A    
C159  H7    S    
C160  H8    S    
O3    Zn15  S    
O46   Zn8   S    
C7    C13   A    
C67   O45   A    
C69   C129  S    
C179  N35   T    
C94   F22   S    
O12   Zn14  S    
C64   O28   A    
C43   C47   A    
C43   F47   S    
C44   C48   A    
C58   C128  S    
C7    C179  S    
C20   C56   S    
C62   C124  S    
C63   O41   A    
C29   C49   A    
C3    O9    A    
O37   Zn3   S    
O44   Zn4   S    
C57   C125  S    
C165  N21   T    
C100  F28   S    
C59   C127  S    
O18   Zn6   S    
C123  C139  A    
C103  F31   S    
C61   C121  S    
C163  N19   T    
C121  C137  A    
C88   C113  A    
C150  C174  S    
O51   Zn5   S    
C85   F13   S    
C125  C141  A    
C76   C109  A    
C131  C147  A    
C149  C173  S    
C55   O17   A    
C35   C43   A    
C10   C158  A    
C114  C119  A    
C36   C52   A    
C75   C91   A    
C39   C45   A    
C91   F19   S    
C173  N29   T    
N2    N14   A    
C111  C122  A    
C11   C15   A    
C36   F40   S    
C88   C104  A    
C68   O46   A    
C106  C111  A    
C2    C45   S    
C62   O26   A    
C72   O36   A    
C120  C129  A    
C53   O15   A    
O39   Zn1   S    
C157  H5    S    
C80   F8    S    
C155  H3    S    
C33   F37   S    
C79   C106  A    
C86   C115  A    
O3    Zn13  S    
O4    Zn14  S    
O24   Zn12  S    
C23   N15   A    
C6    C14   A    
C21   N11   A    
C70   C132  S    
C41   C47   A    
C42   C48   A    
C26   N2    A    
C147  C171  S    
O50   Zn6   S    
C37   F41   S    
C137  C144  A    
C76   C92   A    
C20   C160  A    
O26   Zn10  S    
C86   C102  A    
O2    Zn10  S    
C73   C112  A    
C59   O23   A    
C75   C110  A    
C129  C145  A    
C154  H2    S    
C77   C108  A    
C63   O27   A    
O15   Zn3   S    
C168  N24   T    
O5    Zn11  S    
C44   F48   S    
C10   C182  S    
O27   Zn9   S    
C69   O51   A    
C112  C121  A    
C28   N6    A    
O1    Zn3   S    
O40   Zn2   S    
C62   O44   A    
C100  C101  A    
C71   O49   A    
C38   C46   A    
C145  C152  A    
C71   C131  S    
C146  C151  A    
N8    N12   A    
C75   F3    S    
C176  N32   T    
C76   F4    S    
O33   Zn15  S    
C164  N20   T    
C4    C47   S    
C1    O5    A    
C24   C52   S    
C82   C98   A    
O4    Zn6   S    
C172  N28   T    
C166  N22   T    
C69   O33   A    
C146  C170  S    
O22   Zn10  S    
C23   N13   A    
C58   O22   A    
C98   C103  A    
C71   O35   A    
O14   Zn2   S    
C99   F27   S    
C174  N30   T    
C31   F35   S    
C88   F16   S    
N6    N10   A    
O28   Zn12  S    
C22   C50   S    
C30   C50   A    
C83   C99   A    
C169  N25   T    
C82   C119  A    
C31   C49   A    
C56   O18   A    
O2    Zn12  S    
O20   Zn8   S    
C65   O47   A    
C30   F34   S    
C122  C138  A    
O3    Zn7   S    
C27   N7    A    
C74   C111  A    
C58   O40   A    
C28   N8    A    
C86   F14   S    
C126  C142  A    
C78   C107  A    
C66   O30   A    
C67   C135  S    
C184  N40   T    
O16   Zn4   S    
C79   C95   A    
C90   F18   S    
C39   F43   S    
C70   O52   A    
C12   C160  A    
N1    N13   A    
C6    C154  A    
O2    Zn4   S    
C1    O7    A    
C22   N12   A    
O4    Zn8   S    
C17   C53   S    
C158  H6    S    
C19   C55   S    
C70   O34   A    
C124  C140  A    
C60   O24   A    
C60   O38   A    
C63   C123  S    
C84   F12   S    
C33   C51   A    
C34   C52   A    
C33   C41   A    
C68   C134  S    
C73   C89   A    
C182  N38   T    
C161  N17   T    
C135  C151  A    
C139  C163  S    
C77   C93   A    
C92   C93   A    
C181  N37   T    
C68   O32   A    
C97   C104  A    
C178  N34   T    
C73   F1    S    
C99   C102  A    
C7    C155  A    
O35   Zn13  S    
C29   C37   A    
C79   F7    S    
C42   F46   S    
O43   Zn1   S    
C6    C178  S    
C16   C28   S    
C97   F25   S    
O42   Zn2   S    
C140  C164  S    
C66   O48   A    
C32   F36   S    
C183  N39   T    
C67   O31   A    
C22   N10   A    
C27   N5    A    
C64   O42   A    
O17   Zn5   S    
C81   C120  A    
C83   C118  A    
C77   F5    S    
O45   Zn7   S    
C5    C153  A    
O19   Zn7   S    
C134  C150  A    
C57   O21   A    
C54   O16   A    
C116  C117  A    
C145  C169  S    
C81   F9    S    
C87   C114  A    
C59   O37   A    
O2    Zn2   S    
C83   F11   S    
C72   O50   A    
C113  C136  A    
O30   Zn14  S    
O8    Zn10  S    
C114  C135  A    
C9    C157  A    
C108  C125  A    
C80   C96   A    
C167  N23   T    
O25   Zn11  S    
C40   F44   S    
C32   C40   A    
C13   C25   S    
O1    Zn1   S    
C24   N14   A    
C132  C148  A    
C133  C149  A    
C148  C149  A    
C8    C180  S    
C12   C184  S    
N7    N11   A    
C34   F38   S    
C175  N31   T    
C80   C105  A    
C61   O25   A    
C41   F45   S    
N4    N16   A    
C23   C51   S    
N5    N9    A    
O32   Zn16  S    
C171  N27   T    
C148  C172  S    
O29   Zn13  S    
C32   C50   A    
C38   F42   S    
C101  F29   S    
C21   C49   S    
C9    C181  S    
C87   C103  A    
C162  N18   T    
C85   C101  A    
O1    Zn9   S    
C25   N1    A    
C93   F21   S    
C8    C14   A    
C105  C128  A    
C107  C126  A    
C18   C154  A    
C109  C124  A    
C72   C130  S    
C56   O20   A    
C89   F17   S    
C54   O14   A    
C87   F15   S    
O52   Zn8   S    
C60   C126  S    
C96   F24   S    
C81   C97   A    
C64   C122  S    
O11   Zn13  S    
C31   C39   A    
O10   Zn16  S    
O9    Zn15  S    
C177  N33   T    
C8    C156  A    
C137  C161  S    
C18   C54   S    
C156  H4    S    
C11   C183  S    
C35   F39   S    
C65   C133  S    
