data_mof_unit_36822.cif
_audit_creation_date              2012-10-26T19:09:30-0400
_audit_creation_method            fapswitch 2.2
_symmetry_space_group_name_H-M    P1
_symmetry_Int_Tables_number       1
_space_group_crystal_system       triclinic
_cell_length_a                    10.780781
_cell_length_b                    9.518917
_cell_length_c                    19.31869
_cell_angle_alpha                 89.93418
_cell_angle_beta                  90.125777
_cell_angle_gamma                 89.944275
_cell_volume                      1982.5032047

loop_
_atom_site_label
_atom_site_type_symbol
_atom_type_description
_atom_site_fract_x
_atom_site_fract_y
_atom_site_fract_z
_atom_type_partial_charge
C1    C     C_R   0.262589 0.500044 0.500016 0.500948
C2    C     C_R   0.065182 0.546551 0.559610 0.001582
C3    C     C_R   0.871324 0.499912 0.499993 -0.068488
C4    C     C_R   0.128475 0.500078 0.500004 -0.071981
C5    C     C_R   0.424479 0.074618 0.456089 0.037775
C6    C     C_R   0.575499 0.925386 0.543919 0.038418
C7    C     C_R   0.575499 0.074221 0.543915 0.036662
C8    C     C_R   0.424485 0.925781 0.456091 0.040259
C9    C     C_R   0.526733 0.623662 0.254817 -0.075066
C10   C     C_R   0.475548 0.376269 0.745298 -0.081707
C11   C     C_R   0.528146 0.623347 0.745072 -0.073999
C12   C     C_R   0.737352 0.499955 0.499987 0.506815
C13   C     C_R   0.473828 0.376665 0.254820 -0.081045
C14   C     C_R   0.528520 0.625292 0.182294 0.014102
C15   C     C_R   0.474633 0.374663 0.817828 0.012693
C16   C     C_R   0.530079 0.625023 0.817596 0.018569
C17   C     C_R   0.472803 0.375007 0.182291 0.016128
C18   C     C_R   0.500924 0.500124 0.145749 -0.021845
C19   C     C_R   0.502462 0.499909 0.854258 -0.021213
C20   C     C_R   0.500184 0.500150 0.291217 -0.043743
C21   C     C_R   0.501387 0.499840 0.708785 -0.040744
C22   C     C_2   0.136309 0.397078 0.380449 0.307295
C23   C     C_R   0.502253 0.500156 0.930148 0.272696
C24   C     C_2   0.863794 0.566191 0.625780 0.294424
C25   C     C_2   0.863131 0.434312 0.374113 0.302698
C26   C     C_2   0.136920 0.602397 0.619696 0.323566
C27   C     C_2   0.562701 0.757387 0.145649 0.291106
C28   C     C_2   0.440996 0.242535 0.854604 0.289215
C29   C     C_2   0.564340 0.757127 0.854134 0.294385
C30   C     C_2   0.438871 0.242946 0.145617 0.294137
C31   C     C_R   0.501393 0.500113 0.069861 0.272772
C32   C     C_R   0.500065 0.500065 0.367339 0.524158
C33   C     C_R   0.500526 0.499932 0.632661 0.525177
C34   C     C_R   0.064874 0.453403 0.440416 0.003610
C35   C     C_R   0.934887 0.539566 0.560826 0.000963
C36   C     C_R   0.934562 0.460435 0.439153 0.003239
Cu1   Cu    Cu3+1 0.500000 0.640660 0.500000 0.965988
Cu2   Cu    Cu3+1 0.500000 0.359340 0.500000 0.962949
H1    H     H_    0.548174 0.718736 0.283199 0.187857
H2    H     H_    0.773286 0.615792 0.623875 0.108221
H3    H     H_    0.772381 0.385523 0.375911 0.125445
H4    H     H_    0.226648 0.558050 0.632882 0.108056
H5    H     H_    0.571215 0.760061 0.089766 0.138296
H6    H     H_    0.433140 0.239847 0.910517 0.138162
H7    H     H_    0.572626 0.759912 0.910045 0.137719
H8    H     H_    0.431239 0.240178 0.089679 0.137221
H9    H     H_    0.453912 0.281141 0.717006 0.186699
H10   H     H_    0.549540 0.718402 0.716601 0.179035
H11   H     H_    0.451982 0.281632 0.283202 0.183385
H12   H     H_    0.363960 0.130882 0.420923 0.137069
H13   H     H_    0.635993 0.869128 0.579097 0.119580
H14   H     H_    0.635992 0.130163 0.579089 0.134138
H15   H     H_    0.363981 0.869840 0.420923 0.132297
H16   H     H_    0.225975 0.441131 0.367270 0.099829
N1    N     N_R   0.500000 0.852070 0.500000 -0.228952
N2    N     N_R   0.500000 0.147930 0.500000 -0.232821
N3    N     N_R   0.589065 0.427124 0.034741 -0.202234
N4    N     N_R   0.414607 0.573171 0.965270 -0.204280
N5    N     N_R   0.589485 0.427136 0.965887 -0.203426
N6    N     N_R   0.414189 0.573161 0.034120 -0.206097
O1    O     O_R   0.319640 0.618740 0.500000 -0.496385
O2    O     O_2   0.903349 0.527236 0.681887 -0.439830
O3    O     O_2   0.902663 0.472867 0.318045 -0.437923
O4    O     O_2   0.098855 0.702217 0.653157 -0.433184
O5    O     O_2   0.582890 0.865585 0.177653 -0.442388
O6    O     O_2   0.420511 0.134315 0.822677 -0.440838
O7    O     O_2   0.584892 0.865182 0.822013 -0.444355
O8    O     O_2   0.417877 0.134896 0.177653 -0.442497
O9    O     O_R   0.680360 0.381260 0.500000 -0.503997
O10   O     O_R   0.680360 0.618740 0.500000 -0.503480
O11   O     O_R   0.319640 0.381260 0.500000 -0.497447
O12   O     O_R   0.499980 0.618820 0.400140 -0.499473
O13   O     O_R   0.500020 0.381180 0.599860 -0.498104
O14   O     O_R   0.500020 0.618820 0.599860 -0.510915
O15   O     O_R   0.499980 0.381180 0.400140 -0.513560
O16   O     O_2   0.098105 0.297112 0.347110 -0.443324

loop_
_geom_bond_atom_site_label_1
_geom_bond_atom_site_label_2
_ccdc_geom_bond_type
C2    C35   A    
C23   N4    A    
Cu1   O14   S    
C14   C18   A    
C5    N2    A    
C28   O6    D    
C22   O16   D    
C6    N1    A    
C12   O9    A    
C32   O15   A    
C22   H16   S    
C23   N5    A    
C1    O11   A    
C7    H14   S    
C10   C15   A    
N3    N5    A    
C21   C33   S    
N4    N6    A    
C9    H1    S    
C25   O3    D    
C26   O4    D    
C3    C12   S    
C15   C19   A    
C14   C27   S    
Cu2   O9    S    
C29   O7    D    
Cu1   O10   S    
C17   C30   S    
C11   H10   S    
C7    N2    A    
C8    N1    A    
Cu2   O15   S    
C10   C21   A    
C22   C34   S    
C4    C34   A    
C24   C35   S    
C32   O12   A    
C25   H3    S    
C19   C23   S    
C16   C29   S    
C11   C21   A    
C29   H7    S    
C31   N6    A    
C2    C4    A    
C9    C14   A    
Cu1   Cu2   S    
C27   O5    D    
C11   C16   A    
C9    C20   A    
C3    C35   A    
C17   C18   A    
C2    C26   S    
C13   H11   S    
C33   O13   A    
C6    H13   S    
C5    H12   S    
C26   H4    S    
C20   C32   S    
C12   O10   A    
Cu2   O11   S    
C24   O2    D    
C13   C20   A    
C30   H8    S    
C1    O1    A    
C8    H15   S    
C5    C8    A    
Cu1   O1    S    
C6    C7    A    
C13   C17   A    
C1    C4    S    
C31   N3    A    
C15   C28   S    
C3    C36   A    
C16   C19   A    
C24   H2    S    
C28   H6    S    
C34   C36   A    
C25   C36   S    
Cu1   N1    S    
C27   H5    S    
C33   O14   A    
Cu2   N2    S    
Cu1   O12   S    
C10   H9    S    
C18   C31   S    
C30   O8    D    
Cu2   O13   S    
