data_mof_unit_63234.cif
_audit_creation_date              2012-12-11T14:27:22-0500
_audit_creation_method            fapswitch 2.2
_symmetry_space_group_name_H-M    P1
_symmetry_Int_Tables_number       1
_space_group_crystal_system       triclinic
_cell_length_a                    8.219504
_cell_length_b                    14.900664
_cell_length_c                    15.094564
_cell_angle_alpha                 97.492943
_cell_angle_beta                  98.910408
_cell_angle_gamma                 98.055313
_cell_volume                      1786.39346777

loop_
_atom_site_label
_atom_site_type_symbol
_atom_type_description
_atom_site_fract_x
_atom_site_fract_y
_atom_site_fract_z
_atom_type_partial_charge
Ba1   Ba    Ba6+2 0.154720 0.543770 0.458160 1.703693
Ba2   Ba    Ba6+2 0.655440 0.456220 0.541760 1.749611
C1    C     C_3   0.349486 0.764526 0.125281 -0.372173
C2    C     C_R   0.892602 0.792495 0.523185 0.061011
C3    C     C_R   0.072613 0.236671 0.532813 0.142694
C4    C     C_3   0.919502 0.787142 0.268154 0.343744
C5    C     C_R   0.174728 0.174410 0.562223 0.028905
C6    C     C_R   0.114050 0.080665 0.546022 -0.197672
C7    C     C_R   0.948362 0.046146 0.502273 0.005180
C8    C     C_R   0.851391 0.109076 0.463864 -0.088349
C9    C     C_R   0.877591 0.950776 0.493899 0.021209
C10   C     C_R   0.710603 0.920222 0.447041 -0.028191
C11   C     C_R   0.622479 0.982675 0.406277 -0.100497
C12   C     C_3   0.382232 0.738186 0.219628 0.353038
C13   C     C_R   0.692534 0.074119 0.412672 -0.029139
C14   C     C_R   0.964907 0.885211 0.533140 -0.132767
C15   C     C_R   0.729649 0.764524 0.476715 -0.290411
C16   C     C_3   0.938595 0.882235 0.240816 -0.365073
C17   C     C_R   0.915585 0.205305 0.478043 0.001969
C18   C     C_R   0.225547 0.470660 0.768010 -0.165714
C19   C     C_R   0.128186 0.431540 0.825453 -0.016254
C20   C     C_R   0.196578 0.434747 0.917980 -0.046775
C21   C     C_R   0.356835 0.490106 0.955952 0.034952
C22   C     C_R   0.445043 0.533682 0.894954 -0.064748
C23   C     C_3   0.591484 0.736127 0.678221 0.305903
C24   C     C_R   0.383956 0.520473 0.801764 0.051968
C25   C     C_R   0.605712 0.542446 0.087711 -0.054030
C26   C     C_R   0.674652 0.557420 0.180415 0.031848
C27   C     C_R   0.413769 0.489118 0.214769 0.042597
C28   C     C_3   0.695029 0.321586 0.256915 0.456033
C29   C     C_R   0.338543 0.485791 0.124540 -0.115985
C30   C     C_R   0.433497 0.506323 0.056797 0.034643
C31   C     C_R   0.579345 0.529078 0.243201 -0.286187
C32   C     C_3   0.661230 0.282164 0.155484 0.945886
C33   C     C_3   0.068397 0.664454 0.742395 0.343280
C34   C     C_3   0.637817 0.839759 0.704591 -0.394587
C35   C     C_3   0.058856 0.692595 0.842144 0.138865
C36   C     C_3   0.187950 0.258047 0.312868 0.716534
C37   C     C_3   0.082588 0.169827 0.256833 -0.339447
C38   C     C_2   0.104813 0.372135 0.968206 0.790192
C39   C     C_3   0.943445 0.209497 0.763460 0.261403
C40   C     C_3   0.842189 0.116773 0.718661 -0.321919
C41   C     C_3   0.397232 0.192650 0.775388 0.973661
C42   C     C_3   0.497847 0.174556 0.864479 0.269100
C43   C     C_R   0.635988 0.827385 0.441360 -0.004580
H1    H     H_    0.298303 0.672956 0.219482 0.082998
H2    H     H_    0.164694 0.125400 0.227255 0.121926
H3    H     H_    0.514236 0.727679 0.234288 -0.066450
H4    H     H_    0.373672 0.709248 0.074506 0.068130
H5    H     H_    0.702035 0.708627 0.659324 0.004792
H6    H     H_    0.488106 0.721291 0.618866 0.062387
H7    H     H_    0.744592 0.856910 0.762159 0.120955
H8    H     H_    0.673931 0.871088 0.646260 0.059149
H9    H     H_    0.529561 0.869030 0.724861 0.122274
H10   H     H_    0.433113 0.829165 0.122783 0.119994
H11   H     H_    0.927841 0.934052 0.298620 0.076571
H12   H     H_    0.192427 0.646205 0.736799 -0.032970
H13   H     H_    0.019206 0.235308 0.714292 0.038749
H14   H     H_    0.027480 0.199003 0.824809 0.094861
H15   H     H_    0.761105 0.124230 0.654954 0.144985
H16   H     H_    0.926801 0.067756 0.701827 0.110173
H17   H     H_    0.764072 0.088123 0.765225 0.109667
H18   H     H_    0.605438 0.230858 0.888887 0.131340
H19   H     H_    0.017965 0.787798 0.327692 0.099719
H20   H     H_    0.548401 0.109298 0.852870 -0.055083
H21   H     H_    0.672598 0.693654 0.471705 0.070694
H22   H     H_    0.497185 0.961954 0.368497 0.111565
H23   H     H_    0.970144 0.604416 0.713817 0.066422
H24   H     H_    0.088206 0.903977 0.573301 0.085579
H25   H     H_    0.200672 0.036442 0.567147 0.084458
H26   H     H_    0.617339 0.117073 0.378044 0.135384
H27   H     H_    0.689939 0.558368 0.041826 0.083986
H28   H     H_    0.206363 0.465274 0.110033 0.134435
H29   H     H_    0.794787 0.772102 0.287503 -0.058149
H30   H     H_    0.560951 0.580260 0.918116 0.048204
H31   H     H_    0.635998 0.534565 0.313750 0.065316
H32   H     H_    0.174691 0.466084 0.696791 0.086490
H33   H     H_    0.062742 0.899529 0.221295 0.143695
H34   H     H_    0.163796 0.749055 0.873105 0.056070
H35   H     H_    0.839373 0.884441 0.182510 0.117135
H36   H     H_    0.575937 0.328087 0.280379 -0.039334
H37   H     H_    0.776585 0.389723 0.269009 -0.051351
H38   H     H_    0.579901 0.162648 0.079805 0.329412
H39   H     H_    0.439924 0.310517 0.119811 0.328925
H40   H     H_    0.788752 0.268113 0.057748 0.327902
H41   H     H_    0.061919 0.640898 0.952823 0.311437
H42   H     H_    0.264404 0.183381 0.402708 0.243378
H43   H     H_    0.286673 0.066061 0.736625 0.255426
H44   H     H_    0.288822 0.283307 0.837299 0.295853
H45   H     H_    0.938552 0.717653 0.846778 0.070791
H46   H     H_    0.332748 0.108354 0.921530 0.312100
H47   H     H_    0.185122 0.346282 0.504430 0.310954
H48   H     H_    0.103950 0.263207 0.034650 0.324580
H49   H     H_    0.104706 0.297705 0.346872 -0.047707
H50   H     H_    0.217534 0.774394 0.107866 0.142808
H51   H     H_    0.993816 0.186520 0.200695 0.160665
H52   H     H_    0.010266 0.131230 0.300094 0.032392
O1    O     O_2   0.174040 0.723040 0.553850 -0.458077
O2    O     O_2   0.786319 0.437408 0.815924 -0.401200
O3    O     O_3   0.835623 0.268619 0.791153 -0.585615
O4    O     O_3   0.901550 0.609570 0.550800 -0.501611
O5    O     O_3   0.408230 0.452130 0.390190 -0.482002
O6    O     O_2   0.675480 0.547140 0.721810 -0.462600
O7    O     O_3   0.541866 0.698408 0.752218 -0.647796
O8    O     O_2   0.497953 0.175417 0.536486 -0.490410
O9    O     O_3   0.497199 0.186220 0.707810 -0.615086
O10   O     O_3   0.370320 0.665070 0.388210 -0.495160
O11   O     O_2   0.297645 0.826619 0.451024 -0.494065
O12   O     O_3   0.264887 0.306716 0.253256 -0.625853
O13   O     O_3   0.048143 0.740244 0.698551 -0.678955
O14   O     O_3   0.349444 0.807971 0.283318 -0.607112
O15   O     O_2   0.134800 0.452800 0.278160 -0.457491
O16   O     O_3   0.937630 0.618610 0.340820 -0.498808
O17   O     O_2   0.013342 0.557777 0.180118 -0.467801
O18   O     O_3   0.590045 0.188681 0.144614 -0.728421
O19   O     O_3   0.552851 0.330491 0.106882 -0.733714
O20   O     O_3   0.813852 0.291072 0.123917 -0.721231
O21   O     O_3   0.068076 0.617956 0.888879 -0.766466
O22   O     O_3   0.312461 0.237223 0.377665 -0.712978
O23   O     O_3   0.936953 0.722456 0.195097 -0.611910
O24   O     O_3   0.251488 0.126764 0.750078 -0.814860
O25   O     O_3   0.356569 0.281307 0.788633 -0.742764
O26   O     O_3   0.398120 0.171201 0.931818 -0.710156
O27   O     O_3   0.129747 0.328983 0.555005 -0.709313
O28   O     O_2   0.965595 0.383117 0.981775 -0.573684
O29   O     O_R   0.178128 0.301059 0.000742 -0.733535
O30   O     O_2   0.636250 0.276900 0.446120 -0.413131
O31   O     O_3   0.908740 0.390420 0.449120 -0.468003
O32   O     O_3   0.439970 0.334920 0.611710 -0.386665
O33   O     O_3   0.774238 0.259563 0.302136 -0.661408
O34   O     O_3   0.402050 0.547860 0.609740 -0.479937
O35   O     O_3   0.872650 0.381380 0.659100 -0.450776
P1    P     P_3+3 0.004160 0.709210 0.580280 0.968917
P2    P     P_3+3 0.305010 0.425580 0.290930 1.020362
P3    P     P_3+3 0.891129 0.612307 0.222974 0.969021
P4    P     P_3+3 0.806120 0.290780 0.419650 1.022729
P5    P     P_3+3 0.908363 0.380561 0.775474 1.075316
P6    P     P_3+3 0.413854 0.783393 0.392459 0.930943
P7    P     P_3+3 0.500182 0.578683 0.723881 0.965239
P8    P     P_3+3 0.398917 0.215906 0.606308 1.088960

loop_
_geom_bond_atom_site_label_1
_geom_bond_atom_site_label_2
_ccdc_geom_bond_type
C2    C14   A    
C26   P3    S    
C39   C40   S    
Ba1   O31   S    
C19   P5    S    
C23   H6    S    
C1    H4    S    
C5    C6    A    
C12   H1    S    
C35   H34   S    
O1    P1    D    
C15   H21   S    
C35   H45   S    
C37   H52   S    
C33   H23   S    
C33   C35   S    
C15   C43   A    
C39   H13   S    
C32   O18   S    
C8    C13   A    
O31   P4    S    
Ba1   O15   S    
C36   C37   S    
C29   H28   S    
H44   O25   S    
Ba2   O5    S    
C32   O19   S    
C27   C31   A    
Ba2   O32   S    
Ba1   Ba2   S    
C4    H19   S    
H48   O29   S    
C34   H8    S    
C23   H5    S    
C1    H10   S    
C35   O21   S    
C6    C7    A    
Ba2   O35   S    
O17   P3    D    
C7    C8    A    
C41   O24   S    
C34   H7    S    
C16   H11   S    
Ba2   O30   S    
C32   O20   S    
C27   P2    S    
C25   C30   A    
C38   O29   S    
H39   O19   S    
H46   O26   S    
C19   C20   A    
C42   H20   S    
Ba1   O16   S    
Ba1   P1    S    
C4    O23   S    
C4    H29   S    
C42   H18   S    
C12   O14   S    
C4    C16   S    
C28   C32   S    
H38   O18   S    
O34   P7    S    
O30   P4    D    
C39   H14   S    
C24   P7    S    
C40   H15   S    
C3    C5    A    
H43   O24   S    
C12   H3    S    
Ba2   O4    S    
C17   P4    S    
C28   O33   S    
C41   O25   S    
Ba2   P4    S    
C41   O9    S    
C28   H37   S    
C41   C42   S    
O5    P2    S    
H42   O22   S    
O6    P7    D    
C9    C14   A    
C31   H31   S    
O9    P8    S    
C29   C30   A    
C3    O27   S    
C8    C17   A    
C16   H33   S    
C20   C38   S    
C36   H49   S    
Ba2   O34   S    
C39   O3    S    
H41   O21   S    
C22   H30   S    
C10   C11   A    
C36   O12   S    
H40   O20   S    
C7    C9    A    
C40   H16   S    
C33   O13   S    
Ba1   O10   S    
C36   O22   S    
C18   H32   S    
C26   C31   A    
O4    P1    S    
C11   C13   A    
C2    C15   A    
Ba1   P2    S    
Ba1   O4    S    
C37   H2    S    
C11   H22   S    
C40   H17   S    
C21   C22   A    
O12   P2    S    
O33   P4    S    
C14   H24   S    
C22   C24   A    
C10   C43   A    
Ba1   O34   S    
Ba1   O1    S    
C9    C10   A    
C23   O7    S    
C3    C17   A    
C1    C12   S    
C13   H26   S    
C42   O26   S    
C6    H25   S    
O7    P7    S    
C33   H12   S    
O23   P3    S    
C21   C30   S    
O10   P6    S    
H47   O27   S    
O35   P5    S    
C27   C29   A    
O8    P8    D    
O11   P6    D    
C5    P8    S    
O32   P8    S    
C18   C24   A    
Ba2   O6    S    
C28   H36   S    
C38   O28   D    
O15   P2    D    
C43   P6    S    
C37   H51   S    
C34   H9    S    
O3    P5    S    
C23   C34   S    
C18   C19   A    
C16   H35   S    
O16   P3    S    
C25   C26   A    
C20   C21   A    
O2    P5    D    
O13   P1    S    
C1    H50   S    
Ba1   O5    S    
C25   H27   S    
O14   P6    S    
C2    P1    S    
Ba2   O31   S    
