data_mof_unit_52463.cif
_audit_creation_date              2012-12-11T14:30:14-0500
_audit_creation_method            fapswitch 2.2
_symmetry_space_group_name_H-M    P1
_symmetry_Int_Tables_number       1
_space_group_crystal_system       triclinic
_cell_length_a                    12.746508
_cell_length_b                    12.821138
_cell_length_c                    27.264388
_cell_angle_alpha                 90.030922
_cell_angle_beta                  90.080863
_cell_angle_gamma                 119.913149
_cell_volume                      3862.09292753

loop_
_atom_site_label
_atom_site_type_symbol
_atom_type_description
_atom_site_fract_x
_atom_site_fract_y
_atom_site_fract_z
_atom_type_partial_charge
C1    C     C_R   0.563555 0.455708 0.823699 0.535686
C2    C     C_R   0.454473 0.558606 0.178049 0.546899
C3    C     C_R   0.075251 0.343362 0.485581 0.142715
C4    C     C_R   0.391545 0.110758 0.041662 0.141982
C5    C     C_R   0.580219 0.720617 0.491716 0.137878
C6    C     C_R   0.273877 0.920162 0.537788 0.126579
C7    C     C_R   0.887180 0.263870 0.990520 0.143396
C8    C     C_R   0.541042 0.692862 0.540187 0.143017
C9    C     C_R   0.377808 0.114333 0.990610 0.144180
C10   C     C_R   0.064867 0.347823 0.536849 0.127771
C11   C     C_R   0.736749 0.625215 0.990418 0.157088
C12   C     C_1   0.883394 0.333150 0.147972 0.269275
C13   C     C_R   0.435909 0.891766 0.323753 0.538589
C14   C     C_1   0.228130 0.855514 0.382754 0.293530
C15   C     C_1   0.667455 0.550156 0.147703 0.235148
C16   C     C_1   0.153042 0.385180 0.385131 0.289366
C17   C     C_1   0.449613 0.115632 0.148111 0.270413
C18   C     C_1   0.622575 0.762658 0.387573 0.289332
C19   C     C_1   0.315210 0.922159 0.645602 0.258383
C20   C     C_1   0.854241 0.232084 0.884625 0.289986
C21   C     C_1   0.572049 0.670134 0.644441 0.271121
C22   C     C_1   0.378898 0.147503 0.884802 0.290713
C23   C     C_1   0.098129 0.427779 0.641138 0.242779
C24   C     C_R   0.103915 0.545628 0.178106 0.544261
C25   C     C_1   0.768454 0.623743 0.884547 0.290414
C26   C     C_3   0.929139 0.141116 0.088946 -0.297920
C27   C     C_3   0.125043 0.975914 0.452942 -0.310064
C28   C     C_3   0.849222 0.793454 0.091502 -0.296130
C29   C     C_3   0.983106 0.154271 0.442736 -0.304626
C30   C     C_3   0.212560 0.074452 0.088683 -0.297993
C31   C     C_3   0.795493 0.833949 0.489110 -0.309417
C32   C     C_3   0.104587 0.756298 0.578182 -0.290104
C33   C     C_3   0.962342 0.136878 0.960347 -0.308983
C34   C     C_3   0.382686 0.713128 0.578821 -0.290813
C35   C     C_R   0.986849 0.481169 0.977342 0.010717
C36   C     C_3   0.175359 0.038767 0.960127 -0.310685
C37   C     C_3   0.193171 0.285220 0.579977 -0.275557
C38   C     C_3   0.869610 0.825737 0.960981 -0.309109
C39   C     C_R   0.492703 0.021238 0.526602 -0.010741
C40   C     C_R   0.518453 0.506523 0.977181 0.010217
C41   C     C_R   0.963350 0.463976 0.524653 -0.005616
C42   C     C_R   0.494881 0.013203 0.977275 0.010415
C43   C     C_R   0.497915 0.489067 0.526775 -0.001036
C44   C     C_R   0.476998 0.000269 0.475611 0.006722
C45   C     C_R   0.891450 0.438095 0.677061 0.546394
C46   C     C_R   0.005724 0.498159 0.028394 0.003440
C47   C     C_R   0.495355 0.506532 0.475821 0.011548
C48   C     C_R   0.491946 0.993317 0.028265 -0.000279
C49   C     C_R   0.988817 0.473712 0.474191 0.006855
C50   C     C_R   0.501693 0.508974 0.028231 0.002403
C51   C     C_R   0.114688 0.697121 0.964583 -0.125590
C52   C     C_R   0.710578 0.142395 0.514100 -0.135087
C53   C     C_R   0.301077 0.416749 0.964354 -0.124842
C54   C     C_R   0.832899 0.549790 0.511346 -0.133298
C55   C     C_R   0.582648 0.884497 0.964269 -0.125608
C56   C     C_R   0.544392 0.107906 0.823743 0.536305
C57   C     C_R   0.438507 0.280162 0.512083 -0.129755
C58   C     C_R   0.694501 0.119911 0.463948 -0.122769
C59   C     C_R   0.138791 0.713279 0.014746 -0.133166
C60   C     C_R   0.426729 0.295012 0.461851 -0.117099
C61   C     C_R   0.573209 0.859111 0.014306 -0.141706
C62   C     C_R   0.865547 0.567534 0.461787 -0.128590
C63   C     C_R   0.285124 0.425623 0.014447 -0.142292
C64   C     C_R   0.006921 0.567770 0.895612 -0.126365
C65   C     C_R   0.628110 0.108856 0.596028 -0.146304
C66   C     C_R   0.431060 0.438928 0.895447 -0.125736
C67   C     C_R   0.560342 0.452685 0.677183 0.540635
C68   C     C_R   0.863272 0.495467 0.593716 -0.168618
C69   C     C_R   0.561599 0.992966 0.895492 -0.125602
C70   C     C_R   0.487766 0.364255 0.594961 -0.162234
C71   C     C_R   0.566649 0.009090 0.395313 -0.127939
C72   C     C_R   0.108322 0.630838 0.096808 -0.154803
C73   C     C_R   0.445544 0.425432 0.392823 -0.124093
C74   C     C_R   0.520294 0.889007 0.096434 -0.154541
C75   C     C_R   0.983809 0.555632 0.393873 -0.128507
C76   C     C_R   0.368598 0.479158 0.096529 -0.154863
C77   C     C_R   0.052236 0.532951 0.129093 -0.028414
C78   C     C_R   0.891852 0.436109 0.823751 0.535260
C79   C     C_R   0.451989 0.936013 0.375506 -0.028705
C80   C     C_R   0.467127 0.520624 0.128904 -0.014610
C81   C     C_R   0.061485 0.517676 0.375107 -0.028873
C82   C     C_R   0.479668 0.946257 0.128894 -0.021874
C83   C     C_R   0.483031 0.541045 0.374498 -0.026010
C84   C     C_R   0.529017 0.057938 0.627882 -0.021447
C85   C     C_R   0.933829 0.453195 0.876006 -0.030218
C86   C     C_R   0.523443 0.462361 0.627286 -0.031848
C87   C     C_R   0.520181 0.066505 0.876007 -0.029860
C88   C     C_R   0.929427 0.464109 0.625901 -0.032621
C89   C     C_R   0.545434 0.105392 0.677720 0.542074
C90   C     C_R   0.546297 0.480740 0.875907 -0.029567
C91   C     C_R   0.036401 0.582316 0.945646 0.028580
C92   C     C_R   0.611031 0.090009 0.545725 -0.005380
C93   C     C_R   0.416549 0.453950 0.945465 0.029820
C94   C     C_R   0.884842 0.502115 0.543272 0.000807
C95   C     C_R   0.546571 0.963427 0.945489 0.029041
C96   C     C_R   0.474127 0.376857 0.544748 -0.002605
C97   C     C_R   0.579604 0.043332 0.444743 0.026263
C98   C     C_R   0.082645 0.615061 0.046827 0.007917
C99   C     C_R   0.455890 0.408318 0.443202 0.028903
C100  C     C_R   0.457196 0.561584 0.322932 0.539234
C101  C     C_R   0.530604 0.914989 0.046498 -0.005071
C102  C     C_R   0.946099 0.532874 0.443062 0.023264
C103  C     C_R   0.384216 0.469051 0.046565 -0.004465
C104  C     C_R   0.902695 0.350393 0.906508 -0.027455
C105  C     C_R   0.411335 0.984661 0.609810 -0.019825
C106  C     C_R   0.649704 0.553197 0.906417 -0.027188
C107  C     C_R   0.012441 0.432742 0.607483 -0.010905
C108  C     C_R   0.448833 0.098462 0.906608 -0.027440
C109  C     C_R   0.536193 0.570870 0.610232 -0.031183
C110  C     C_R   0.347658 0.909947 0.404803 -0.024946
C111  C     C_R   0.441536 0.895791 0.178011 0.545312
C112  C     C_R   0.962806 0.420634 0.112134 -0.014518
C113  C     C_R   0.547682 0.641912 0.406596 -0.030006
C114  C     C_R   0.457382 0.036242 0.112109 -0.010583
C115  C     C_R   0.090441 0.443685 0.405297 -0.029637
C116  C     C_R   0.580155 0.544164 0.111965 -0.010509
C117  C     C_R   0.924295 0.363683 0.957881 -0.015498
C118  C     C_R   0.391092 0.972462 0.558454 -0.019304
C119  C     C_R   0.636469 0.561727 0.957750 -0.019367
C120  C     C_R   0.017882 0.417684 0.556611 -0.018704
C121  C     C_R   0.440535 0.076783 0.957939 -0.014913
C122  C     C_R   0.107192 0.544212 0.323483 0.537431
C123  C     C_R   0.523206 0.584219 0.559587 -0.014132
C124  C     C_R   0.359786 0.939865 0.455379 -0.014801
C125  C     C_R   0.949174 0.398771 0.060996 -0.008855
C126  C     C_R   0.542548 0.624354 0.457698 -0.011161
C127  C     C_R   0.449542 0.050454 0.060994 -0.006869
C128  C     C_R   0.053828 0.421272 0.454890 -0.014486
C129  C     C_R   0.601958 0.552758 0.060898 -0.016491
C130  C     C_R   0.890289 0.280990 0.041579 0.141715
C131  C     C_R   0.258968 0.911481 0.486570 0.136443
C132  C     C_R   0.720155 0.613621 0.041357 0.142108
Cr1   Cr    Cr6+3 0.487630 0.241180 0.750000 1.066396
Cr2   Cr    Cr6+3 0.753550 0.512370 0.750000 1.065399
Cr3   Cr    Cr6+3 0.758820 0.246450 0.750000 1.068751
Cr4   Cr    Cr6+3 0.241180 0.487630 0.250000 1.055663
Cr5   Cr    Cr6+3 0.512370 0.753550 0.250000 1.055681
Cr6   Cr    Cr6+3 0.246450 0.758820 0.250000 1.057025
H1    H     H_    0.176273 0.718570 0.110284 0.139558
H2    H     H_    0.603852 0.957201 0.871535 0.144503
H3    H     H_    0.797264 0.517393 0.608035 0.138229
H4    H     H_    0.352766 0.396169 0.871531 0.144624
H5    H     H_    0.199910 0.802950 0.028533 0.115861
H6    H     H_    0.771605 0.161951 0.439950 0.113068
H7    H     H_    0.194938 0.396718 0.028164 0.116587
H8    H     H_    0.828152 0.608530 0.438047 0.113647
H9    H     H_    0.600940 0.797115 0.027914 0.117080
H10   H     H_    0.397884 0.218786 0.437478 0.113510
H11   H     H_    0.801082 0.198840 0.528277 0.129110
H12   H     H_    0.645688 0.039841 0.372177 0.143309
H13   H     H_    0.156669 0.774450 0.940555 0.112713
H14   H     H_    0.417550 0.192695 0.525554 0.126343
H15   H     H_    0.618097 0.842398 0.940164 0.113369
H16   H     H_    0.771572 0.578430 0.525130 0.117990
H17   H     H_    0.223156 0.380702 0.940295 0.112984
H18   H     H_    0.757597 0.111186 0.067059 0.259664
H19   H     H_    0.918269 0.122026 0.128861 0.171813
H20   H     H_    0.024586 0.211634 0.081964 0.141977
H21   H     H_    0.909379 0.057172 0.069501 0.112132
H22   H     H_    0.068324 0.809025 0.483904 0.259530
H23   H     H_    0.280379 0.459050 0.109971 0.138980
H24   H     H_    0.040608 0.939185 0.431078 0.155130
H25   H     H_    0.200817 0.041536 0.429756 0.165330
H26   H     H_    0.117366 0.021942 0.486075 0.118205
H27   H     H_    0.859757 0.631468 0.089223 0.269977
H28   H     H_    0.942357 0.862893 0.081028 0.127309
H29   H     H_    0.843547 0.789395 0.132109 0.167299
H30   H     H_    0.784470 0.820474 0.077266 0.139806
H31   H     H_    0.140400 0.221455 0.484654 0.259724
H32   H     H_    0.003606 0.089764 0.424561 0.150136
H33   H     H_    0.948210 0.189230 0.413622 0.163093
H34   H     H_    0.951309 0.601071 0.370058 0.146999
H35   H     H_    0.913004 0.108866 0.471259 0.134409
H36   H     H_    0.355194 0.244070 0.067152 0.260111
H37   H     H_    0.204206 0.084785 0.128646 0.171880
H38   H     H_    0.186769 0.979260 0.081278 0.143913
H39   H     H_    0.148913 0.095826 0.069337 0.111887
H40   H     H_    0.684418 0.906353 0.499834 0.257917
H41   H     H_    0.873587 0.923439 0.481659 0.128210
H42   H     H_    0.800311 0.769269 0.463500 0.152589
H43   H     H_    0.803131 0.809347 0.527531 0.140870
H44   H     H_    0.115617 0.917817 0.558148 0.253074
H45   H     H_    0.539524 0.820558 0.109788 0.138908
H46   H     H_    0.023309 0.734822 0.600305 0.166390
H47   H     H_    0.160750 0.727290 0.598621 0.158547
H48   H     H_    0.078651 0.705116 0.543615 0.146088
H49   H     H_    0.793920 0.075336 0.991780 0.265347
H50   H     H_    0.932020 0.054714 0.938018 0.148120
H51   H     H_    0.008500 0.131605 0.993945 0.125625
H52   H     H_    0.027985 0.214143 0.937956 0.155467
H53   H     H_    0.547987 0.855367 0.556396 0.261442
H54   H     H_    0.370463 0.757309 0.611331 0.162813
H55   H     H_    0.341837 0.616211 0.588064 0.154527
H56   H     H_    0.408988 0.349369 0.367915 0.140635
H57   H     H_    0.333645 0.722022 0.546830 0.139049
H58   H     H_    0.280368 0.206292 0.991949 0.265225
H59   H     H_    0.124421 0.067809 0.936322 0.150200
H60   H     H_    0.122375 0.995108 0.993603 0.126858
H61   H     H_    0.188273 0.971920 0.939098 0.154464
H62   H     H_    0.013509 0.172734 0.558263 0.249919
H63   H     H_    0.194616 0.262267 0.619083 0.188277
H64   H     H_    0.261548 0.381527 0.574418 0.166651
H65   H     H_    0.217495 0.227392 0.558187 0.122516
H66   H     H_    0.925214 0.714732 0.992677 0.284049
H67   H     H_    0.718444 0.167877 0.610214 0.147809
H68   H     H_    0.947038 0.872147 0.935634 0.151908
H69   H     H_    0.886739 0.880296 0.994714 0.128518
H70   H     H_    0.788798 0.817417 0.941924 0.151437
H71   H     H_    0.042252 0.645504 0.871734 0.145043
H72   H     H_    0.476130 0.279635 0.608548 0.141482
N1    N     N_1   0.819966 0.263995 0.176687 -0.273627
N2    N     N_1   0.319715 0.182060 0.866793 -0.280555
N3    N     N_1   0.166392 0.425594 0.668575 -0.300925
N4    N     N_1   0.861951 0.682898 0.866449 -0.281374
N5    N     N_2   0.844810 0.179310 0.073368 -0.509146
N6    N     N_2   0.142590 0.877154 0.466761 -0.516097
N7    N     N_2   0.823945 0.678149 0.071895 -0.525265
N8    N     N_2   0.091559 0.250514 0.464696 -0.513516
N9    N     N_2   0.335631 0.157063 0.073466 -0.509574
N10   N     N_2   0.683270 0.835015 0.482108 -0.506892
N11   N     N_2   0.170708 0.883850 0.568157 -0.514637
N12   N     N_1   0.133672 0.816148 0.364677 -0.280168
N13   N     N_2   0.858126 0.148154 0.972627 -0.503586
N14   N     N_2   0.510733 0.767988 0.567936 -0.508767
N15   N     N_2   0.290158 0.142822 0.972716 -0.504055
N16   N     N_2   0.072901 0.261314 0.567200 -0.520718
N17   N     N_2   0.854047 0.708904 0.972697 -0.496629
N18   N     N_1   0.736171 0.554000 0.176488 -0.291080
N19   N     N_1   0.196709 0.332814 0.368633 -0.276544
N20   N     N_1   0.444125 0.179024 0.176960 -0.272205
N21   N     N_1   0.685088 0.858303 0.372309 -0.286674
N22   N     N_1   0.240552 0.873792 0.674889 -0.275397
N23   N     N_1   0.820067 0.138881 0.866581 -0.279774
N24   N     N_1   0.600584 0.749003 0.671737 -0.262954
O1    O     O_R   0.460870 0.120930 0.805240 -0.499573
O2    O     O_R   0.120930 0.460870 0.194760 -0.508955
O3    O     O_R   0.539130 0.660060 0.305240 -0.501913
O4    O     O_R   0.339940 0.879070 0.194760 -0.509914
O5    O     O_R   0.498910 0.350470 0.801870 -0.479373
O6    O     O_R   0.851560 0.501090 0.698130 -0.502144
O7    O     O_R   0.649530 0.148440 0.801870 -0.479243
O8    O     O_R   0.498910 0.350470 0.698130 -0.501323
O9    O     O_R   0.851560 0.501090 0.801870 -0.478690
O10   O     O_R   0.649530 0.148440 0.698130 -0.499858
O11   O     O_R   0.350470 0.498910 0.301870 -0.476899
O12   O     O_R   0.660060 0.539130 0.694760 -0.502958
O13   O     O_R   0.501090 0.851560 0.198130 -0.501549
O14   O     O_R   0.148440 0.649530 0.301870 -0.479349
O15   O     O_R   0.350470 0.498910 0.198130 -0.501886
O16   O     O_R   0.501090 0.851560 0.301870 -0.480417
O17   O     O_R   0.148440 0.649530 0.198130 -0.501752
O18   O     O_3   0.666667 0.333333 0.750000 -0.278793
O19   O     O_3   0.333333 0.666667 0.250000 -0.271841
O20   O     O_R   0.879070 0.339940 0.805240 -0.500433
O21   O     O_R   0.460870 0.120930 0.694760 -0.502822
O22   O     O_R   0.660060 0.539130 0.805240 -0.498862
O23   O     O_R   0.879070 0.339940 0.694760 -0.497138
O24   O     O_R   0.120930 0.460870 0.305240 -0.502555
O25   O     O_R   0.539130 0.660060 0.194760 -0.510349
O26   O     O_R   0.339940 0.879070 0.305240 -0.503437

loop_
_geom_bond_atom_site_label_1
_geom_bond_atom_site_label_2
_ccdc_geom_bond_type
C34   H57   S    
C65   C92   A    
C56   O7    A    
C13   C79   S    
C28   N7    S    
C106  C119  A    
C83   C113  A    
C46   C125  A    
C70   C96   A    
C36   H61   S    
Cr2   O18   S    
Cr3   O18   S    
C60   C99   A    
C11   C119  A    
C11   C132  A    
Cr1   O21   S    
C71   C79   A    
Cr5   O16   S    
C31   H42   S    
C89   O21   A    
C66   C90   A    
C21   N24   T    
C72   C98   A    
C1    O5    A    
C13   O16   A    
C71   C97   A    
C36   N15   S    
C38   H70   S    
C32   H47   S    
H40   N10   S    
C25   N4    T    
C13   O26   A    
C36   H60   S    
C31   N10   S    
C18   N21   T    
C27   H24   S    
Cr5   O13   S    
C67   O12   A    
C40   C50   A    
C5    N10   S    
C65   H67   S    
C48   C101  A    
H22   N6    S    
C57   H14   S    
C55   C61   A    
C16   N19   T    
C47   C99   A    
C26   H19   S    
C33   H51   S    
C132  N7    S    
Cr1   O1    S    
C30   H38   S    
C7    C117  A    
C7    C130  A    
C100  O11   A    
C28   H29   S    
C51   C91   A    
C125  C130  A    
C122  O24   A    
C72   H1    S    
C116  C129  A    
C80   C116  A    
C52   H11   S    
C67   C86   S    
C57   C96   A    
C22   N2    T    
C5    C126  A    
C17   C114  S    
C75   C102  A    
C9    C121  A    
C37   H64   S    
C56   O1    A    
Cr6   O4    S    
C29   H32   S    
Cr6   O19   S    
C19   N22   T    
C108  C121  A    
C69   C87   A    
C1    O22   A    
H27   N7    S    
Cr4   O15   S    
C6    N11   S    
C27   H25   S    
C76   C103  A    
H31   N8    S    
C46   C98   A    
C51   H13   S    
C50   C103  A    
C41   C120  A    
C73   H56   S    
C31   H43   S    
C110  C124  A    
C100  O3    A    
C76   H23   S    
C58   C97   A    
C74   C82   A    
C18   C113  S    
C41   C49   A    
C67   O8    A    
C34   N14   S    
C25   C106  S    
C32   N11   S    
Cr5   O25   S    
Cr6   O26   S    
C10   C120  A    
Cr3   O23   S    
C111  O4    A    
C54   C94   A    
C38   H69   S    
C87   C108  A    
C53   C93   A    
C42   C95   A    
C78   O20   A    
Cr4   O19   S    
C26   H21   S    
C86   C109  A    
C2    C80   S    
C36   H59   S    
C82   C114  A    
C55   C95   A    
Cr6   O17   S    
C2    O15   A    
C49   C102  A    
C88   C107  A    
C3    C128  A    
C109  C123  A    
C65   C84   A    
C42   C48   A    
C113  C126  A    
C54   C62   A    
C44   C124  A    
C68   C94   A    
C115  C128  A    
C124  C131  A    
C31   H41   S    
C33   H52   S    
Cr3   O10   S    
C77   C112  A    
C61   C101  A    
C38   N17   S    
C72   C77   A    
C24   O2    A    
C50   C129  A    
C27   H26   S    
C7    N13   S    
C44   C97   A    
C30   H37   S    
C41   C94   A    
C40   C93   A    
C4    N9    S    
C23   C107  S    
C1    C90   S    
C81   C115  A    
H18   N5    S    
C43   C96   A    
C37   H65   S    
C89   O10   A    
C130  N5    S    
C8    C123  A    
H62   N16   S    
C29   H33   S    
H66   N17   S    
Cr1   O18   S    
C90   C106  A    
C112  C125  A    
C85   C104  A    
C52   C58   A    
C66   H4    S    
C74   C101  A    
C20   C104  S    
C45   C88   S    
C33   N13   S    
C34   H55   S    
C63   C103  A    
C37   N16   S    
C53   H17   S    
C83   C100  S    
C66   C93   A    
Cr4   O24   S    
C27   N6    S    
C68   C88   A    
C64   H71   S    
C35   C117  A    
C51   C59   A    
C84   C89   S    
C70   C86   A    
C16   C115  S    
C43   C123  A    
C39   C92   A    
C12   C112  S    
C2    O25   A    
C78   C85   S    
C47   C126  A    
C122  O14   A    
C104  C117  A    
C23   N3    T    
C73   C99   A    
C49   C128  A    
H58   N15   S    
C29   N8    S    
H44   N11   S    
C38   H68   S    
C79   C110  A    
C131  N6    S    
C56   C87   S    
Cr2   O6    S    
C14   N12   T    
C24   O17   A    
C75   C81   A    
C76   C80   A    
C12   N1    T    
C29   H35   S    
C6    C131  A    
C69   C95   A    
C8    N14   S    
C54   H16   S    
C5    C8    A    
C21   C109  S    
C17   N20   T    
Cr1   O8    S    
C45   O23   A    
C39   C44   A    
C74   H45   S    
C28   H28   S    
C39   C118  A    
Cr1   O5    S    
Cr2   O12   S    
C15   N18   T    
C78   O9    A    
C64   C91   A    
C32   H48   S    
C81   C122  S    
C82   C111  S    
C129  C132  A    
C34   H54   S    
C14   C110  S    
C61   H9    S    
C4    C127  A    
Cr2   O22   S    
C64   C85   A    
C3    C10   A    
C11   N17   S    
C48   C127  A    
C114  C127  A    
C53   C63   A    
Cr3   O7    S    
H49   N13   S    
C69   H2    S    
C3    N8    S    
C22   C108  S    
C84   C105  A    
Cr4   O2    S    
C30   H39   S    
C63   H7    S    
Cr4   O11   S    
C26   H20   S    
C33   H50   S    
C107  C120  A    
Cr3   O20   S    
Cr5   O3    S    
C105  C118  A    
Cr2   O9    S    
C45   O6    A    
Cr6   O14   S    
C28   H30   S    
C59   H5    S    
C55   H15   S    
C71   H12   S    
C58   H6    S    
C24   C77   S    
C57   C60   A    
C40   C119  A    
C19   C105  S    
C111  O13   A    
C20   N23   T    
C62   H8    S    
C75   H34   S    
C10   N16   S    
C59   C98   A    
C37   H63   S    
C15   C116  S    
C26   N5    S    
C9    N15   S    
H36   N9    S    
C60   H10   S    
C70   H72   S    
C32   H46   S    
C4    C9    A    
C35   C46   A    
C43   C47   A    
H53   N14   S    
C73   C83   A    
C52   C92   A    
Cr5   O19   S    
C68   H3    S    
C42   C121  A    
C6    C118  A    
C30   N9    S    
C62   C102  A    
C35   C91   A    
