data_mof_unit_40958.cif
_audit_creation_date              2013-03-05T16:12:49-0500
_audit_creation_method            fapswitch 2.2
_symmetry_space_group_name_H-M    P1
_symmetry_Int_Tables_number       1
_space_group_crystal_system       triclinic
_cell_length_a                    10.719179
_cell_length_b                    9.824082
_cell_length_c                    27.704696
_cell_angle_alpha                 88.982094
_cell_angle_beta                  89.836375
_cell_angle_gamma                 89.919157
_cell_volume                      2916.99831182

loop_
_atom_site_label
_atom_site_type_symbol
_atom_site_description
_atom_site_fract_x
_atom_site_fract_y
_atom_site_fract_z
_atom_type_partial_charge
O1    O     O_R   0.316770 0.614620 0.500000 -0.618706
O2    O     O_R   0.683230 0.385380 0.500000 -0.618700
O3    O     O_R   0.683230 0.614620 0.500000 -0.637365
O4    O     O_R   0.316770 0.385380 0.500000 -0.637363
C1    C     C_R   0.259821 0.500055 0.499995 0.903543
C2    C     C_R   0.740179 0.499945 0.500004 0.903567
O5    O     O_R   0.500030 0.614650 0.428760 -0.582881
O6    O     O_R   0.499970 0.385350 0.571240 -0.582893
O7    O     O_R   0.499970 0.614650 0.571240 -0.623655
O8    O     O_R   0.500030 0.385350 0.428760 -0.623663
C3    C     C_R   0.496429 0.501349 0.406049 0.932648
C4    C     C_R   0.503573 0.498650 0.593951 0.932663
Zn1   Zn    Zn3+2 0.500000 0.653120 0.500000 0.996759
Zn2   Zn    Zn3+2 0.500000 0.346880 0.500000 0.996754
C5    C     C_R   0.385031 0.521737 0.177154 0.586484
C6    C     C_R   0.614983 0.478197 0.822845 0.586489
O9    O     O_2   0.278033 0.508831 0.202581 -0.462578
O10   O     O_2   0.721979 0.491156 0.797420 -0.462577
N1    N     N_R   0.496382 0.522399 0.201130 -0.355160
N2    N     N_R   0.503633 0.477527 0.798868 -0.355160
C7    C     C_R   0.607522 0.530419 0.177131 0.546509
C8    C     C_R   0.392493 0.469464 0.822866 0.546512
C9    C     C_R   0.549372 0.406607 0.277355 -0.056588
C10   C     C_R   0.450617 0.593339 0.722649 -0.056576
C11   C     C_R   0.546843 0.400958 0.327472 -0.235447
C12   C     C_R   0.453145 0.599008 0.672532 -0.235462
C13   C     C_R   0.431522 0.615439 0.328462 0.299891
C14   C     C_R   0.568522 0.384564 0.671532 0.299890
C15   C     C_R   0.438462 0.621808 0.278218 -0.137438
C16   C     C_R   0.561584 0.378173 0.721775 -0.137446
C17   C     C_R   0.496059 0.517498 0.252704 0.213028
C18   C     C_R   0.503958 0.482454 0.747295 0.213020
C19   C     C_R   0.496525 0.526190 0.101134 -0.089004
C20   C     C_R   0.503488 0.473663 0.898865 -0.089010
C21   C     C_R   0.382326 0.531369 0.126384 -0.183759
C22   C     C_R   0.617688 0.468519 0.873614 -0.183753
C23   C     C_R   0.270599 0.551902 0.100351 0.269978
C24   C     C_R   0.729415 0.447975 0.899646 0.269978
C25   C     C_R   0.609845 0.530340 0.126757 -0.025174
C26   C     C_R   0.390170 0.469509 0.873241 -0.025174
C27   C     C_R   0.489656 0.505468 0.353402 -0.173125
C28   C     C_R   0.510356 0.494525 0.646597 -0.173113
H1    H     H_    0.395230 0.705716 0.258606 0.197937
H2    H     H_    0.604837 0.294271 0.741382 0.197945
C29   C     C_R   0.386326 0.495157 0.974294 0.093842
C30   C     C_R   0.613686 0.504657 0.025705 0.093850
C31   C     C_R   0.615732 0.478603 0.975510 -0.094331
C32   C     C_R   0.384279 0.521220 0.024488 -0.094345
C33   C     C_R   0.502098 0.483398 0.949698 0.062207
C34   C     C_R   0.497914 0.516431 0.050300 0.062206
C35   C     C_R   0.275986 0.470434 0.948265 -0.094447
C36   C     C_R   0.724029 0.529365 0.051733 -0.094453
C37   C     C_R   0.277423 0.461560 0.898434 -0.069156
C38   C     C_R   0.722592 0.538254 0.101564 -0.069170
O11   O     O_2   0.284731 0.462032 0.797943 -0.504867
O12   O     O_2   0.715287 0.537839 0.202053 -0.504866
C39   C     C_R   0.273583 0.558717 0.049615 0.172925
C40   C     C_R   0.726429 0.441118 0.950381 0.172913
H3    H     H_    0.408662 0.684034 0.653994 0.187654
H4    H     H_    0.591302 0.315924 0.346014 0.187666
H5    H     H_    0.406956 0.674849 0.742402 0.173206
H6    H     H_    0.593010 0.325075 0.257606 0.173203
H7    H     H_    0.189702 0.448442 0.879781 0.243140
H8    H     H_    0.810315 0.551364 0.120216 0.243145
H9    H     H_    0.187372 0.455035 0.965969 0.225807
H10   H     H_    0.812646 0.544744 0.034030 0.225809
C41   C     C_R   0.063996 0.378589 0.509998 -0.181216
C42   C     C_R   0.936004 0.621411 0.490002 -0.181218
C43   C     C_R   0.936172 0.378534 0.510026 -0.126793
C44   C     C_R   0.063828 0.621466 0.489974 -0.126821
H11   H     H_    0.112778 0.284266 0.518099 0.165308
H12   H     H_    0.887222 0.715734 0.481901 0.165308
H13   H     H_    0.887522 0.284220 0.518164 0.172582
H14   H     H_    0.112478 0.715780 0.481835 0.172576
C45   C     C_R   0.872591 0.499937 0.500015 -0.021391
C46   C     C_R   0.127409 0.500063 0.499985 -0.021398
C47   C     C_R   0.585147 0.070517 0.526640 -0.035539
C48   C     C_R   0.414853 0.929483 0.473360 -0.035523
C49   C     C_R   0.414878 0.073475 0.473342 -0.060452
C50   C     C_R   0.585121 0.926525 0.526658 -0.060453
H15   H     H_    0.653262 0.123929 0.547868 0.184173
H16   H     H_    0.346737 0.876071 0.452132 0.184172
H17   H     H_    0.346900 0.129304 0.452031 0.151086
H18   H     H_    0.653100 0.870696 0.547969 0.151090
N3    N     N_R   0.500000 0.857200 0.500000 -0.098218
N4    N     N_R   0.500000 0.142800 0.500000 -0.098218
N5    N     N_R   0.359839 0.716614 0.353148 0.214108
O13   O     O_R   0.360872 0.842528 0.337751 -0.379563
O14   O     O_R   0.277436 0.679477 0.385347 -0.406799
N6    N     N_R   0.640231 0.283421 0.646841 0.214103
O15   O     O_R   0.639240 0.157503 0.662234 -0.379566
O16   O     O_R   0.722612 0.320595 0.614638 -0.406812
N7    N     N_R   0.156606 0.582908 0.124952 0.276098
O17   O     O_R   0.070257 0.490670 0.129679 -0.294798
O18   O     O_R   0.139640 0.702820 0.143065 -0.295837
N8    N     N_R   0.843411 0.416996 0.875042 0.276096
O19   O     O_R   0.929767 0.509234 0.870334 -0.294791
O20   O     O_R   0.860368 0.297115 0.856903 -0.295849
N9    N     N_R   0.173163 0.627539 0.024806 0.217994
O21   O     O_R   0.057458 0.596796 0.034025 -0.319269
O22   O     O_R   0.197521 0.726995 0.994585 -0.323329
N10   N     N_R   0.826838 0.372262 0.975186 0.217994
O23   O     O_R   0.802462 0.272804 0.005404 -0.323343
O24   O     O_R   0.942548 0.402976 0.965966 -0.319249

loop_
_geom_bond_atom_site_label_1
_geom_bond_atom_site_label_2
_geom_bond_distance
_ccdc_geom_bond_type
C16   C18   1.397285 A    
N5    O13   1.301346 A    
N7    O17   1.300942 A    
C48   H16   1.081127 S    
C13   C15   1.394060 A    
C50   H18   1.081765 S    
O3    C2    1.280575 A    
N1    C17   1.428781 S    
C32   C39   1.425282 A    
C31   C33   1.414531 A    
C42   C45   1.397346 A    
O5    C3    1.288980 A    
C19   C25   1.409670 A    
O1    C1    1.281146 A    
N1    C7    1.364341 A    
C10   C12   1.388792 A    
N10   O24   1.300465 A    
C29   C32   1.418550 A    
C25   C38   1.395470 A    
C29   C35   1.410609 A    
C39   N9    1.440103 S    
C30   C36   1.410607 A    
C35   H9    1.077411 S    
C14   C28   1.416672 A    
O7    Zn1   2.002933 S    
C4    C28   1.460412 S    
C24   C40   1.406296 A    
C9    H6    1.082953 S    
N8    O20   1.300964 A    
C44   H14   1.083769 S    
C43   H13   1.083769 S    
C40   N10   1.440109 S    
C11   H4    1.083464 S    
C47   H15   1.081128 S    
C12   H3    1.083464 S    
C20   C22   1.409479 A    
O3    Zn1   1.999638 S    
C6    N2    1.367714 A    
C32   C34   1.414543 A    
N7    O18   1.300963 A    
C15   H1    1.083470 S    
C16   H2    1.083469 S    
O2    C2    1.281144 A    
C5    C21   1.408447 A    
C36   C38   1.384894 A    
C2    C45   1.419349 S    
Zn2   N4    2.004899 S    
O8    Zn2   2.002938 S    
C11   C27   1.402812 A    
C48   C49   1.414576 A    
C19   C34   1.413314 A    
C42   H12   1.083684 S    
C35   C37   1.384904 A    
C9    C17   1.397791 A    
C5    N1    1.367711 A    
C10   C18   1.397796 A    
C50   N3    1.365759 A    
C13   C27   1.416672 A    
N6    O16   1.301516 A    
N9    O21   1.300466 A    
C7    C25   1.395764 A    
C29   C33   1.419604 A    
O6    C4    1.288974 A    
C8    C26   1.395767 A    
N8    O19   1.300942 A    
C23   N7    1.432470 S    
C13   N5    1.437039 S    
C10   H5    1.082955 S    
C48   N3    1.365798 A    
C6    O10   1.349222 S    
N9    O22   1.301632 A    
N2    C8    1.364346 A    
C47   N4    1.365796 A    
N5    O14   1.301514 A    
C44   C46   1.396751 A    
C20   C26   1.409666 A    
O1    Zn1   2.000686 S    
C24   N8    1.432472 S    
C36   H10   1.077408 S    
C12   C28   1.402810 A    
N2    C18   1.428780 S    
C47   C50   1.414577 A    
C5    O9    1.349220 S    
C30   C31   1.418547 A    
C20   C33   1.413307 A    
O6    Zn2   2.016121 S    
C21   C23   1.412181 A    
O4    C1    1.280574 A    
C7    O12   1.350189 S    
C8    O11   1.350189 S    
C30   C34   1.419615 A    
C1    C46   1.419348 S    
C22   C24   1.412182 A    
C15   C17   1.397286 A    
C6    C22   1.408439 A    
C31   C40   1.425281 A    
C49   H17   1.081765 S    
C37   H7    1.083189 S    
N6    O15   1.301348 A    
C38   H8    1.083189 S    
C14   C16   1.394054 A    
C19   C21   1.409483 A    
C43   C45   1.396750 A    
C41   H11   1.083685 S    
C9    C11   1.388788 A    
O4    Zn2   1.999638 S    
N10   O23   1.301631 A    
O2    Zn2   2.000686 S    
O7    C4    1.292516 A    
O8    C3    1.292514 A    
O5    Zn1   2.016126 S    
C42   C44   1.370164 A    
C26   C37   1.395476 A    
C3    C27   1.460421 S    
Zn1   N3    2.004899 S    
C14   N6    1.437041 S    
C41   C46   1.397346 A    
C41   C43   1.370164 A    
C49   N4    1.365761 A    
C23   C39   1.406291 A    
