data_mof_unit_53369.cif
_audit_creation_date              2012-12-10T17:44:29-0500
_audit_creation_method            fapswitch 2.2
_symmetry_space_group_name_H-M    P1
_symmetry_Int_Tables_number       1
_space_group_crystal_system       triclinic
_cell_length_a                    9.892626
_cell_length_b                    10.716506
_cell_length_c                    15.508271
_cell_angle_alpha                 91.260985
_cell_angle_beta                  67.481764
_cell_angle_gamma                 89.044778
_cell_volume                      1517.82120967

loop_
_atom_site_label
_atom_site_type_symbol
_atom_type_description
_atom_site_fract_x
_atom_site_fract_y
_atom_site_fract_z
_atom_type_partial_charge
C1    C     C_R   0.500261 0.740462 0.495721 0.868420
C2    C     C_R   0.741696 0.496136 0.028239 0.175120
C3    C     C_R   0.598640 0.456563 0.082335 0.095224
C4    C     C_R   0.408254 0.499831 0.675998 0.844416
C5    C     C_R   0.839778 0.524663 0.071115 -0.217846
C6    C     C_R   0.794329 0.521387 0.167911 -0.203641
C7    C     C_R   0.555761 0.454783 0.179097 -0.261377
C8    C     C_R   0.238638 0.895606 0.496722 -0.176098
C9    C     C_R   0.104460 0.961007 0.530497 -0.152031
C10   C     C_R   0.090619 0.074574 0.578350 -0.151935
C11   C     C_R   0.214293 0.128402 0.583803 -0.157475
C12   C     C_R   0.426846 0.456720 0.906967 0.097973
C13   C     C_R   0.353681 0.068074 0.541342 0.098123
C14   C     C_R   0.362178 0.943557 0.510598 0.090168
C15   C     C_R   0.494731 0.874802 0.494692 -0.122999
C16   C     C_R   0.494584 0.261425 0.510157 0.888032
C17   C     C_R   0.620411 0.935533 0.491715 -0.223995
C18   C     C_R   0.617543 0.062476 0.503083 -0.219467
C19   C     C_R   0.486285 0.129483 0.524280 -0.128009
C20   C     C_R   0.785533 0.664665 0.623100 -0.230523
C21   C     C_R   0.817638 0.741583 0.685827 -0.241937
C22   C     C_R   0.957377 0.738550 0.688241 0.138523
C23   C     C_R   0.291052 0.401026 0.956597 0.177709
C24   C     C_R   0.063723 0.657197 0.626024 -0.239664
C25   C     C_R   0.034382 0.578429 0.561879 0.124991
C26   C     C_R   0.890436 0.580151 0.561051 0.185221
C27   C     C_R   0.964932 0.423619 0.441495 -0.137740
C28   C     C_R   0.591870 0.497974 0.323918 0.881155
C29   C     C_R   0.108315 0.423987 0.441276 -0.106937
C30   C     C_R   0.352884 0.483352 0.776418 -0.052746
C31   C     C_R   0.650324 0.490224 0.222081 -0.063219
C32   C     C_R   0.187860 0.387100 0.915300 -0.224080
C33   C     C_R   0.220031 0.425880 0.824428 -0.224384
C34   C     C_R   0.535867 0.462192 0.945183 0.063818
C35   C     C_R   0.449209 0.506282 0.820461 -0.259940
C36   C     C_3   0.000707 0.820250 0.754251 -0.409471
C37   C     C_3   0.886827 0.921288 0.809998 -0.339120
C38   C     C_3   0.946958 0.006095 0.866516 -0.873615
C39   C     C_R   0.498635 0.430044 0.039300 0.068532
C40   C     C_R   0.362445 0.373671 0.087253 -0.232122
C41   C     C_R   0.261340 0.358333 0.045902 -0.244470
C42   C     C_R   0.681642 0.495933 0.891783 -0.231686
C43   C     C_R   0.783271 0.510584 0.932670 -0.248508
H1    H     H_    0.158874 0.313935 0.084410 0.149306
H2    H     H_    0.676937 0.675115 0.625833 0.213997
H3    H     H_    0.731455 0.803061 0.732161 0.147318
H4    H     H_    0.445252 0.433285 0.223203 0.154206
H5    H     H_    0.169741 0.659539 0.628329 0.211371
H6    H     H_    0.192085 0.361864 0.393356 0.146373
H7    H     H_    0.869375 0.547878 0.200408 0.159322
H8    H     H_    0.893147 0.538106 0.889889 0.150407
H9    H     H_    0.085033 0.342215 0.951919 0.148440
H10   H     H_    0.144417 0.406810 0.790765 0.154105
H11   H     H_    0.544049 0.560493 0.784306 0.149271
H12   H     H_    0.949464 0.554282 0.030215 0.149902
H13   H     H_    0.332892 0.336176 0.155833 0.142440
H14   H     H_    0.721616 0.508529 0.817430 0.163632
H15   H     H_    0.977697 0.950640 0.916239 0.262402
H16   H     H_    0.044515 0.054995 0.819272 0.261335
H17   H     H_    0.862014 0.077260 0.906765 0.252317
H18   H     H_    0.856606 0.979811 0.761468 0.223326
H19   H     H_    0.787180 0.876540 0.858900 0.223161
H20   H     H_    0.024845 0.758898 0.803774 0.191418
H21   H     H_    0.103730 0.867153 0.712383 0.216201
H22   H     H_    0.722812 0.885374 0.478476 0.172170
H23   H     H_    0.243556 0.810994 0.456646 0.178496
H24   H     H_    0.010484 0.922144 0.521128 0.145922
H25   H     H_    0.985258 0.122974 0.608377 0.138215
H26   H     H_    0.200209 0.217494 0.620871 0.154396
H27   H     H_    0.719322 0.108129 0.492698 0.169558
H28   H     H_    0.940711 0.361272 0.393798 0.141657
N1    N     N_R   0.856800 0.501200 0.500850 -0.112369
N2    N     N_R   0.142390 0.501280 0.500880 -0.117127
O1    O     O_R   0.385310 0.683220 0.500000 -0.647084
O2    O     O_R   0.614640 0.683250 0.500010 -0.634868
O3    O     O_R   0.319840 0.499980 0.632240 -0.643116
O4    O     O_R   0.549160 0.500000 0.632250 -0.625856
O5    O     O_R   0.385360 0.316750 0.499990 -0.619492
O6    O     O_R   0.614690 0.316780 0.500000 -0.614898
O7    O     O_R   0.450840 0.500000 0.367750 -0.614325
O8    O     O_R   0.680160 0.500020 0.367760 -0.610715
Zn1   Zn    Zn3+2 0.346880 0.499980 0.499990 0.916572
Zn2   Zn    Zn3+2 0.653120 0.500020 0.500010 0.930226

loop_
_geom_bond_atom_site_label_1
_geom_bond_atom_site_label_2
_ccdc_geom_bond_type
C18   H27   S    
C8    H23   S    
C27   C29   A    
C26   N1    A    
C34   C42   A    
O2    Zn2   S    
C37   H19   S    
C29   H6    S    
C12   C23   A    
C30   C35   A    
C1    O1    A    
C36   C37   S    
C3    C7    A    
C5    C6    A    
C29   N2    A    
O4    Zn2   S    
C18   C19   A    
C32   H9    S    
C38   H15   S    
C8    C9    A    
C40   H13   S    
C1    C15   S    
C36   H20   S    
C9    C10   A    
C25   N2    A    
C20   H2    S    
C6    C31   A    
C3    C39   A    
C13   C14   A    
C35   H11   S    
O1    Zn1   S    
C42   H14   S    
O8    Zn2   S    
C33   H10   S    
C7    C31   A    
C13   C19   A    
C34   C39   A    
C24   H5    S    
C24   C25   A    
O7    Zn1   S    
O3    Zn1   S    
C39   C40   A    
C25   C26   A    
C1    O2    A    
C9    H24   S    
C37   C38   S    
O5    Zn1   S    
C2    C43   A    
C17   C18   A    
C6    H7    S    
C12   C35   A    
C38   H17   S    
C40   C41   A    
C41   H1    S    
C22   C24   A    
C2    C5    A    
C42   C43   A    
C12   C34   A    
N2    Zn1   S    
C27   H28   S    
C21   H3    S    
C15   C17   A    
C8    C14   A    
C30   C33   A    
C28   O8    A    
C5    H12   S    
C28   C31   S    
C37   H18   S    
C11   H26   S    
C10   H25   S    
C22   C36   S    
C17   H22   S    
C23   C41   A    
C16   O6    A    
C23   C32   A    
C2    C3    A    
C4    O4    A    
C36   H21   S    
C32   C33   A    
O6    Zn2   S    
C11   C13   A    
C43   H8    S    
C20   C26   A    
C16   C19   S    
C16   O5    A    
C28   O7    A    
C4    O3    A    
N1    Zn2   S    
C10   C11   A    
C38   H16   S    
C20   C21   A    
C14   C15   A    
C21   C22   A    
C4    C30   S    
C27   N1    A    
C7    H4    S    
