data_mof_unit_66912.cif
_audit_creation_date              2013-03-05T15:57:26-0500
_audit_creation_method            fapswitch 2.2
_symmetry_space_group_name_H-M    P1
_symmetry_Int_Tables_number       1
_space_group_crystal_system       triclinic
_cell_length_a                    17.470046
_cell_length_b                    19.280439
_cell_length_c                    8.418438
_cell_angle_alpha                 89.601248
_cell_angle_beta                  102.637064
_cell_angle_gamma                 90.25618
_cell_volume                      2766.81338638

loop_
_atom_site_label
_atom_site_type_symbol
_atom_site_description
_atom_site_fract_x
_atom_site_fract_y
_atom_site_fract_z
_atom_type_partial_charge
P1    P     P_3+3 0.834140 0.419320 0.003900 0.477546
P2    P     P_3+3 0.834140 0.580680 0.503900 0.472505
P3    P     P_3+3 0.334140 0.919320 0.003900 0.477521
P4    P     P_3+3 0.334140 0.080680 0.503900 0.472517
O1    O     O_2   0.841960 0.394640 0.833410 -0.295722
O2    O     O_2   0.841960 0.605360 0.333410 -0.331019
O3    O     O_2   0.341960 0.894640 0.833410 -0.295736
O4    O     O_2   0.341960 0.105360 0.333410 -0.331014
O5    O     O_3   0.907950 0.463080 0.102990 -0.397735
O6    O     O_3   0.907950 0.536920 0.602990 -0.380606
O7    O     O_3   0.407950 0.963080 0.102990 -0.397724
O8    O     O_3   0.407950 0.036920 0.602990 -0.380607
O9    O     O_3   0.972780 0.329600 0.629720 -0.386804
O10   O     O_3   0.972780 0.670400 0.129720 -0.410272
O11   O     O_3   0.472780 0.829600 0.629720 -0.386810
O12   O     O_3   0.472780 0.170400 0.129720 -0.410232
O13   O     O_2   0.840301 0.277711 0.692383 -0.318473
O14   O     O_2   0.846848 0.729547 0.199029 -0.331965
O15   O     O_2   0.340303 0.777708 0.692381 -0.318460
O16   O     O_2   0.346847 0.229540 0.199022 -0.331944
O17   O     O_3   0.757648 0.473762 0.913898 -0.621193
O18   O     O_3   0.754918 0.528159 0.417469 -0.623181
O19   O     O_3   0.257652 0.973764 0.913891 -0.621231
O20   O     O_3   0.254913 0.028165 0.417472 -0.623187
O21   O     O_3   0.940656 0.187640 0.640047 -0.514127
O22   O     O_3   0.950380 0.812706 0.123238 -0.507301
O23   O     O_3   0.440662 0.687642 0.640039 -0.514101
O24   O     O_3   0.450387 0.312700 0.123281 -0.507217
H1    H     H_    0.056383 0.219110 0.707901 0.156900
H2    H     H_    0.057872 0.765273 0.212638 0.169927
H3    H     H_    0.556386 0.719121 0.707902 0.156896
H4    H     H_    0.557898 0.265215 0.212266 0.169808
C1    C     C_3   0.046545 0.116483 0.612154 -0.824723
C2    C     C_3   0.073200 0.867945 0.142261 -0.891611
C3    C     C_3   0.546560 0.616497 0.612147 -0.824768
C4    C     C_3   0.573205 0.367943 0.142393 -0.891297
H5    H     H_    0.552208 0.593254 0.734981 0.324356
H6    H     H_    0.635008 0.356829 0.141544 0.200437
H7    H     H_    0.104283 0.119059 0.578706 0.191705
H8    H     H_    0.135011 0.856816 0.141523 0.200516
H9    H     H_    0.052189 0.093242 0.734988 0.324339
H10   H     H_    0.070478 0.889590 0.261566 0.325222
H11   H     H_    0.506486 0.583902 0.522740 0.315332
H12   H     H_    0.570517 0.389459 0.261837 0.325200
P5    P     P_3+3 0.165830 0.418670 0.685610 0.440922
P6    P     P_3+3 0.165830 0.581330 0.185610 0.455345
P7    P     P_3+3 0.665830 0.918670 0.685610 0.440917
P8    P     P_3+3 0.665830 0.081330 0.185610 0.455363
P9    P     P_3+3 0.099010 0.268338 0.110177 0.503737
P10   P     P_3+3 0.096836 0.734672 0.609150 0.495339
P11   P     P_3+3 0.599011 0.768339 0.110175 0.503728
P12   P     P_3+3 0.596838 0.234672 0.609142 0.495431
O25   O     O_2   0.157990 0.394030 0.856030 -0.364742
O26   O     O_2   0.157990 0.605970 0.356030 -0.402457
O27   O     O_2   0.657990 0.894030 0.856030 -0.364747
O28   O     O_2   0.657990 0.105970 0.356030 -0.402452
O29   O     O_3   0.027110 0.329490 0.059550 -0.383020
O30   O     O_3   0.027110 0.670510 0.559550 -0.408291
O31   O     O_3   0.527110 0.829490 0.059550 -0.383021
O32   O     O_3   0.527110 0.170510 0.559550 -0.408268
O33   O     O_2   0.155877 0.278037 0.994479 -0.317187
O34   O     O_2   0.152233 0.728296 0.489593 -0.341129
O35   O     O_2   0.655875 0.778035 0.994471 -0.317194
O36   O     O_2   0.652227 0.228297 0.489569 -0.341069
O37   O     O_3   0.248249 0.472886 0.731951 -0.573517
O38   O     O_3   0.247821 0.527547 0.234555 -0.533327
O39   O     O_3   0.748252 0.972881 0.731951 -0.573529
O40   O     O_3   0.747821 0.027547 0.234560 -0.533309
O41   O     O_3   0.052530 0.189950 0.047691 -0.478390
O42   O     O_3   0.047091 0.813306 0.556160 -0.502420
O43   O     O_3   0.552529 0.689952 0.047696 -0.478383
O44   O     O_3   0.547093 0.313305 0.556157 -0.502405
C5    C     C_3   0.999227 0.175364 0.146512 0.295970
C6    C     C_3   0.968263 0.804285 0.566789 0.333450
C7    C     C_3   0.499229 0.675367 0.146523 0.296028
C8    C     C_3   0.468264 0.304284 0.566775 0.333517
H13   H     H_    0.969193 0.222581 0.177535 0.001792
H14   H     H_    0.936878 0.773288 0.461934 0.150782
H15   H     H_    0.469205 0.722586 0.177576 0.001764
H16   H     H_    0.436879 0.273298 0.461904 0.150830
H17   H     H_    0.030174 0.149486 0.260165 0.052681
H18   H     H_    0.963827 0.777168 0.681686 -0.085418
H19   H     H_    0.530176 0.649478 0.260160 0.052689
H20   H     H_    0.463823 0.277157 0.681654 -0.085468
C9    C     C_3   0.936495 0.127252 0.053983 -0.043082
C10   C     C_3   0.926701 0.874094 0.562557 -0.009078
C11   C     C_3   0.436485 0.627270 0.053980 -0.043102
C12   C     C_3   0.426710 0.374093 0.562584 -0.009204
H21   H     H_    0.408504 0.653170 0.937951 0.132672
H22   H     H_    0.363154 0.364395 0.551188 -0.002518
H23   H     H_    0.908523 0.153135 0.937928 0.132677
H24   H     H_    0.863145 0.864391 0.551148 -0.002555
C13   C     C_3   0.233138 0.468268 0.319965 0.407697
C14   C     C_3   0.226951 0.542005 0.750733 0.359127
C15   C     C_3   0.733130 0.968260 0.319926 0.407699
C16   C     C_3   0.726960 0.042003 0.750708 0.359108
H25   H     H_    0.277048 0.466747 0.436919 0.121406
H26   H     H_    0.225796 0.550271 0.879993 0.081876
H27   H     H_    0.777030 0.966723 0.436877 0.121354
H28   H     H_    0.725796 0.050277 0.879960 0.081868
H29   H     H_    0.174073 0.466578 0.348954 0.080689
H30   H     H_    0.169705 0.557758 0.674059 0.137713
H31   H     H_    0.674069 0.966571 0.348898 0.080680
H32   H     H_    0.669719 0.057757 0.674013 0.137725
C17   C     C_3   0.244531 0.405392 0.220645 -0.798941
C18   C     C_3   0.288056 0.588819 0.701974 -0.895240
C19   C     C_3   0.744520 0.905396 0.220588 -0.798904
C20   C     C_3   0.788075 0.088807 0.701958 -0.895258
H33   H     H_    0.267620 0.360974 0.300729 0.210698
H34   H     H_    0.347358 0.571231 0.762132 0.293932
H35   H     H_    0.767631 0.860984 0.300658 0.210708
H36   H     H_    0.847374 0.071211 0.762125 0.293911
H37   H     H_    0.186922 0.391905 0.144889 0.259749
H38   H     H_    0.279163 0.643399 0.734702 0.227851
H39   H     H_    0.686911 0.891896 0.144882 0.259724
H40   H     H_    0.779190 0.143389 0.734682 0.227855
H41   H     H_    0.285893 0.416364 0.140293 0.296729
H42   H     H_    0.284075 0.585269 0.569359 0.276523
H43   H     H_    0.785857 0.916375 0.140190 0.296714
H44   H     H_    0.784098 0.085255 0.569346 0.276535
Ba1   Ba    Ba6+2 0.000000 0.447380 0.844850 1.600746
Ba2   Ba    Ba6+2 0.000000 0.552620 0.344850 1.591362
Ba3   Ba    Ba6+2 0.500000 0.947380 0.844850 1.600742
Ba4   Ba    Ba6+2 0.500000 0.052620 0.344850 1.591381
C21   C     C_3   0.741878 0.526345 0.011538 0.731934
C22   C     C_3   0.734941 0.479701 0.522398 0.762548
C23   C     C_3   0.241880 0.026346 0.011531 0.731891
C24   C     C_3   0.234943 0.979698 0.522389 0.762535
H45   H     H_    0.790819 0.537396 0.114236 0.149267
H46   H     H_    0.771692 0.482631 0.645985 0.142450
H47   H     H_    0.290821 0.037402 0.114223 0.149278
H48   H     H_    0.271692 0.982627 0.645976 0.142450
C25   C     C_3   0.667900 0.506955 0.065023 -0.854126
C26   C     C_3   0.647453 0.486534 0.522027 -0.832363
C27   C     C_3   0.167907 0.006950 0.065025 -0.854015
C28   C     C_3   0.147453 0.986517 0.522017 -0.832403
H49   H     H_    0.622569 0.492627 0.957233 0.293999
H50   H     H_    0.615789 0.519160 0.420590 0.247964
H51   H     H_    0.122572 0.992627 0.957234 0.293993
H52   H     H_    0.115788 0.019149 0.420596 0.247967
H53   H     H_    0.643409 0.549337 0.122774 0.289504
H54   H     H_    0.615842 0.436639 0.505257 0.318668
H55   H     H_    0.143421 0.049328 0.122799 0.289500
H56   H     H_    0.115851 0.936616 0.505215 0.318678
H57   H     H_    0.680577 0.463690 0.151219 0.238966
H58   H     H_    0.640766 0.506660 0.640455 0.270093
H59   H     H_    0.180586 0.963679 0.151202 0.238962
H60   H     H_    0.140761 0.006631 0.640451 0.270101
O45   O     O_3   0.092100 0.536880 0.086720 -0.390186
O46   O     O_3   0.092100 0.463120 0.586720 -0.417940
O47   O     O_3   0.592100 0.036880 0.086720 -0.390191
O48   O     O_3   0.592100 0.963120 0.586720 -0.417937
P13   P     P_3+3 0.901086 0.734326 0.076781 0.487081
P14   P     P_3+3 0.897940 0.267456 0.578805 0.515174
P15   P     P_3+3 0.401089 0.234326 0.076783 0.487127
P16   P     P_3+3 0.397940 0.767456 0.578801 0.515195
C29   C     C_3   0.016536 0.189407 0.610586 0.500939
C30   C     C_3   0.028620 0.801268 0.114593 0.464949
C31   C     C_3   0.516542 0.689417 0.610582 0.501006
C32   C     C_3   0.528606 0.301286 0.114432 0.464704
H61   H     H_    0.018134 0.212609 0.489847 -0.035242
H62   H     H_    0.032572 0.781393 0.992667 -0.018131
H63   H     H_    0.518139 0.712620 0.489844 -0.035265
H64   H     H_    0.532495 0.281526 0.992373 -0.018364
H65   H     H_    0.604298 0.619081 0.578700 0.191689
H66   H     H_    0.548171 0.405207 0.045202 0.283315
H67   H     H_    0.006467 0.083891 0.522748 0.315332
H68   H     H_    0.048179 0.905118 0.044853 0.283189
C33   C     C_R   0.143101 0.672117 0.918798 -0.524497
C34   C     C_R   0.138721 0.325873 0.425078 -0.493851
C35   C     C_R   0.643107 0.172115 0.918791 -0.524548
C36   C     C_R   0.638721 0.825873 0.425078 -0.493871
C37   C     C_R   0.862782 0.318675 0.257149 -0.385525
C38   C     C_R   0.860079 0.678484 0.762325 -0.375225
C39   C     C_R   0.362787 0.818670 0.257140 -0.385513
C40   C     C_R   0.360080 0.178484 0.762326 -0.375188
C41   C     C_R   0.787340 0.217064 0.304989 -0.119303
C42   C     C_R   0.791566 0.785094 0.801812 -0.207020
C43   C     C_R   0.287340 0.717064 0.304988 -0.119335
C44   C     C_R   0.291569 0.285096 0.801811 -0.207024
C45   C     C_R   0.846745 0.265993 0.360936 0.246673
C46   C     C_R   0.846716 0.733114 0.861979 0.266789
C47   C     C_R   0.346748 0.765991 0.360931 0.246678
C48   C     C_R   0.346720 0.233116 0.861977 0.266690
C49   C     C_R   0.812481 0.332219 0.106074 0.225096
C50   C     C_R   0.813073 0.667791 0.606614 0.193931
C51   C     C_R   0.312482 0.832218 0.106069 0.225097
C52   C     C_R   0.313074 0.167792 0.606614 0.193943
C53   C     C_R   0.750609 0.280571 0.048107 -0.124209
C54   C     C_R   0.752668 0.720753 0.547120 -0.078222
C55   C     C_R   0.250607 0.780572 0.048106 -0.124176
C56   C     C_R   0.252669 0.220753 0.547120 -0.078221
C57   C     C_R   0.241022 0.720211 0.145606 -0.084504
C58   C     C_R   0.243502 0.281117 0.644461 -0.021363
C59   C     C_R   0.741023 0.220210 0.145606 -0.084499
C60   C     C_R   0.743500 0.781117 0.644461 -0.021379
C61   C     C_R   0.184136 0.666046 0.080394 0.237106
C62   C     C_R   0.184444 0.334083 0.581934 0.242176
C63   C     C_R   0.684138 0.166045 0.080391 0.237105
C64   C     C_R   0.684442 0.834083 0.581935 0.242192
C65   C     C_R   0.151421 0.730129 0.825319 0.200938
C66   C     C_R   0.150296 0.270598 0.328414 0.133630
C67   C     C_R   0.651428 0.230128 0.825311 0.200873
C68   C     C_R   0.650296 0.770599 0.328413 0.133631
C69   C     C_R   0.197534 0.785981 0.897043 -0.188690
C70   C     C_R   0.201447 0.217259 0.393477 -0.214903
C71   C     C_R   0.697536 0.285981 0.897043 -0.188599
C72   C     C_R   0.701448 0.717260 0.393475 -0.214896
H69   H     H_    0.278899 0.676062 0.386808 0.186118
H70   H     H_    0.285813 0.327857 0.880609 0.183454
H71   H     H_    0.778899 0.176061 0.386809 0.186117
H72   H     H_    0.785810 0.827855 0.880610 0.183460
H73   H     H_    0.103781 0.631033 0.864498 0.166675
H74   H     H_    0.095910 0.364875 0.373750 0.168749
H75   H     H_    0.603788 0.131031 0.864489 0.166684
H76   H     H_    0.595910 0.864875 0.373751 0.168745
H77   H     H_    0.909624 0.354976 0.303834 0.163749
H78   H     H_    0.904347 0.640444 0.812342 0.159304
H79   H     H_    0.409631 0.854969 0.303821 0.163748
H80   H     H_    0.404347 0.140444 0.812343 0.159294
Br1   Br    Br    0.719371 0.604978 0.868752 -0.573511
Br2   Br    Br    0.751552 0.394034 0.426607 -0.525502
Br3   Br    Br    0.219361 0.104977 0.868744 -0.573505
Br4   Br    Br    0.251570 0.894044 0.426574 -0.525515
C73   C     C_2   0.375772 0.610393 0.146065 0.540109
H81   H     H_    0.316456 0.604532 0.078592 0.022343
O49   O     O_2   0.392730 0.597958 0.291809 -0.549486
C74   C     C_2   0.456098 0.412567 0.717005 0.596515
H82   H     H_    0.427864 0.405228 0.818628 0.036924
O50   O     O_2   0.513126 0.450501 0.731189 -0.564726
C75   C     C_2   0.875770 0.110392 0.146052 0.540148
H83   H     H_    0.816456 0.104537 0.078568 0.022305
O51   O     O_2   0.892718 0.097961 0.291797 -0.549497
C76   C     C_2   0.956075 0.912582 0.716962 0.596315
H84   H     H_    0.927817 0.905267 0.818565 0.037040
O52   O     O_2   0.013124 0.950502 0.731155 -0.564752
C77   C     C_2   0.676726 0.352296 0.825319 0.729174
H85   H     H_    0.645171 0.388926 0.881082 -0.006921
O53   O     O_2   0.692516 0.364842 0.696645 -0.515948
C78   C     C_2   0.692066 0.655527 0.300810 0.767521
H86   H     H_    0.659491 0.613585 0.337388 -0.076101
O54   O     O_2   0.714407 0.654630 0.174802 -0.501638
C79   C     C_2   0.176746 0.852292 0.825273 0.729204
H87   H     H_    0.145200 0.888942 0.881004 -0.006874
O55   O     O_2   0.192545 0.864812 0.696591 -0.515921
C80   C     C_2   0.192062 0.155525 0.300814 0.767527
H88   H     H_    0.159482 0.113586 0.337391 -0.076087
O56   O     O_2   0.214403 0.154625 0.174808 -0.501642
Br5   Br    Br    0.979255 0.040052 0.011161 -0.527211
Br6   Br    Br    0.938367 0.930829 0.377851 -0.426583
Br7   Br    Br    0.479238 0.540081 0.011064 -0.527235
Br8   Br    Br    0.438367 0.430838 0.377886 -0.426618

loop_
_geom_bond_atom_site_label_1
_geom_bond_atom_site_label_2
_geom_bond_distance
_ccdc_geom_bond_type
C43   H69   1.075627 S    
C10   Br6   1.941368 S    
C9    Br5   1.911053 S    
P1    O17   1.737832 S    
O10   Ba2   2.870265 S    
O16   P15   1.545968 D    
C29   H61   1.113555 S    
C20   H44   1.105857 S    
P3    O19   1.737832 S    
O7    Ba4   2.881576 S    
C9    C75   1.478179 S    
P8    O28   1.548798 D    
P4    O4    1.542974 D    
O6    Ba1   2.873200 S    
C17   H41   1.111291 S    
C24   Br4   1.894110 S    
C74   O50   1.218362 D    
C9    H23   1.108543 S    
C44   C58   1.407071 A    
Ba3   Ba4   4.660019 S    
P2    O2    1.542974 D    
C25   H49   1.101815 S    
C23   Br3   1.916020 S    
C40   H80   1.082396 S    
C37   C49   1.402269 A    
C10   C76   1.490570 S    
O11   Ba3   2.886797 S    
C18   H38   1.109803 S    
P1    O1    1.549497 D    
C32   H64   1.114379 S    
P7    O27   1.542283 D    
C70   C80   1.416811 S    
C23   C27   1.503563 S    
P6    O38   1.745248 S    
C73   O49   1.219881 D    
P3    O3    1.549497 D    
C24   C28   1.533992 S    
C43   C57   1.408181 A    
P4    O20   1.739945 S    
C15   H27   1.108061 S    
O18   C22   1.376774 S    
C14   H26   1.105426 S    
O23   C31   1.401171 S    
C79   H87   1.069761 S    
C23   H47   1.096070 S    
P14   C45   1.856723 S    
O1    Ba1   2.919950 S    
O24   C32   1.403117 S    
P9    O29   1.709264 S    
Ba1   O46   2.986537 S    
P4    Ba4   3.493299 S    
C36   C68   1.387396 A    
P5    O46   1.617839 S    
C55   C69   1.403896 A    
C58   C62   1.465862 A    
C5    H17   1.107285 S    
O22   C30   1.403105 S    
O32   Ba4   2.886268 S    
C35   C63   1.396467 A    
P12   O32   1.720382 S    
C13   C17   1.515713 S    
P9    C66   1.860253 S    
P5    O37   1.750570 S    
C6    H14   1.108888 S    
C28   H52   1.104462 S    
C68   C72   1.393688 A    
P3    Ba3   3.486393 S    
C79   O55   1.197735 D    
C2    H10   1.100941 S    
O42   C6    1.409352 S    
O24   P15   1.739946 S    
O41   C5    1.404159 S    
C38   H78   1.082396 S    
P4    O8    1.612362 S    
C3    H11   1.106199 S    
C8    C12   1.528634 S    
C51   C55   1.471210 A    
O28   Ba4   2.923576 S    
C60   C64   1.465859 A    
C12   Br8   1.941375 S    
C35   H75   1.082150 S    
C27   H55   1.089413 S    
P10   O42   1.756565 S    
C16   C20   1.516799 S    
C37   C45   1.402077 A    
P9    O41   1.741685 S    
C77   H85   1.069749 S    
C18   H42   1.105863 S    
C35   C67   1.388463 A    
O15   P16   1.546908 D    
C38   C46   1.402827 A    
C1    H67   1.106197 S    
P2    C50   1.966979 S    
C76   O52   1.218465 D    
C6    H18   1.113697 S    
C2    H68   1.102251 S    
O13   P14   1.546907 D    
C24   H48   1.098203 S    
P7    O39   1.750567 S    
C74   H82   1.085143 S    
P16   C47   1.856727 S    
C15   H31   1.111241 S    
C40   C52   1.402293 A    
C59   C63   1.462743 A    
P2    Ba2   3.493299 S    
O31   Ba3   2.869744 S    
C26   H58   1.102237 S    
C80   O56   1.208042 D    
C8    H20   1.113675 S    
O30   Ba2   2.886268 S    
O40   C15   1.398415 S    
P9    O33   1.545889 D    
P8    C63   1.911504 S    
C42   H72   1.080466 S    
P10   O30   1.720364 S    
Ba2   O45   2.991070 S    
P7    O48   1.617839 S    
P11   O35   1.545886 D    
C72   C78   1.416808 S    
P12   O36   1.547162 D    
C13   H29   1.111367 S    
C22   H46   1.098217 S    
C4    C32   1.493037 S    
P15   C48   1.849760 S    
O4    Ba4   2.928070 S    
P6    C61   1.911495 S    
H1    C29   1.112279 S    
C33   C65   1.388452 A    
P5    Ba1   3.495768 S    
P5    C62   1.917281 S    
C42   C60   1.407066 A    
C69   C79   1.424396 S    
C6    C10   1.528653 S    
C20   H36   1.102729 S    
C39   H79   1.082562 S    
C43   C47   1.404412 A    
C56   C58   1.457425 A    
P11   O43   1.741667 S    
C50   C54   1.475938 A    
C11   Br7   1.911028 S    
C55   C57   1.449572 A    
P2    O18   1.739945 S    
P12   O44   1.756553 S    
C26   H54   1.101537 S    
O9    Ba1   2.886797 S    
C53   C59   1.449570 A    
P7    Ba3   3.495768 S    
Ba2   O46   2.873143 S    
H2    C30   1.111164 S    
C34   C66   1.387394 A    
C5    C9    1.515174 S    
P6    O26   1.548798 D    
O12   P15   1.745934 S    
C78   O54   1.208040 D    
O5    Ba2   2.881576 S    
Ba1   Ba2   4.660019 S    
C17   H37   1.098360 S    
P1    O5    1.612404 S    
O44   C8    1.409346 S    
C75   O51   1.219876 D    
C1    H7    1.105822 S    
P8    O40   1.745249 S    
C44   H70   1.080466 S    
C19   H39   1.098243 S    
O11   P16   1.754049 S    
C28   H60   1.102248 S    
O14   P13   1.545970 D    
C15   C19   1.515621 S    
O38   C13   1.398459 S    
C2    C30   1.493078 S    
C54   C72   1.404455 A    
O37   C14   1.404456 S    
Ba4   O47   2.991070 S    
C12   H22   1.108499 S    
C27   H59   1.092843 S    
C77   O53   1.197710 D    
O10   P13   1.745968 S    
O21   C29   1.401173 S    
O39   C16   1.404444 S    
P10   O34   1.547165 D    
C2    H8    1.103255 S    
P7    C64   1.917282 S    
C4    H12   1.100919 S    
C25   H57   1.092852 S    
C76   H84   1.085205 S    
O2    Ba2   2.928070 S    
O17   C21   1.375706 S    
P2    O6    1.612362 S    
O27   Ba3   2.931789 S    
C13   H25   1.108168 S    
C34   C62   1.395362 A    
C37   H77   1.082562 S    
P11   C68   1.860249 S    
C3    H5    1.108679 S    
C33   C61   1.396459 A    
C18   H34   1.102720 S    
P10   C65   1.862246 S    
C21   C25   1.503580 S    
O23   P16   1.738320 S    
C40   C48   1.402830 A    
C17   H33   1.107581 S    
C80   H88   1.068516 S    
C14   C18   1.516801 S    
C65   C69   1.400581 A    
C41   C59   1.408183 A    
C73   H81   1.073093 S    
O21   P14   1.738328 S    
C56   C70   1.404459 A    
C39   C47   1.402078 A    
C19   H35   1.107513 S    
Ba1   O45   2.881510 S    
Ba3   O47   2.881510 S    
C8    H16   1.108872 S    
O3    Ba3   2.919950 S    
O29   Ba1   2.869744 S    
P3    C51   1.954439 S    
C26   H50   1.104460 S    
C22   Br2   1.894149 S    
C49   C53   1.471210 A    
C34   H74   1.081962 S    
C21   Br1   1.916025 S    
C42   C46   1.406152 A    
C33   H73   1.082149 S    
C27   H51   1.101826 S    
O19   C23   1.375704 S    
C25   H53   1.089418 S    
C19   H43   1.111271 S    
C52   C56   1.475939 A    
P12   C67   1.862270 S    
C1    H9    1.108680 S    
P1    C49   1.954438 S    
C20   H40   1.109795 S    
C39   C51   1.402273 A    
C16   H32   1.107523 S    
O12   Ba4   2.870265 S    
C28   H56   1.101561 S    
C10   H24   1.108500 S    
C41   H71   1.075630 S    
C38   C50   1.402293 A    
O43   C7    1.404159 S    
C54   C60   1.457423 A    
C7    H19   1.107290 S    
C12   C74   1.490573 S    
O8    Ba3   2.873200 S    
C67   C71   1.400589 A    
C53   C71   1.403892 A    
C41   C45   1.404414 A    
C16   H28   1.105420 S    
C4    H6    1.103261 S    
C78   H86   1.068503 S    
C3    H65   1.105828 S    
C57   C61   1.462744 A    
C36   C64   1.395360 A    
C31   H63   1.113560 S    
Ba3   O48   2.986537 S    
Ba4   O48   2.873143 S    
C11   C73   1.478181 S    
P1    Ba1   3.486393 S    
O9    P14   1.754051 S    
C1    C29   1.501726 S    
C3    C31   1.501709 S    
P3    O7    1.612404 S    
C30   H62   1.114406 S    
C4    H66   1.102250 S    
P5    O25   1.542283 D    
C21   H45   1.096076 S    
O26   Ba2   2.923576 S    
P6    O45   1.617876 S    
P11   O31   1.709256 S    
P13   C46   1.849748 S    
C22   C26   1.533996 S    
P8    Ba4   3.488704 S    
C66   C70   1.393691 A    
P8    O47   1.617876 S    
C75   H83   1.073091 S    
O20   C24   1.376759 S    
C11   H21   1.108553 S    
C5    H13   1.113483 S    
P6    Ba2   3.488704 S    
O22   P13   1.739969 S    
O25   Ba1   2.931789 S    
C36   H76   1.081961 S    
C71   C77   1.424384 S    
C7    H15   1.113486 S    
H3    C31   1.112279 S    
P4    C52   1.966979 S    
C44   C48   1.406153 A    
C14   H30   1.107528 S    
H4    C32   1.111164 S    
C7    C11   1.515162 S    
