data_mof_unit_29516.cif
_audit_creation_date              2012-10-26T19:04:42-0400
_audit_creation_method            fapswitch 2.2
_symmetry_space_group_name_H-M    P1
_symmetry_Int_Tables_number       1
_space_group_crystal_system       triclinic
_cell_length_a                    9.694665
_cell_length_b                    10.762759
_cell_length_c                    13.398494
_cell_angle_alpha                 92.76291
_cell_angle_beta                  72.395945
_cell_angle_gamma                 89.770649
_cell_volume                      1330.74416273

loop_
_atom_site_label
_atom_site_type_symbol
_atom_type_description
_atom_site_fract_x
_atom_site_fract_y
_atom_site_fract_z
_atom_type_partial_charge
Br1   Br    Br    0.340483 0.854083 0.916114 -0.436426
Br2   Br    Br    0.770308 0.703990 0.653235 -0.393399
Br3   Br    Br    0.192233 0.020285 0.388270 -0.299186
Br4   Br    Br    0.336104 0.283396 0.283839 -0.415074
C1    C     C_R   0.500912 0.736756 0.497718 0.577475
C2    C     C_R   0.376259 0.485725 0.814708 0.014198
C3    C     C_R   0.429292 0.877920 0.694592 -0.063548
C4    C     C_R   0.422114 0.493887 0.699656 0.514752
C5    C     C_R   0.391533 0.945386 0.790884 0.144568
C6    C     C_R   0.385322 0.075940 0.793909 0.017638
C7    C     C_R   0.418654 0.137033 0.699712 -0.133522
C8    C     C_R   0.459964 0.069687 0.601941 0.007685
C9    C     C_R   0.463512 0.938568 0.599150 0.002257
C10   C     C_R   0.500483 0.871231 0.500941 0.023731
C11   C     C_R   0.534668 0.933393 0.406366 0.049619
C12   C     C_R   0.438724 0.481643 0.978487 0.079010
C13   C     C_R   0.531606 0.062503 0.410870 -0.080909
C14   C     C_R   0.496776 0.129846 0.506501 0.006333
C15   C     C_R   0.902747 0.311302 0.387607 -0.129226
C16   C     C_R   0.498798 0.263418 0.503040 0.530573
C17   C     C_R   0.966537 0.192914 0.376186 0.029900
C18   C     C_R   0.096012 0.179919 0.400778 0.182514
C19   C     C_R   0.172944 0.288255 0.407916 0.192709
C20   C     C_R   0.094410 0.401653 0.449136 0.090115
C21   C     C_R   0.948262 0.407129 0.444551 0.056732
C22   C     C_R   0.902437 0.587344 0.556361 0.260287
C23   C     C_R   0.475430 0.453264 0.869057 0.053658
C24   C     C_R   0.051270 0.591049 0.551910 0.165034
C25   C     C_R   0.578578 0.497832 0.300263 0.591214
C26   C     C_R   0.788811 0.395233 0.023830 -0.103524
C27   C     C_R   0.624405 0.482742 0.185810 0.013074
C28   C     C_R   0.233556 0.520177 0.872193 -0.075905
C29   C     C_R   0.192437 0.533728 0.980701 -0.069520
C30   C     C_R   0.294041 0.518223 0.033506 -0.039335
C31   C     C_2   0.340913 0.150382 0.894647 0.621876
C32   C     C_2   0.900762 0.086931 0.333962 0.616583
C33   C     C_2   0.097702 0.696713 0.606985 0.653738
C34   C     C_R   0.546889 0.468375 0.029161 0.063069
C35   C     C_2   0.577540 0.867520 0.301311 0.592598
C36   C     C_R   0.682948 0.412340 0.973531 0.062282
C37   C     C_R   0.710209 0.370677 0.869337 -0.107687
C38   C     C_R   0.607733 0.389526 0.818136 -0.096048
C39   C     C_R   0.523782 0.509159 0.133836 -0.080363
C40   C     C_R   0.758916 0.428716 0.130043 -0.113922
Cu1   Cu    Cu3+1 0.359340 0.500010 0.500010 1.048535
Cu2   Cu    Cu3+1 0.640660 0.499990 0.499990 1.013311
H1    H     H_    0.838544 0.408239 0.169128 0.146145
H2    H     H_    0.254425 0.530667 0.117723 0.128991
H3    H     H_    0.081720 0.559678 0.024109 0.133722
H4    H     H_    0.632033 0.348397 0.739521 0.143598
H5    H     H_    0.502410 0.082369 0.943719 0.336913
H6    H     H_    0.855310 0.904180 0.337355 0.370074
H7    H     H_    0.142242 0.763292 0.736634 0.344826
H8    H     H_    0.698643 0.732528 0.204842 0.339417
H9    H     H_    0.430414 0.777469 0.695594 0.159517
H10   H     H_    0.412540 0.237447 0.703460 0.110239
H11   H     H_    0.558523 0.111648 0.338858 0.200731
H12   H     H_    0.813493 0.323988 0.357538 0.193704
H13   H     H_    0.811156 0.322855 0.827160 0.128759
H14   H     H_    0.892764 0.352133 0.981881 0.151388
H15   H     H_    0.426326 0.559380 0.177937 0.147915
H16   H     H_    0.153201 0.537950 0.833506 0.186332
N1    N     N_R   0.852480 0.498790 0.499000 -0.244929
N2    N     N_R   0.148360 0.498710 0.498970 -0.283318
O1    O     O_R   0.381190 0.680360 0.500010 -0.479106
O2    O     O_R   0.413702 0.139032 0.969386 -0.587932
O3    O     O_2   0.848700 0.102019 0.262811 -0.510847
O4    O     O_R   0.896916 0.970087 0.375786 -0.616760
O5    O     O_2   0.111214 0.798744 0.569136 -0.439875
O6    O     O_R   0.115379 0.682820 0.705280 -0.699811
O7    O     O_2   0.538463 0.908707 0.230485 -0.420992
O8    O     O_R   0.668957 0.762801 0.281306 -0.707399
O9    O     O_R   0.618760 0.680340 0.500000 -0.433193
O10   O     O_R   0.323240 0.499990 0.650990 -0.484681
O11   O     O_R   0.560820 0.499960 0.650980 -0.487812
O12   O     O_R   0.381240 0.319660 0.500000 -0.478626
O13   O     O_R   0.618810 0.319640 0.499990 -0.539952
O14   O     O_R   0.439180 0.500040 0.349020 -0.464463
O15   O     O_R   0.676760 0.500010 0.349010 -0.505165
O16   O     O_2   0.239675 0.224448 0.912565 -0.474888

loop_
_geom_bond_atom_site_label_1
_geom_bond_atom_site_label_2
_ccdc_geom_bond_type
C2    C28   A    
C33   O5    D    
C37   C38   A    
C3    H9    S    
C13   H11   S    
C32   O3    D    
C17   C32   S    
Cu1   Cu2   S    
C27   C39   A    
C16   O13   A    
Cu1   O12   S    
C17   C18   A    
C15   C17   A    
Cu2   O15   S    
C29   H3    S    
C31   O16   D    
C16   O12   A    
C3    C5    A    
C21   N1    A    
C12   C30   A    
C25   O14   A    
C26   H14   S    
C35   O8    S    
C6    C31   S    
C5    C6    A    
H6    O4    S    
C40   H1    S    
C12   C23   A    
C20   N2    A    
C9    C10   A    
C26   C40   A    
H7    O6    S    
Cu2   O11   S    
C13   C14   A    
C15   H12   S    
C27   C40   A    
Br1   C5    S    
C20   C21   A    
C37   H13   S    
C1    O1    A    
Br4   C19   S    
C2    C4    S    
C31   O2    S    
C4    O11   A    
Cu1   O10   S    
H5    O2    S    
C22   N1    A    
C2    C23   A    
C25   O15   A    
C19   C20   A    
C4    O10   A    
C29   C30   A    
C26   C36   A    
Br2   C22   S    
C11   C35   S    
C1    C10   S    
Cu1   O14   S    
C38   H4    S    
C24   N2    A    
C36   C37   A    
Cu1   O1    S    
C30   H2    S    
C39   H15   S    
C11   C13   A    
C10   C11   A    
Cu2   O13   S    
C7    C8    A    
C32   O4    S    
Cu1   N2    S    
C22   C24   A    
Cu2   N1    S    
C28   C29   A    
C28   H16   S    
C34   C39   A    
C25   C27   S    
C34   C36   A    
C23   C38   A    
C24   C33   S    
C14   C16   S    
C1    O9    A    
C15   C21   A    
C6    C7    A    
C3    C9    A    
H8    O8    S    
C8    C9    A    
C8    C14   A    
C35   O7    D    
C18   C19   A    
Br3   C18   S    
C33   O6    S    
Cu2   O9    S    
C7    H10   S    
C12   C34   A    
