data_mof_unit_48927.cif
_audit_creation_date              2012-12-10T19:10:05-0500
_audit_creation_method            fapswitch 2.2
_symmetry_space_group_name_H-M    P1
_symmetry_Int_Tables_number       1
_space_group_crystal_system       triclinic
_cell_length_a                    10.894567
_cell_length_b                    10.728782
_cell_length_c                    9.674899
_cell_angle_alpha                 88.321142
_cell_angle_beta                  91.14718
_cell_angle_gamma                 90.812696
_cell_volume                      1130.03816524

loop_
_atom_site_label
_atom_site_type_symbol
_atom_type_description
_atom_site_fract_x
_atom_site_fract_y
_atom_site_fract_z
_atom_type_partial_charge
C1    C     C_R   0.495025 0.262928 0.501429 0.855713
C2    C     C_R   0.185400 0.621368 0.972435 -0.098629
C3    C     C_R   0.931572 0.499304 0.378199 -0.247734
C4    C     C_R   0.871730 0.502652 0.504488 -0.087804
C5    C     C_R   0.942280 0.512568 0.627802 -0.002120
C6    C     C_R   0.068989 0.506913 0.621942 -0.255534
C7    C     C_R   0.128565 0.506294 0.495708 -0.065949
C8    C     C_R   0.058219 0.510676 0.371896 0.019995
C9    C     C_R   0.889754 0.672752 0.795110 -0.152796
C10   C     C_R   0.857516 0.706775 0.927468 -0.144236
C11   C     C_R   0.827673 0.614974 0.026677 -0.103747
C12   C     C_R   0.262679 0.503221 0.498313 0.829284
C13   C     C_R   0.827592 0.488880 0.992972 -0.159298
C14   C     C_R   0.860868 0.454396 0.860839 -0.115997
C15   C     C_R   0.891992 0.546484 0.761420 0.155712
C16   C     C_R   0.560693 0.062859 0.596688 0.084008
C17   C     C_R   0.483497 0.129039 0.505676 -0.188185
C18   C     C_R   0.396554 0.063010 0.422749 -0.029287
C19   C     C_R   0.406887 0.932830 0.417079 -0.271434
C20   C     C_R   0.496389 0.870416 0.497336 -0.109053
C21   C     C_R   0.565903 0.935310 0.594132 0.135254
C22   C     C_3   0.701778 0.935930 0.618890 -0.483515
C23   C     C_R   0.501418 0.737079 0.498519 0.791199
C24   C     C_3   0.695681 0.077055 0.622131 -0.471758
C25   C     C_R   0.545059 0.599646 0.070561 0.232174
C26   C     C_R   0.465699 0.398370 0.079941 -0.079670
C27   C     C_R   0.472316 0.393467 0.933908 0.164309
C28   C     C_R   0.543646 0.600322 0.924825 0.272273
C29   C     C_3   0.502827 0.732452 0.915428 -0.487181
C30   C     C_3   0.505427 0.731842 0.072757 -0.488172
C31   C     C_R   0.737477 0.501238 0.501653 0.779079
C32   C     C_R   0.170104 0.710375 0.072787 -0.151387
C33   C     C_R   0.133172 0.673135 0.205184 -0.145531
C34   C     C_R   0.109355 0.546605 0.236737 0.142309
C35   C     C_R   0.123658 0.457743 0.135509 -0.094213
C36   C     C_R   0.162757 0.495301 0.004094 -0.130958
Cu1   Cu    Cu3+1 0.499990 0.499980 0.640670 0.937334
Cu2   Cu    Cu3+1 0.500010 0.500020 0.359330 0.958287
H1    H     H_    0.213708 0.650352 0.869889 0.123052
H2    H     H_    0.802092 0.642347 0.128719 0.126795
H3    H     H_    0.802383 0.417789 0.069200 0.123829
H4    H     H_    0.864055 0.356597 0.836572 0.109427
H5    H     H_    0.344353 0.879374 0.352556 0.183151
H6    H     H_    0.727736 0.892442 0.720642 0.188539
H7    H     H_    0.752969 0.901605 0.529559 0.191986
H8    H     H_    0.717644 0.114396 0.725827 0.184170
H9    H     H_    0.743239 0.125220 0.534586 0.196840
H10   H     H_    0.435154 0.317670 0.139931 0.169220
H11   H     H_    0.187011 0.808096 0.048031 0.146949
H12   H     H_    0.573910 0.795370 0.869807 0.198143
H13   H     H_    0.409536 0.743232 0.869026 0.205170
H14   H     H_    0.578381 0.793726 0.116041 0.192084
H15   H     H_    0.413892 0.742121 0.118761 0.226260
H16   H     H_    0.120473 0.742886 0.282177 0.128778
H17   H     H_    0.103096 0.360287 0.157965 0.128138
H18   H     H_    0.173397 0.426790 0.926245 0.132560
H19   H     H_    0.879455 0.495623 0.282623 0.157409
H20   H     H_    0.121512 0.510645 0.717034 0.154498
H21   H     H_    0.916037 0.744407 0.719783 0.118666
H22   H     H_    0.856627 0.804170 0.953509 0.121635
N1    N     N_R   0.500790 0.500930 0.147930 -0.202339
N2    N     N_R   0.500790 0.500890 0.852020 -0.205039
O1    O     O_R   0.500000 0.319640 0.618810 -0.596735
O2    O     O_R   0.500010 0.319680 0.381230 -0.572962
O3    O     O_R   0.319640 0.499990 0.618790 -0.612670
O4    O     O_R   0.319650 0.500030 0.381210 -0.540332
O5    O     O_R   0.499990 0.680320 0.618770 -0.581466
O6    O     O_R   0.500000 0.680360 0.381190 -0.586434
O7    O     O_R   0.680350 0.499970 0.618790 -0.571999
O8    O     O_R   0.680360 0.500010 0.381210 -0.593653
C37   C     C_2   0.292348 0.123793 0.346344 0.811418
O9    O     O_2   0.261290 0.229158 0.373432 -0.623872
O10   O     O_R   0.224792 0.057255 0.247814 -0.800802
H23   H     H_    0.152184 0.105559 0.208394 0.322148
C38   C     C_3   0.461784 0.260507 0.884283 -0.344064
C39   C     C_3   0.335559 0.227939 0.819038 -0.282145
C40   C     C_3   0.246976 0.172341 0.925341 -0.901501
H24   H     H_    0.278049 0.078350 0.960877 0.276722
H25   H     H_    0.242420 0.232639 0.016044 0.261537
H26   H     H_    0.153753 0.163196 0.877901 0.240212
H27   H     H_    0.293745 0.311145 0.768092 0.244363
H28   H     H_    0.347206 0.157221 0.739236 0.213404
H29   H     H_    0.542248 0.237253 0.823452 0.188032
H30   H     H_    0.477635 0.192200 0.971564 0.158133

loop_
_geom_bond_atom_site_label_1
_geom_bond_atom_site_label_2
_ccdc_geom_bond_type
Cu2   O8    S    
C16   C21   A    
Cu1   O7    S    
O10   H23   S    
C6    H20   S    
C35   C36   A    
C13   H3    S    
Cu1   N2    S    
C7    C8    A    
C40   H24   S    
C25   C28   A    
C26   C27   A    
C29   C30   S    
C28   C29   S    
C26   N1    A    
C18   C19   A    
C5    C6    A    
C38   H30   S    
C25   C30   S    
C2    C32   A    
C34   C35   A    
C23   O5    A    
C2    H1    S    
C31   O8    A    
C22   H6    S    
Cu2   O4    S    
C16   C17   A    
Cu1   O3    S    
C9    C10   A    
C26   H10   S    
C14   H4    S    
Cu2   N1    S    
C16   C24   S    
C21   C22   S    
C27   C38   S    
C1    O1    A    
Cu1   O1    S    
C19   H5    S    
C33   C34   A    
Cu2   O2    S    
C29   H12   S    
C40   H25   S    
C7    C12   S    
C30   H15   S    
C35   H17   S    
C39   C40   S    
C3    C8    A    
C39   H28   S    
C37   O10   S    
C8    C34   S    
C12   O4    A    
C9    H21   S    
C23   O6    A    
C10   H22   S    
C38   C39   S    
Cu1   Cu2   S    
C36   H18   S    
C27   N2    A    
C20   C23   S    
C17   C18   A    
C25   N1    A    
C3    H19   S    
Cu2   O6    S    
C18   C37   S    
C22   C24   S    
C3    C4    A    
C1    O2    A    
C29   H13   S    
C40   H26   S    
C2    C36   A    
C33   H16   S    
C30   H14   S    
C24   H9    S    
C4    C5    A    
C39   H27   S    
C6    C7    A    
C12   O3    A    
C1    C17   S    
C24   H8    S    
C32   C33   A    
C19   C20   A    
C9    C15   A    
C37   O9    D    
C11   C13   A    
C38   H29   S    
Cu1   O5    S    
C11   H2    S    
C32   H11   S    
C5    C15   S    
C4    C31   S    
C10   C11   A    
C31   O7    A    
C22   H7    S    
C20   C21   A    
C14   C15   A    
C13   C14   A    
C28   N2    A    
