data_mof_unit_45996.cif
_audit_creation_date              2013-03-05T15:55:17-0500
_audit_creation_method            fapswitch 2.2
_symmetry_space_group_name_H-M    P1
_symmetry_Int_Tables_number       1
_space_group_crystal_system       triclinic
_cell_length_a                    6.920037
_cell_length_b                    16.842276
_cell_length_c                    17.042842
_cell_angle_alpha                 100.347894
_cell_angle_beta                  89.806713
_cell_angle_gamma                 90.379102
_cell_volume                      1953.97436686

loop_
_atom_site_label
_atom_site_type_symbol
_atom_site_description
_atom_site_fract_x
_atom_site_fract_y
_atom_site_fract_z
_atom_type_partial_charge
O1    O     O_R   0.494370 0.415690 0.413450 -0.586449
O2    O     O_R   0.819420 0.429360 0.578420 -0.561383
O3    O     O_R   0.994280 0.584310 0.586550 -0.575034
C1    C     C_R   0.649197 0.413921 0.605186 1.046951
O4    O     O_R   0.823790 0.406230 0.413570 -0.577739
O5    O     O_R   0.998670 0.561000 0.420530 -0.600865
C2    C     C_R   0.654468 0.383472 0.384587 1.012475
O6    O     O_R   0.489970 0.439000 0.579470 -0.602161
O7    O     O_3   0.662300 0.550810 0.502470 -0.285632
V1    V     V_3+5 0.935380 0.490570 0.499540 1.245714
O8    O     O_R   0.328650 0.570640 0.421580 -0.606527
C3    C     C_R   0.159018 0.583834 0.392734 0.943653
O9    O     O_R   0.324290 0.593770 0.586430 -0.589224
C4    C     C_R   0.155318 0.615278 0.616685 0.987198
V2    V     V_3+5 0.435930 0.509430 0.500460 1.207485
O10   O     O_3   0.159140 0.449190 0.497530 -0.249174
C5    C     C_R   0.291362 0.740535 0.700982 -0.091855
H1    H     H_    0.414952 0.736720 0.661342 0.144769
C6    C     C_R   0.280951 0.805426 0.765014 -0.100020
H2    H     H_    0.397621 0.849307 0.773486 0.118292
C7    C     C_R   0.120357 0.814626 0.816454 -0.173780
C8    C     C_R   0.972254 0.756497 0.803424 -0.231107
H3    H     H_    0.850502 0.761357 0.844112 0.178322
C9    C     C_R   0.984596 0.689112 0.741385 0.387149
C10   C     C_R   0.143775 0.681838 0.687532 -0.299042
C11   C     C_R   0.138293 0.632179 0.327611 -0.196569
C12   C     C_R   0.127485 0.865880 0.171343 -0.351538
C13   C     C_R   0.321575 0.829138 0.280671 0.158151
C14   C     C_R   0.281603 0.882045 0.226813 0.363948
C15   C     C_R   0.012823 0.797081 0.171694 -0.158758
C16   C     C_R   0.055527 0.741334 0.222410 -0.071644
C17   C     C_R   0.210268 0.757528 0.277608 0.130394
C18   C     C_R   0.248445 0.702507 0.329649 -0.226502
C19   C     C_R   0.991688 0.613518 0.268816 0.127622
C20   C     C_R   0.947091 0.669102 0.218237 0.334994
H4    H     H_    0.360401 0.714755 0.374367 0.151181
H5    H     H_    0.895630 0.785578 0.129229 0.201226
C21   C     C_R   0.629304 0.363363 0.667595 -0.144239
C22   C     C_R   0.636084 0.137090 0.831489 -0.339990
C23   C     C_R   0.811774 0.171405 0.716924 -0.167791
C24   C     C_R   0.779149 0.118662 0.770676 0.295227
C25   C     C_R   0.521658 0.207120 0.833970 0.246459
C26   C     C_R   0.555907 0.259512 0.778613 0.019405
C27   C     C_R   0.704207 0.241810 0.720789 0.111351
C28   C     C_R   0.741835 0.294242 0.666487 -0.172596
C29   C     C_R   0.482679 0.380821 0.725200 -0.105051
C30   C     C_R   0.447839 0.330371 0.780502 -0.084637
H6    H     H_    0.853727 0.279769 0.621607 0.163608
H7    H     H_    0.393836 0.433913 0.727321 0.157277
H8    H     H_    0.922959 0.157527 0.671612 0.143623
H9    H     H_    0.334706 0.347184 0.824172 0.181559
C31   C     C_R   0.773045 0.248851 0.311970 0.330314
C32   C     C_R   0.765396 0.183108 0.247084 0.100833
C33   C     C_R   0.623997 0.182126 0.186539 -0.231388
C34   C     C_R   0.493628 0.246088 0.192419 -0.133512
H10   H     H_    0.386615 0.245308 0.145969 0.169137
C35   C     C_R   0.501846 0.312141 0.255534 0.303106
C36   C     C_R   0.641999 0.313914 0.316637 -0.358264
O11   O     O_R   0.774880 0.061150 0.920630 -0.588014
O12   O     O_R   0.440980 0.093710 0.086500 -0.573212
O13   O     O_R   0.266190 0.938890 0.079390 -0.561085
C37   C     C_R   0.610355 0.115357 0.116360 1.086324
O14   O     O_R   0.445420 0.070740 0.921670 -0.578007
O15   O     O_R   0.270660 0.915760 0.913380 -0.606795
C38   C     C_R   0.615776 0.085716 0.894200 1.018160
O16   O     O_R   0.770400 0.084270 0.086640 -0.607688
O17   O     O_3   0.602590 0.949210 0.997500 -0.266260
V3    V     V_3+5 0.329470 0.009420 0.000470 1.256510
O18   O     O_R   0.940650 0.906250 0.913470 -0.609476
C39   C     C_R   0.109657 0.883407 0.884633 0.937370
O19   O     O_R   0.936210 0.929220 0.078300 -0.576391
C40   C     C_R   0.106012 0.915116 0.106662 1.022735
V4    V     V_3+5 0.828930 0.990510 0.999490 1.221216
O20   O     O_3   0.105680 0.050790 0.002500 -0.262423
C41   C     C_3   0.897452 0.042360 0.760532 -0.917093
H11   H     H_    0.802044 0.989383 0.762135 0.215559
H12   H     H_    0.975323 0.031179 0.702523 0.229463
H13   H     H_    0.007767 0.047174 0.808294 0.272369
N1    N     N_R   0.376009 0.226577 0.894332 0.237517
O21   O     O_R   0.194122 0.222812 0.874837 -0.400547
O22   O     O_R   0.424815 0.245688 0.969035 -0.409782
N2    N     N_R   0.911664 0.248573 0.374407 0.235631
O23   O     O_R   0.095564 0.253424 0.359679 -0.392447
O24   O     O_R   0.853883 0.244592 0.446332 -0.423450
C42   C     C_3   0.902850 0.112941 0.244473 -0.702874
H14   H     H_    0.017235 0.115931 0.199252 0.246445
H15   H     H_    0.973850 0.111643 0.302357 0.269053
H16   H     H_    0.823786 0.054928 0.229472 0.249639
C43   C     C_3   0.364035 0.381114 0.254113 -0.861358
H17   H     H_    0.257174 0.384507 0.303243 0.269035
H18   H     H_    0.445380 0.438929 0.260022 0.226414
H19   H     H_    0.281548 0.373527 0.197421 0.242231
N3    N     N_R   0.841276 0.626445 0.737530 0.233757
O25   O     O_R   0.661631 0.644936 0.754059 -0.413207
O26   O     O_R   0.894925 0.551845 0.732956 -0.405780
C44   C     C_3   0.885675 0.533222 0.257103 -0.808176
H20   H     H_    0.744636 0.540484 0.288743 0.242602
H21   H     H_    0.860300 0.509919 0.192776 0.265409
H22   H     H_    0.970978 0.486040 0.278853 0.210344
C45   C     C_3   0.482754 0.849102 0.341392 -0.902285
H23   H     H_    0.553454 0.908169 0.340954 0.282170
H24   H     H_    0.423627 0.851991 0.402477 0.223555
H25   H     H_    0.596124 0.802029 0.329762 0.252984
N4    N     N_R   0.791285 0.651491 0.162251 0.229814
O27   O     O_R   0.827284 0.635790 0.086077 -0.365455
O28   O     O_R   0.615485 0.644422 0.187537 -0.397533
N5    N     N_R   0.402254 0.951543 0.227008 0.226363
O29   O     O_R   0.330664 0.023713 0.245519 -0.434866
O30   O     O_R   0.579383 0.942250 0.201437 -0.427416

loop_
_geom_bond_atom_site_label_1
_geom_bond_atom_site_label_2
_geom_bond_distance
_ccdc_geom_bond_type
C34   H10   1.084127 S    
O14   C38   1.306638 A    
N3    O25   1.301162 A    
C12   C14   1.419769 A    
C22   C38   1.496758 S    
V4    O20   2.158073 S    
C6    H2    1.083256 S    
C1    O6    1.288609 A    
N4    O28   1.301090 A    
C22   C24   1.425559 A    
C32   C33   1.422282 A    
C31   C32   1.418254 A    
C29   H7    1.083680 S    
C35   C43   1.511441 S    
O15   V3    2.002860 S    
C13   C14   1.418405 A    
C6    C7    1.405172 A    
C19   C44   1.515865 S    
O5    C3    1.288336 A    
C15   C16   1.418777 A    
C28   H6    1.084215 S    
V3    O20   1.700061 S    
V2    O10   2.158086 S    
C44   H22   1.109426 S    
C18   H4    1.081200 S    
O12   C37   1.302839 A    
C19   C20   1.417819 A    
C21   C28   1.402151 A    
C29   C30   1.397105 A    
O8    V2    1.983914 S    
C11   C19   1.421828 A    
C44   H21   1.110217 S    
N5    O29   1.300610 A    
O18   V4    2.005072 S    
O17   V4    1.707541 S    
O15   C39   1.295379 A    
C43   H18   1.110442 S    
O7    V1    2.146963 S    
O11   V4    1.986309 S    
C2    C36   1.494300 S    
C13   C45   1.518501 S    
C25   N1    1.434519 S    
N3    O26   1.301276 A    
C7    C8    1.402966 A    
C12   C15   1.400910 A    
N5    O30   1.300497 A    
O4    V1    2.001556 S    
N4    O27   1.301046 A    
C22   C25   1.419214 A    
C42   H15   1.107358 S    
C37   O16   1.290696 A    
O17   V3    2.146924 S    
C13   C17   1.419854 A    
C9    C10   1.423133 A    
C20   N4    1.435938 S    
O19   V4    1.983860 S    
C30   H9    1.081798 S    
C33   C37   1.490046 S    
C42   H14   1.110112 S    
O16   V4    2.006384 S    
C45   H25   1.110879 S    
C15   H5    1.081895 S    
C3    C11   1.497555 S    
O2    C1    1.303152 A    
C41   H11   1.110680 S    
C24   C41   1.511526 S    
C11   C18   1.399532 A    
C16   C17   1.420134 A    
C44   H20   1.110248 S    
C45   H24   1.110299 S    
C5    H1    1.083147 S    
C43   H19   1.110885 S    
C31   N2    1.435707 S    
C41   H12   1.110915 S    
O3    C4    1.295224 A    
C31   C36   1.418042 A    
O1    V2    2.004610 S    
O13   C40   1.289385 A    
C23   C24   1.402716 A    
C1    C21   1.482620 S    
O6    V2    1.985752 S    
N2    O24   1.301088 A    
C34   C35   1.402707 A    
C26   C27   1.415947 A    
C16   C20   1.416093 A    
C25   C26   1.421153 A    
O2    V1    1.998405 S    
C27   C28   1.411737 A    
O4    C2    1.301449 A    
C42   H16   1.106123 S    
C33   C34   1.399242 A    
O1    C2    1.293140 A    
O5    V1    1.993758 S    
O8    C3    1.309805 A    
O14   V3    1.998509 S    
N1    O22   1.301076 A    
C7    C39   1.488152 S    
C5    C10   1.407032 A    
C17   C18   1.419597 A    
O9    V2    2.005126 S    
O7    V2    1.708249 S    
O19   C40   1.311322 A    
O3    V1    2.003047 S    
V1    O10   1.699960 S    
C9    N3    1.436524 S    
O11   C38   1.289424 A    
O13   V3    1.993748 S    
C35   C36   1.421695 A    
C23   H8    1.084662 S    
C45   H23   1.106940 S    
C5    C6    1.400935 A    
C8    C9    1.408130 A    
C4    C10   1.495070 S    
O18   C39   1.300581 A    
C41   H13   1.109762 S    
C21   C29   1.404751 A    
N1    O21   1.301097 A    
C23   C27   1.395625 A    
O12   V3    2.001479 S    
N2    O23   1.301161 A    
C8    H3    1.083509 S    
C14   N5    1.432781 S    
C32   C42   1.516257 S    
C43   H17   1.109240 S    
O9    C4    1.303372 A    
C26   C30   1.407979 A    
C12   C40   1.502006 S    
