data_mof_unit_49888.cif
_audit_creation_date              2012-12-10T18:57:50-0500
_audit_creation_method            fapswitch 2.2
_symmetry_space_group_name_H-M    P1
_symmetry_Int_Tables_number       1
_space_group_crystal_system       triclinic
_cell_length_a                    10.671405
_cell_length_b                    10.129962
_cell_length_c                    8.891032
_cell_angle_alpha                 90.193113
_cell_angle_beta                  95.421465
_cell_angle_gamma                 90.269714
_cell_volume                      956.811697797

loop_
_atom_site_label
_atom_site_type_symbol
_atom_type_description
_atom_site_fract_x
_atom_site_fract_y
_atom_site_fract_z
_atom_type_partial_charge
C1    C     C_R   0.260831 0.499752 0.501884 0.882766
C2    C     C_R   0.058247 0.602158 0.432331 -0.158509
C3    C     C_R   0.871599 0.497951 0.499616 -0.007973
C4    C     C_R   0.127756 0.499282 0.502617 -0.026127
C5    C     C_R   0.554891 0.068377 0.618151 0.285753
C6    C     C_R   0.424752 0.925688 0.390208 0.267570
C7    C     C_R   0.434186 0.069935 0.381696 0.286231
C8    C     C_R   0.577106 0.931597 0.600347 0.330954
C9    C     C_R   0.739060 0.499752 0.500613 0.843512
C10   C     C_R   0.501225 0.499931 0.219727 0.920111
C11   C     C_R   0.500635 0.500202 0.780452 0.909316
C12   C     C_1   0.501232 0.500114 0.065737 -0.117512
C13   C     C_1   0.500935 0.500470 0.934464 -0.074882
C14   C     C_R   0.069268 0.395095 0.571600 -0.150364
C15   C     C_R   0.929697 0.598375 0.425405 -0.162004
C16   C     C_R   0.940402 0.395346 0.571902 -0.134809
H1    H     H_    0.123089 0.315775 0.627397 0.184309
H2    H     H_    0.875845 0.673481 0.362121 0.210481
H3    H     H_    0.894791 0.316682 0.628964 0.197018
H4    H     H_    0.101791 0.684579 0.381066 0.229707
H5    H     H_    0.675974 0.237365 0.962901 0.390718
H6    H     H_    0.233075 0.665744 0.146701 0.359863
H7    H     H_    0.267903 0.328951 0.144481 0.356595
H8    H     H_    0.902098 0.844106 0.587050 0.383191
N1    N     N_R   0.500000 0.857200 0.500000 -0.221213
N2    N     N_R   0.500000 0.142800 0.500000 -0.216014
O1    O     O_R   0.316770 0.614620 0.499990 -0.570497
O2    O     O_2   0.570730 0.004422 0.912618 -0.192506
O3    O     O_3   0.667807 0.231113 0.851251 -0.530279
O4    O     O_2   0.196811 0.909825 0.238107 -0.264784
O5    O     O_2   0.381602 0.858662 0.099194 -0.206461
O6    O     O_3   0.283484 0.681881 0.244530 -0.566876
O7    O     O_2   0.488760 0.189895 0.131896 -0.257937
O8    O     O_2   0.290516 0.081269 0.090250 -0.147178
O9    O     O_3   0.287985 0.285760 0.243647 -0.528092
O10   O     O_2   0.791788 0.972602 0.783787 -0.237733
O11   O     O_2   0.710903 0.746838 0.768472 -0.253895
O12   O     O_R   0.683230 0.385380 0.500010 -0.616904
O13   O     O_3   0.814441 0.844440 0.539074 -0.568242
O14   O     O_R   0.683230 0.614620 0.500010 -0.546632
O15   O     O_R   0.316770 0.385380 0.499990 -0.568639
O16   O     O_R   0.500010 0.614640 0.285340 -0.542281
O17   O     O_R   0.499990 0.385360 0.714660 -0.538192
O18   O     O_R   0.499990 0.614640 0.714660 -0.578895
O19   O     O_R   0.500010 0.385360 0.285340 -0.541426
O20   O     O_2   0.424619 0.177093 0.826105 -0.245270
S1    S     S_3+6 0.552025 0.120150 0.807370 0.141167
S2    S     S_3+6 0.322108 0.841568 0.244756 0.111560
S3    S     S_3+6 0.374147 0.153267 0.208124 0.156140
S4    S     S_3+6 0.724712 0.871482 0.680891 0.108374
Zn1   Zn    Zn3+2 0.500000 0.653120 0.500000 1.113412
Zn2   Zn    Zn3+2 0.500000 0.346880 0.500000 1.103379

loop_
_geom_bond_atom_site_label_1
_geom_bond_atom_site_label_2
_ccdc_geom_bond_type
H5    O3    S    
O9    S3    S    
C15   H2    S    
C2    C4    A    
N1    Zn1   S    
O2    S1    D    
C11   O17   A    
C6    C7    A    
O11   S4    D    
N2    Zn2   S    
C10   O16   A    
O14   Zn1   S    
C11   C13   S    
O15   Zn2   S    
O16   Zn1   S    
C1    C4    S    
H8    O13   S    
C10   O19   A    
O10   S4    D    
C11   O18   A    
C2    C15   A    
O6    S2    S    
C14   H1    S    
C6    S2    S    
C7    N2    A    
H6    O6    S    
O3    S1    S    
C16   H3    S    
C3    C9    S    
C10   C12   S    
O18   Zn1   S    
C1    O15   A    
C9    O12   A    
C5    S1    S    
O1    Zn1   S    
H7    O9    S    
O5    S2    D    
C4    C14   A    
C14   C16   A    
O17   Zn2   S    
C5    C8    A    
O12   Zn2   S    
C8    N1    A    
C5    N2    A    
C6    N1    A    
C8    S4    S    
O13   S4    S    
C3    C15   A    
C12   C13   T    
C7    S3    S    
O4    S2    D    
C1    O1    A    
C2    H4    S    
O20   S1    D    
O8    S3    D    
O19   Zn2   S    
O7    S3    D    
C9    O14   A    
C3    C16   A    
