data_mof_unit_14094.cif
_audit_creation_date              2012-12-10T19:59:20-0500
_audit_creation_method            fapswitch 2.2
_symmetry_space_group_name_H-M    P1
_symmetry_Int_Tables_number       1
_space_group_crystal_system       triclinic
_cell_length_a                    14.975598
_cell_length_b                    14.246242
_cell_length_c                    10.624018
_cell_angle_alpha                 89.28964
_cell_angle_beta                  91.031349
_cell_angle_gamma                 89.274794
_cell_volume                      2265.86224243

loop_
_atom_site_label
_atom_site_type_symbol
_atom_type_description
_atom_site_fract_x
_atom_site_fract_y
_atom_site_fract_z
_atom_type_partial_charge
C1    C     C_R   0.327416 0.500852 0.502809 0.921315
C2    C     C_R   0.671989 0.499412 0.504166 0.845782
C3    C     C_R   0.190317 0.418396 0.554472 -0.207388
C4    C     C_R   0.815660 0.428522 0.455534 -0.239969
C5    C     C_R   0.098774 0.414276 0.564906 -0.191008
C6    C     C_R   0.907532 0.424590 0.467145 -0.187944
C7    C     C_R   0.047205 0.494436 0.539752 0.114775
C8    C     C_R   0.951358 0.489942 0.542073 0.104194
C9    C     C_R   0.450115 0.105503 0.407042 -0.325088
C10   C     C_R   0.544955 0.099970 0.588903 -0.306617
C11   C     C_R   0.451932 0.204832 0.408825 0.113220
C12   C     C_R   0.547245 0.199098 0.589108 0.113734
C13   C     C_R   0.496438 0.051535 0.498101 0.110681
C14   C     C_R   0.495844 0.893583 0.611839 -0.311136
C15   C     C_R   0.498617 0.894910 0.385433 -0.289336
C16   C     C_R   0.497228 0.794925 0.610616 0.053254
C17   C     C_R   0.500665 0.796117 0.388464 0.050382
C18   C     C_R   0.496340 0.945621 0.498196 0.141460
C19   C     C_R   0.500707 0.500746 0.260356 0.957432
C20   C     C_R   0.499501 0.500060 0.739664 0.927520
C21   C     C_R   0.461839 0.575074 0.062207 -0.112563
C22   C     C_R   0.460395 0.574245 0.933677 -0.056135
C23   C     C_R   0.507171 0.504226 0.128831 -0.035072
C24   C     C_R   0.504723 0.502791 0.871549 -0.105967
C25   C     C_R   0.565375 0.443275 0.067346 -0.241195
C26   C     C_R   0.565001 0.444258 0.936975 -0.246705
C27   C     C_3   0.365611 0.609670 0.923843 0.673647
C28   C     C_3   0.367131 0.610554 0.068731 0.686268
C29   C     C_R   0.086499 0.579174 0.506631 -0.224868
C30   C     C_R   0.903837 0.557085 0.609210 -0.226818
C31   C     C_R   0.178329 0.584617 0.495893 -0.001879
C32   C     C_R   0.811525 0.561250 0.599151 -0.013647
C33   C     C_R   0.230985 0.502199 0.516512 -0.040501
C34   C     C_R   0.767586 0.497340 0.519461 -0.050366
H1    H     H_    0.608357 0.394166 0.119247 0.147828
H2    H     H_    0.610325 0.400354 0.886599 0.189767
H3    H     H_    0.492945 0.928755 0.701430 0.139746
H4    H     H_    0.500107 0.931184 0.295383 0.133271
H5    H     H_    0.495721 0.756526 0.698813 0.178570
H6    H     H_    0.502682 0.758495 0.300900 0.140720
H7    H     H_    0.045207 0.641109 0.487815 0.135027
H8    H     H_    0.938937 0.606541 0.668453 0.142025
H9    H     H_    0.229231 0.355861 0.577590 0.150894
H10   H     H_    0.782192 0.379288 0.394321 0.142944
H11   H     H_    0.068096 0.348857 0.592484 0.129996
H12   H     H_    0.944632 0.373308 0.413848 0.133592
H13   H     H_    0.411206 0.070667 0.334820 0.137985
H14   H     H_    0.584475 0.060368 0.658213 0.145230
N1    N     N_R   0.500000 0.252470 0.500000 -0.129700
N2    N     N_R   0.500000 0.747550 0.500000 -0.095233
O1    O     O_R   0.369060 0.579480 0.500010 -0.586515
O2    O     O_R   0.630940 0.579480 0.499990 -0.615479
O3    O     O_R   0.369050 0.420520 0.500010 -0.632827
O4    O     O_R   0.630950 0.420520 0.499990 -0.640730
O5    O     O_R   0.499990 0.579490 0.316780 -0.623605
O6    O     O_R   0.500010 0.579490 0.683220 -0.604436
O7    O     O_R   0.499980 0.420540 0.316780 -0.623863
O8    O     O_R   0.500020 0.420540 0.683220 -0.630876
Zn1   Zn    Zn3+2 0.500000 0.606140 0.500000 0.995714
Zn2   Zn    Zn3+2 0.500000 0.393860 0.500000 0.943891
O9    O     O_3   0.360308 0.698975 0.867183 -0.797121
H15   H     H_    0.298733 0.722523 0.881472 0.336282
O10   O     O_3   0.310602 0.545279 0.125245 -0.783925
H16   H     H_    0.248795 0.568243 0.107586 0.335690
O11   O     O_3   0.305468 0.546440 0.867871 -0.793508
H17   H     H_    0.319793 0.482224 0.900123 0.317015
O12   O     O_3   0.359443 0.700070 0.122742 -0.790774
H18   H     H_    0.409038 0.739559 0.092425 0.317449
C35   C     C_R   0.214848 0.678112 0.467022 0.104188
C36   C     C_R   0.245184 0.735076 0.565325 -0.097595
C37   C     C_R   0.273444 0.826394 0.539965 -0.135536
C38   C     C_R   0.271171 0.861444 0.416493 -0.136142
C39   C     C_R   0.240301 0.805298 0.318340 -0.087568
C40   C     C_R   0.211735 0.713951 0.343452 -0.076253
H19   H     H_    0.245803 0.708913 0.661348 0.170071
H20   H     H_    0.296583 0.870158 0.616108 0.143598
H21   H     H_    0.292903 0.932230 0.396983 0.130635
H22   H     H_    0.237784 0.832868 0.222942 0.149106
H23   H     H_    0.186138 0.671702 0.267272 0.134227
C41   C     C_R   0.763419 0.630609 0.675836 0.128981
C42   C     C_R   0.761676 0.725845 0.640323 -0.121745
C43   C     C_R   0.717336 0.791568 0.714258 -0.142140
C44   C     C_R   0.675435 0.762674 0.824453 -0.137217
C45   C     C_R   0.677610 0.668007 0.860675 -0.113980
C46   C     C_R   0.721168 0.601934 0.786371 -0.145830
H24   H     H_    0.794238 0.748906 0.555359 0.120836
H25   H     H_    0.715435 0.864876 0.686182 0.132046
H26   H     H_    0.641202 0.813616 0.881648 0.123190
H27   H     H_    0.645765 0.645935 0.946517 0.144584
H28   H     H_    0.722801 0.528764 0.815257 0.119390
C47   C     C_R   0.400547 0.253493 0.307750 0.176077
C48   C     C_R   0.436100 0.260894 0.186522 -0.145360
C49   C     C_R   0.383988 0.298050 0.086817 -0.142122
C50   C     C_R   0.295611 0.325857 0.106889 -0.065264
C51   C     C_R   0.258929 0.315556 0.226207 -0.124237
C52   C     C_R   0.310699 0.277655 0.325615 -0.134738
H29   H     H_    0.504064 0.238114 0.169541 0.113475
H30   H     H_    0.411926 0.304759 0.993920 0.140423
H31   H     H_    0.255132 0.354185 0.029704 0.131263
H32   H     H_    0.189943 0.335342 0.241163 0.130396
H33   H     H_    0.280502 0.265282 0.415805 0.116561
C53   C     C_R   0.607788 0.238802 0.684873 0.167047
C54   C     C_R   0.591233 0.220427 0.812864 -0.192735
C55   C     C_R   0.659056 0.230494 0.903884 -0.172112
C56   C     C_R   0.742889 0.262707 0.868685 -0.140877
C57   C     C_R   0.760055 0.281005 0.741942 -0.170813
C58   C     C_R   0.693791 0.265952 0.650227 -0.110019
H34   H     H_    0.527117 0.193742 0.841228 0.127184
H35   H     H_    0.646077 0.214948 0.001814 0.131119
H36   H     H_    0.794841 0.272227 0.939349 0.130775
H37   H     H_    0.825831 0.303102 0.714211 0.146835
H38   H     H_    0.711048 0.270297 0.551908 0.135769

loop_
_geom_bond_atom_site_label_1
_geom_bond_atom_site_label_2
_ccdc_geom_bond_type
C15   C18   A    
C56   H36   S    
C49   C50   A    
C7    C29   A    
O5    Zn1   S    
C58   H38   S    
C14   C18   A    
C51   C52   A    
C20   O6    A    
C12   N1    A    
C1    C33   S    
C7    C8    S    
O4    Zn2   S    
C19   O7    A    
O11   H17   S    
C3    H9    S    
C38   H21   S    
N1    Zn2   S    
C13   C18   S    
C11   N1    A    
N2    Zn1   S    
C24   C26   A    
C55   H35   S    
C57   C58   A    
C3    C33   A    
O8    Zn2   S    
C43   H25   S    
C39   C40   A    
C1    O3    A    
C9    C13   A    
C27   O9    S    
C53   C54   A    
C47   C52   A    
C20   C24   S    
C39   H22   S    
C31   C33   A    
C54   H34   S    
C42   H24   S    
C2    C34   S    
C44   H26   S    
C21   C22   A    
C35   C36   A    
C10   C12   A    
C55   C56   A    
O3    Zn2   S    
C48   H29   S    
C42   C43   A    
C57   H37   S    
C4    C34   A    
O12   H18   S    
C35   C40   A    
C28   O12   S    
C45   C46   A    
C4    C6    A    
C2    O4    A    
C47   C48   A    
C5    C7    A    
C51   H32   S    
C41   C42   A    
O7    Zn2   S    
C6    C8    A    
C4    H10   S    
C25   C26   A    
C5    H11   S    
C17   H6    S    
C32   C34   A    
C19   C23   S    
C15   H4    S    
C12   C53   S    
C41   C46   A    
C27   O11   S    
O2    Zn1   S    
C32   C41   S    
C9    C11   A    
C44   C45   A    
C53   C58   A    
C1    O1    A    
C36   C37   A    
C2    O2    A    
C25   H1    S    
C26   H2    S    
C21   C28   S    
C9    H13   S    
C40   H23   S    
C21   C23   A    
C10   H14   S    
C14   C16   A    
O1    Zn1   S    
C45   H27   S    
C20   O8    A    
C36   H19   S    
C19   O5    A    
C15   C17   A    
C6    H12   S    
C29   H7    S    
C16   N2    A    
C38   C39   A    
C3    C5    A    
C10   C13   A    
C17   N2    A    
C46   H28   S    
C56   C57   A    
O6    Zn1   S    
C22   C27   S    
C8    C30   A    
O9    H15   S    
C37   C38   A    
C29   C31   A    
C14   H3    S    
C30   C32   A    
C37   H20   S    
C50   H31   S    
C48   C49   A    
C22   C24   A    
C23   C25   A    
C50   C51   A    
C16   H5    S    
O10   H16   S    
C28   O10   S    
C11   C47   S    
C31   C35   S    
C43   C44   A    
C54   C55   A    
C30   H8    S    
C52   H33   S    
C49   H30   S    
C27   C28   S    
