data_mof_unit_13452.cif
_audit_creation_date              2013-03-05T16:07:31-0500
_audit_creation_method            fapswitch 2.2
_symmetry_space_group_name_H-M    P1
_symmetry_Int_Tables_number       1
_space_group_crystal_system       triclinic
_cell_length_a                    10.845462
_cell_length_b                    10.776548
_cell_length_c                    9.612069
_cell_angle_alpha                 89.753771
_cell_angle_beta                  89.042721
_cell_angle_gamma                 92.519981
_cell_volume                      1122.16905125

loop_
_atom_site_label
_atom_site_type_symbol
_atom_site_description
_atom_site_fract_x
_atom_site_fract_y
_atom_site_fract_z
_atom_type_partial_charge
O1    O     O_R   0.499990 0.319660 0.618740 -0.583083
O2    O     O_R   0.500010 0.680340 0.381260 -0.583098
O3    O     O_R   0.499990 0.319630 0.381170 -0.538216
O4    O     O_R   0.500010 0.680370 0.618830 -0.538198
C1    C     C_R   0.503204 0.262768 0.500069 0.808956
C2    C     C_R   0.496798 0.737232 0.499931 0.808910
O5    O     O_R   0.319650 0.500020 0.618780 -0.592204
O6    O     O_R   0.680350 0.499980 0.381220 -0.592215
O7    O     O_R   0.319640 0.500000 0.381210 -0.542510
O8    O     O_R   0.680360 0.500000 0.618790 -0.542478
C3    C     C_R   0.262648 0.501251 0.500632 0.869743
C4    C     C_R   0.737351 0.498754 0.499368 0.869816
Cu1   Cu    Cu3+1 0.500000 0.500020 0.640660 1.012858
Cu2   Cu    Cu3+1 0.500000 0.499980 0.359340 1.012858
H1    H     H_    0.336675 0.837027 0.018221 0.200342
H2    H     H_    0.663243 0.162557 0.981355 0.200265
C5    C     C_R   0.271851 0.829036 0.231289 -0.070999
C6    C     C_R   0.728301 0.170676 0.768377 -0.071334
H3    H     H_    0.319381 0.915452 0.259549 0.171787
H4    H     H_    0.680928 0.084200 0.740032 0.171783
C7    C     C_R   0.201598 0.761232 0.331233 -0.178867
C8    C     C_R   0.798572 0.238594 0.668542 -0.179057
H5    H     H_    0.195499 0.795621 0.436638 0.129293
H6    H     H_    0.804843 0.204233 0.563138 0.129515
C9    C     C_R   0.139840 0.649127 0.294905 0.113660
C10   C     C_R   0.860133 0.350771 0.704979 0.113606
C11   C     C_R   0.147962 0.606491 0.157243 -0.056214
C12   C     C_R   0.851794 0.393375 0.842639 -0.056552
H7    H     H_    0.100409 0.520403 0.127554 0.164804
H8    H     H_    0.899192 0.479521 0.872409 0.164812
C13   C     C_R   0.219262 0.673933 0.057996 -0.169317
C14   C     C_R   0.780472 0.325818 0.941774 -0.169168
H9    H     H_    0.226637 0.639945 0.952477 0.154639
H10   H     H_    0.772926 0.359778 0.047289 0.154533
C15   C     C_R   0.281381 0.784997 0.095080 -0.039507
C16   C     C_R   0.718552 0.214677 0.904582 -0.039068
C17   C     C_R   0.938492 0.572755 0.401950 0.370024
C18   C     C_R   0.061506 0.427275 0.598073 0.370083
C19   C     C_R   0.871540 0.497183 0.498866 -0.134262
C20   C     C_R   0.128458 0.502831 0.501138 -0.134271
C21   C     C_R   0.931897 0.425515 0.598648 -0.163133
C22   C     C_R   0.068098 0.574486 0.401344 -0.163167
C23   C     C_R   0.577656 0.064820 0.402193 0.435954
C24   C     C_R   0.422348 0.935180 0.597807 0.435969
C25   C     C_R   0.568636 0.936275 0.401558 -0.189462
C26   C     C_R   0.431370 0.063726 0.598444 -0.189357
H11   H     H_    0.624511 0.886915 0.327421 0.222305
H12   H     H_    0.375496 0.113085 0.672581 0.222295
C27   C     C_R   0.493728 0.871087 0.499376 -0.228023
C28   C     C_R   0.506276 0.128914 0.500624 -0.227941
C29   C     C_R   0.439149 0.407093 0.076065 0.354122
C30   C     C_R   0.560832 0.592922 0.923938 0.354019
C31   C     C_R   0.438286 0.407340 0.928767 0.333950
C32   C     C_R   0.561709 0.592662 0.071236 0.333927
N1    N     N_R   0.500030 0.500030 0.852070 -0.328656
N2    N     N_R   0.499970 0.499970 0.147930 -0.328676
O9    O     O_3   0.372350 0.311569 0.866806 -0.664733
H13   H     H_    0.341198 0.342837 0.778923 0.399628
O10   O     O_3   0.627646 0.688432 0.133199 -0.664720
H14   H     H_    0.658809 0.657157 0.221075 0.399626
O11   O     O_3   0.873615 0.646653 0.313210 -0.734679
H15   H     H_    0.928892 0.710028 0.266926 0.348438
O12   O     O_3   0.126391 0.353400 0.686837 -0.734692
H16   H     H_    0.071104 0.290167 0.733325 0.348492
O13   O     O_3   0.659037 0.122735 0.307994 -0.701533
H17   H     H_    0.683938 0.206231 0.342705 0.313223
O14   O     O_3   0.340966 0.877265 0.692003 -0.701552
H18   H     H_    0.316058 0.793771 0.657286 0.313203
N3    N     N_R   0.372315 0.308735 0.148463 0.192382
O15   O     O_R   0.409676 0.196042 0.137472 -0.324279
O16   O     O_R   0.259523 0.324890 0.190078 -0.356307
N4    N     N_R   0.627599 0.691330 0.851549 0.192350
O17   O     O_R   0.590266 0.804021 0.862714 -0.324348
O18   O     O_R   0.740333 0.675184 0.809686 -0.356293

loop_
_geom_bond_atom_site_label_1
_geom_bond_atom_site_label_2
_geom_bond_distance
_ccdc_geom_bond_type
C24   C27   1.414110 A    
C9    C22   1.486761 S    
O5    Cu1   1.970744 S    
Cu2   N2    2.032093 S    
O7    Cu2   1.963866 S    
C13   H9    1.082740 S    
C23   C28   1.414113 A    
C30   N4    1.429142 S    
C11   H7    1.083154 S    
O7    C3    1.295004 A    
C26   C28   1.398633 A    
C10   C12   1.405235 A    
O11   H15   0.988046 S    
C30   N1    1.370135 A    
C25   C27   1.398633 A    
O6    C4    1.302343 A    
C29   N2    1.370099 A    
C23   O13   1.381436 S    
Cu1   N1    2.032093 S    
C4    C19   1.456110 S    
C20   C22   1.415630 A    
O10   H14   0.978973 S    
C17   C19   1.406138 A    
C6    C8    1.399242 A    
Cu1   Cu2   2.704070 S    
H2    C16   1.082537 S    
C18   C20   1.406154 A    
C23   C25   1.384473 A    
O9    H13   0.978965 S    
O2    C2    1.298005 A    
O3    Cu2   1.953942 S    
O8    C4    1.295000 A    
O1    C1    1.298002 A    
C31   O9    1.373277 S    
C14   C16   1.397959 A    
C8    H6    1.082288 S    
H1    C15   1.082529 S    
C5    H3    1.082321 S    
C30   C32   1.416026 A    
O5    C3    1.302348 A    
C6    H4    1.082314 S    
C32   O10   1.373283 S    
C31   N1    1.381306 A    
C2    C27   1.444324 S    
N3    O15   1.301220 A    
O2    Cu2   1.955940 S    
C13   C15   1.397950 A    
C1    C28   1.444323 S    
O4    C2    1.296160 A    
O1    Cu1   1.955940 S    
C17   C22   1.404857 A    
C11   C13   1.398645 A    
C3    C20   1.456129 S    
C26   H12   1.084039 S    
C12   C14   1.398656 A    
C5    C15   1.398276 A    
C17   O11   1.385762 S    
C19   C21   1.415610 A    
C18   C21   1.404884 A    
N4    O18   1.299970 A    
O13   H17   0.988992 S    
C8    C10   1.403684 A    
C25   H11   1.084042 S    
O4    Cu1   1.953942 S    
N3    O16   1.299892 A    
C7    C9    1.403691 A    
N4    O17   1.301222 A    
C24   O14   1.381434 S    
O6    Cu2   1.970743 S    
C29   N3    1.429135 S    
C29   C31   1.416018 A    
C14   H10   1.082735 S    
O12   H16   0.987953 S    
C6    C16   1.398279 A    
C7    H5    1.082282 S    
O8    Cu1   1.963865 S    
C18   O12   1.385805 S    
C5    C7    1.399244 A    
O14   H18   0.989014 S    
C10   C21   1.486738 S    
C24   C26   1.384478 A    
C32   N2    1.381289 A    
O3    C1    1.296163 A    
C9    C11   1.405229 A    
C12   H8    1.083152 S    
