data_mof_unit_30182.cif
_audit_creation_date              2012-12-10T20:26:31-0500
_audit_creation_method            fapswitch 2.2
_symmetry_space_group_name_H-M    P1
_symmetry_Int_Tables_number       1
_space_group_crystal_system       triclinic
_cell_length_a                    10.694488
_cell_length_b                    10.676445
_cell_length_c                    9.877246
_cell_angle_alpha                 89.851204
_cell_angle_beta                  89.241889
_cell_angle_gamma                 90.159624
_cell_volume                      1127.66817781

loop_
_atom_site_label
_atom_site_type_symbol
_atom_type_description
_atom_site_fract_x
_atom_site_fract_y
_atom_site_fract_z
_atom_type_partial_charge
C1    C     C_R   0.503508 0.259971 0.500114 0.878510
C2    C     C_R   0.564232 0.588322 0.070756 -0.141833
C3    C     C_R   0.565573 0.587386 0.926696 -0.159126
C4    C     C_R   0.262645 0.506281 0.500536 0.940235
C5    C     C_R   0.443229 0.405807 0.931041 0.165226
C6    C     C_3   0.308525 0.363131 0.934696 -0.257272
C7    C     C_3   0.320146 0.351760 0.088121 -0.541132
C8    C     C_R   0.503850 0.739973 0.499826 0.875467
C9    C     C_R   0.737524 0.499106 0.499016 0.923089
C10   C     C_2   0.933464 0.539446 0.389833 -0.151867
C11   C     C_2   0.869722 0.493616 0.496021 -0.332665
C12   C     C_R   0.522881 0.128546 0.500589 -0.104013
C13   C     C_2   0.068170 0.533671 0.386688 -0.162145
C14   C     C_2   0.131595 0.527580 0.502026 -0.347544
C15   C     C_R   0.520358 0.063406 0.622838 0.141344
C16   C     C_R   0.206791 0.456515 0.899351 0.230764
C17   C     C_R   0.087655 0.409503 0.868101 -0.184637
C18   C     C_R   0.986129 0.490404 0.853287 -0.174406
C19   C     C_R   0.002809 0.619492 0.866270 -0.122296
C20   C     C_R   0.120573 0.667713 0.896785 -0.183341
C21   C     C_R   0.221621 0.586957 0.915518 -0.101163
C22   C     C_R   0.549093 0.065188 0.379248 -0.228467
C23   C     C_R   0.549365 0.935657 0.379080 -0.231480
C24   C     C_R   0.523381 0.871385 0.500243 -0.099360
C25   C     C_R   0.520673 0.935661 0.622660 0.130123
C26   C     C_3   0.429253 0.927414 0.738220 -0.483634
C27   C     C_3   0.428634 0.069367 0.738185 -0.499466
C28   C     C_R   0.449176 0.402052 0.072618 0.194679
H1    H     H_    0.886511 0.577864 0.302103 0.168970
H2    H     H_    0.087734 0.541434 0.600065 0.179899
H3    H     H_    0.560827 0.114558 0.283928 0.170410
H4    H     H_    0.561258 0.886937 0.283708 0.164182
H5    H     H_    0.338245 0.885420 0.708917 0.204158
H6    H     H_    0.471694 0.886420 0.830388 0.198332
H7    H     H_    0.337328 0.109907 0.708320 0.196377
H8    H     H_    0.072426 0.309553 0.859225 0.124744
H9    H     H_    0.894386 0.452938 0.831793 0.149647
H10   H     H_    0.924272 0.681998 0.853747 0.131425
H11   H     H_    0.133066 0.767687 0.908801 0.133160
H12   H     H_    0.470490 0.110431 0.830513 0.201255
H13   H     H_    0.309538 0.626899 0.946124 0.132939
H14   H     H_    0.613521 0.661359 0.124027 0.141034
H15   H     H_    0.616262 0.659418 0.871515 0.148013
H16   H     H_    0.296758 0.270494 0.885461 0.146236
H17   H     H_    0.258230 0.414713 0.147880 0.220727
H18   H     H_    0.320250 0.253065 0.124267 0.189895
H19   H     H_    0.913590 0.448712 0.581452 0.147397
H20   H     H_    0.114453 0.531889 0.288236 0.172710
N1    N     N_R   0.499170 0.499140 0.142800 -0.101931
N2    N     N_R   0.499170 0.499180 0.857150 -0.111044
O1    O     O_R   0.500020 0.316790 0.614690 -0.618266
O2    O     O_R   0.500000 0.316760 0.385350 -0.620028
O3    O     O_R   0.319080 0.500020 0.614640 -0.611048
O4    O     O_R   0.319070 0.499980 0.385300 -0.619474
O5    O     O_R   0.500000 0.683240 0.614650 -0.622499
O6    O     O_R   0.499980 0.683210 0.385310 -0.628946
O7    O     O_R   0.680930 0.500020 0.614700 -0.625790
O8    O     O_R   0.680920 0.499980 0.385360 -0.613734
Zn1   Zn    Zn3+2 0.500010 0.500020 0.653130 0.939509
Zn2   Zn    Zn3+2 0.499990 0.499980 0.346870 0.938150

loop_
_geom_bond_atom_site_label_1
_geom_bond_atom_site_label_2
_ccdc_geom_bond_type
C13   H20   S    
C23   C24   A    
C6    C7    S    
C8    C24   S    
C2    N1    A    
O5    Zn1   S    
C4    O3    A    
C5    C28   A    
C9    C11   S    
C28   N1    A    
C26   H5    S    
C11   H19   S    
C19   C20   A    
C12   C15   A    
C27   H12   S    
C4    O4    A    
C23   H4    S    
C8    O6    A    
C2    C3    A    
O3    Zn1   S    
O4    Zn2   S    
C13   C14   D    
C24   C25   A    
C1    O1    A    
C10   H1    S    
C3    H15   S    
C26   C27   S    
C16   C21   A    
N1    Zn2   S    
C2    H14   S    
C21   H13   S    
N2    Zn1   S    
C7    H17   S    
C8    O5    A    
C17   H8    S    
C3    N2    A    
C14   H2    S    
C17   C18   A    
O8    Zn2   S    
C9    O7    A    
C4    C14   S    
C5    C6    S    
C1    O2    A    
C5    N2    A    
C15   C25   A    
O7    Zn1   S    
C10   C11   D    
C6    C16   S    
C7    H18   S    
C12   C22   A    
C19   H10   S    
O1    Zn1   S    
C20   C21   A    
C9    O8    A    
C22   H3    S    
C20   H11   S    
C22   C23   A    
C18   C19   A    
C6    H16   S    
O2    Zn2   S    
C27   H7    S    
C25   C26   S    
C15   C27   S    
C26   H6    S    
C1    C12   S    
C7    C28   S    
O6    Zn2   S    
C18   H9    S    
C16   C17   A    
C10   C13   S    
