data_mof_unit_58542.cif
_audit_creation_date              2012-12-11T15:14:57-0500
_audit_creation_method            fapswitch 2.2
_symmetry_space_group_name_H-M    P1
_symmetry_Int_Tables_number       1
_space_group_crystal_system       triclinic
_cell_length_a                    11.333356
_cell_length_b                    11.040114
_cell_length_c                    18.428764
_cell_angle_alpha                 90.412927
_cell_angle_beta                  89.85037
_cell_angle_gamma                 120.503226
_cell_volume                      1986.65604047

loop_
_atom_site_label
_atom_site_type_symbol
_atom_type_description
_atom_site_fract_x
_atom_site_fract_y
_atom_site_fract_z
_atom_type_partial_charge
C1    C     C_R   0.520416 0.459237 0.645626 0.534942
C2    C     C_R   0.455010 0.520035 0.355599 0.543208
C3    C     C_R   0.475182 0.924723 0.142537 0.532043
C4    C     C_R   0.119519 0.575816 0.363325 0.539428
C5    C     C_3   0.510771 0.088146 0.458710 0.016343
C6    C     C_3   0.604648 0.556861 0.031523 0.014008
C7    C     C_3   0.946479 0.392103 0.457938 0.025421
C8    C     C_3   0.515456 0.111520 0.041816 0.000826
C9    C     C_3   0.617088 0.545276 0.467200 -0.000813
C10   C     C_3   0.948478 0.394226 0.040670 0.029588
C11   C     C_3   0.016978 0.403016 0.967175 0.030058
C12   C     C_R   0.884296 0.457272 0.863336 0.549715
C13   C     C_3   0.592011 0.626869 0.526828 0.021745
C14   C     C_3   0.404051 0.034196 0.983310 0.024732
C15   C     C_3   0.015817 0.395918 0.530256 0.029675
C16   C     C_3   0.585326 0.636441 0.969591 0.021330
C17   C     C_3   0.400678 0.019302 0.518087 0.024029
C18   C     C_3   0.619169 0.093274 0.511331 -0.130364
C19   C     C_3   0.528655 0.418561 0.986893 -0.121973
C20   C     C_3   0.877375 0.466489 0.494008 -0.142028
C21   C     C_3   0.624432 0.114512 0.989707 -0.132827
C22   C     C_3   0.538241 0.408340 0.512344 -0.125123
C23   C     C_R   0.545239 0.067930 0.644050 0.536388
C24   C     C_3   0.874205 0.465862 0.007923 -0.144333
C25   C     C_3   0.139513 0.547346 0.988689 -0.159750
C26   C     C_3   0.458277 0.594736 0.488983 -0.121563
C27   C     C_3   0.375307 0.892135 0.012073 -0.137353
C28   C     C_3   0.140362 0.538963 0.509714 -0.153760
C29   C     C_3   0.449493 0.607356 0.003602 -0.142499
C30   C     C_3   0.367418 0.873309 0.492097 -0.149593
C31   C     C_3   0.508184 0.020264 0.569809 0.058848
C32   C     C_3   0.506088 0.499256 0.926623 0.055847
C33   C     C_3   0.948521 0.472396 0.565366 0.057571
C34   C     C_R   0.519605 0.461145 0.853201 0.535526
C35   C     C_3   0.512578 0.034213 0.932183 0.056570
C36   C     C_3   0.510394 0.491255 0.570262 0.054933
C37   C     C_3   0.944695 0.476041 0.935328 0.055312
C38   C     C_3   0.068891 0.539130 0.061676 0.049116
C39   C     C_3   0.482530 0.508529 0.431519 0.060748
C40   C     C_3   0.488883 0.970204 0.068207 0.058974
C41   C     C_3   0.068729 0.536610 0.438245 0.048207
C42   C     C_3   0.467131 0.523084 0.063500 0.060247
C43   C     C_3   0.478989 0.942421 0.435111 0.055691
C44   C     C_3   0.474999 0.875416 0.544513 -0.153676
C45   C     C_R   0.886773 0.457037 0.636663 0.550226
C46   C     C_3   0.370413 0.468742 0.959106 -0.152615
C47   C     C_3   0.071773 0.613787 0.545991 -0.140874
C48   C     C_3   0.483022 0.893481 0.959833 -0.153165
C49   C     C_3   0.376965 0.457770 0.533719 -0.150176
C50   C     C_3   0.065540 0.619146 0.956225 -0.141805
C51   C     C_3   0.996996 0.611351 0.028809 -0.131231
C52   C     C_3   0.402432 0.373737 0.475453 -0.131683
C53   C     C_3   0.595962 0.971102 0.017330 -0.128931
C54   C     C_3   0.002124 0.611332 0.474670 -0.133515
C55   C     C_3   0.389990 0.386291 0.019769 -0.129335
C56   C     C_R   0.546998 0.072155 0.856814 0.535905
C57   C     C_3   0.587041 0.946455 0.486031 -0.133942
C58   C     C_3   0.530530 0.189173 0.397056 -0.380672
C59   C     C_3   0.735494 0.631024 0.075495 -0.387827
C60   C     C_3   0.887647 0.268358 0.404055 -0.364479
C61   C     C_3   0.528122 0.212535 0.103046 -0.386169
C62   C     C_3   0.745382 0.620244 0.421164 -0.398059
C63   C     C_3   0.893628 0.266144 0.090348 -0.362365
C64   C     C_3   0.019394 0.276706 0.934457 -0.384841
C65   C     C_3   0.706253 0.760010 0.563289 -0.392036
C66   C     C_3   0.286019 0.053922 0.960673 -0.392956
C67   C     C_R   0.431351 0.538955 0.137386 0.543625
C68   C     C_3   0.016677 0.268266 0.560765 -0.386788
C69   C     C_3   0.701436 0.767896 0.933739 -0.391228
C70   C     C_3   0.285292 0.044661 0.539525 -0.393381
C71   C     C_R   0.459615 0.887456 0.361919 0.527868
C72   C     C_R   0.120060 0.575961 0.136707 0.540472
Cr1   Cr    Cr6+3 0.769930 0.543130 0.750000 0.987813
Cr2   Cr    Cr6+3 0.773200 0.230070 0.750000 0.988239
Cr3   Cr    Cr6+3 0.456870 0.226800 0.750000 0.988473
Cr4   Cr    Cr6+3 0.543130 0.769930 0.250000 0.975318
Cr5   Cr    Cr6+3 0.230070 0.773200 0.250000 0.988389
Cr6   Cr    Cr6+3 0.226800 0.456870 0.250000 0.982496
H1    H     H_    0.455608 0.790495 0.582974 0.113255
H2    H     H_    0.019859 0.712289 0.452790 0.125529
H3    H     H_    0.308352 0.285847 0.042684 0.121681
H4    H     H_    0.662406 0.920340 0.464672 0.129555
H5    H     H_    0.717352 0.185902 0.527494 0.111536
H6    H     H_    0.558559 0.341218 0.970954 0.108676
H7    H     H_    0.768608 0.426835 0.490803 0.101279
H8    H     H_    0.721550 0.203710 0.970910 0.114529
H9    H     H_    0.564070 0.329292 0.530497 0.106669
H10   H     H_    0.765498 0.429108 0.012368 0.097620
H11   H     H_    0.241267 0.600170 0.965546 0.107040
H12   H     H_    0.283900 0.435806 0.921661 0.124088
H13   H     H_    0.428993 0.667278 0.466018 0.097767
H14   H     H_    0.274664 0.808273 0.030140 0.112374
H15   H     H_    0.245663 0.586202 0.527163 0.104299
H16   H     H_    0.421161 0.680372 0.027272 0.092934
H17   H     H_    0.267110 0.795099 0.471732 0.108869
H18   H     H_    0.430642 0.176720 0.381341 0.147086
H19   H     H_    0.604208 0.298597 0.411281 0.115159
H20   H     H_    0.574932 0.166914 0.348637 0.154624
H21   H     H_    0.747738 0.558073 0.111375 0.144282
H22   H     H_    0.818153 0.683362 0.035901 0.119264
H23   H     H_    0.124096 0.705711 0.583224 0.137020
H24   H     H_    0.740005 0.717513 0.108428 0.162190
H25   H     H_    0.837107 0.288849 0.358154 0.151685
H26   H     H_    0.816220 0.168068 0.429174 0.119579
H27   H     H_    0.970365 0.251580 0.383671 0.159076
H28   H     H_    0.600212 0.322136 0.090009 0.124548
H29   H     H_    0.425986 0.197503 0.116000 0.152796
H30   H     H_    0.570621 0.193793 0.153046 0.134308
H31   H     H_    0.828492 0.687499 0.458315 0.126205
H32   H     H_    0.763090 0.545668 0.389073 0.143958
H33   H     H_    0.740963 0.695278 0.383482 0.159816
H34   H     H_    0.464523 0.808934 0.920736 0.114470
H35   H     H_    0.829979 0.272563 0.134343 0.152244
H36   H     H_    0.836298 0.168557 0.059446 0.108998
H37   H     H_    0.978653 0.256496 0.113213 0.159011
H38   H     H_    0.068291 0.303106 0.880196 0.151156
H39   H     H_    0.076231 0.244425 0.970879 0.111898
H40   H     H_    0.913410 0.186840 0.928160 0.144326
H41   H     H_    0.769383 0.840408 0.522778 0.105078
H42   H     H_    0.663613 0.802643 0.603421 0.141201
H43   H     H_    0.777191 0.734945 0.591795 0.162622
H44   H     H_    0.220233 0.970923 0.920992 0.130585
H45   H     H_    0.285600 0.421836 0.567886 0.121929
H46   H     H_    0.223580 0.045600 0.008877 0.108838
H47   H     H_    0.325045 0.156884 0.934530 0.174117
H48   H     H_    0.070849 0.234597 0.522746 0.114337
H49   H     H_    0.068145 0.294412 0.614441 0.148796
H50   H     H_    0.910374 0.179759 0.567664 0.143262
H51   H     H_    0.661036 0.808056 0.891441 0.142324
H52   H     H_    0.761376 0.850360 0.974403 0.106342
H53   H     H_    0.774235 0.741758 0.907830 0.158362
H54   H     H_    0.223162 0.034697 0.491015 0.109721
H55   H     H_    0.218330 0.965228 0.579939 0.131939
H56   H     H_    0.114365 0.713287 0.920948 0.134738
H57   H     H_    0.327006 0.149802 0.564413 0.172876
H58   H     H_    0.009293 0.708774 0.053519 0.129510
H59   H     H_    0.322824 0.272427 0.451765 0.121030
H60   H     H_    0.671013 0.944114 0.037880 0.127411
O1    O     O_R   0.913270 0.574260 0.668550 -0.518790
O2    O     O_R   0.574260 0.913270 0.331450 -0.525248
O3    O     O_R   0.086730 0.660990 0.168550 -0.515206
O4    O     O_R   0.339010 0.425740 0.331450 -0.526779
O5    O     O_R   0.640160 0.530400 0.673300 -0.524590
O6    O     O_R   0.890240 0.359840 0.826700 -0.504004
O7    O     O_R   0.469600 0.109760 0.673300 -0.508741
O8    O     O_R   0.640160 0.530400 0.826700 -0.525274
O9    O     O_R   0.890240 0.359840 0.673300 -0.502680
O10   O     O_R   0.469600 0.109760 0.826700 -0.508751
O11   O     O_R   0.530400 0.640160 0.173300 -0.510235
O12   O     O_R   0.660990 0.086730 0.831450 -0.532396
O13   O     O_R   0.359840 0.890240 0.326700 -0.515885
O14   O     O_R   0.109760 0.469600 0.173300 -0.513928
O15   O     O_R   0.530400 0.640160 0.326700 -0.521183
O16   O     O_R   0.359840 0.890240 0.173300 -0.519332
O17   O     O_R   0.109760 0.469600 0.326700 -0.506321
O18   O     O_3   0.666667 0.333333 0.750000 -0.295287
O19   O     O_3   0.333333 0.666667 0.250000 -0.321879
O20   O     O_R   0.425740 0.339010 0.668550 -0.529633
O21   O     O_R   0.913270 0.574260 0.831450 -0.518406
O22   O     O_R   0.660990 0.086730 0.668550 -0.530530
O23   O     O_R   0.425740 0.339010 0.831450 -0.530676
O24   O     O_R   0.574260 0.913270 0.168550 -0.530456
O25   O     O_R   0.086730 0.660990 0.331450 -0.517542
O26   O     O_R   0.339010 0.425740 0.168550 -0.528836

loop_
_geom_bond_atom_site_label_1
_geom_bond_atom_site_label_2
_ccdc_geom_bond_type
C27   C48   S    
Cr5   O25   S    
C28   C47   S    
Cr6   O26   S    
C64   H38   S    
C29   C42   S    
C67   O11   A    
C59   H21   S    
Cr3   O18   S    
Cr4   O24   S    
C10   C63   S    
C58   H20   S    
C9    C39   S    
C34   O23   A    
Cr5   O13   S    
Cr6   O14   S    
C13   C65   S    
Cr3   O7    S    
C6    C19   S    
C23   O7    A    
C5    C58   S    
C47   H23   S    
C1    O20   A    
C62   H31   S    
C59   H22   S    
Cr6   O4    S    
C29   H16   S    
Cr5   O16   S    
C9    C22   S    
C5    C17   S    
C4    C41   S    
C19   C32   S    
C49   H45   S    
Cr4   O15   S    
C45   O1    A    
C33   C45   S    
C30   C43   S    
C12   C37   S    
C11   C37   S    
C61   H30   S    
C9    C13   S    
C25   C50   S    
C58   H18   S    
Cr6   O19   S    
C3    O24   A    
C63   H36   S    
C67   O26   A    
C65   H42   S    
C71   O13   A    
C62   H33   S    
C69   H52   S    
C72   O14   A    
C46   C55   S    
C70   H55   S    
C8    C14   S    
C66   H44   S    
C65   H43   S    
C14   C27   S    
C55   H3    S    
C60   H25   S    
C68   H50   S    
C8    C61   S    
C63   H37   S    
C24   C51   S    
C7    C15   S    
C39   C52   S    
C5    C43   S    
C17   C70   S    
C20   H7    S    
C17   C30   S    
C30   C44   S    
C72   O3    A    
C58   H19   S    
C61   H29   S    
C35   C48   S    
C2    C39   S    
C17   C31   S    
C18   H5    S    
C54   H2    S    
Cr4   O2    S    
C14   C66   S    
C48   C53   S    
C38   C72   S    
Cr4   O19   S    
C31   C44   S    
C9    C62   S    
Cr2   O9    S    
C13   C36   S    
C24   C37   S    
C11   C64   S    
C50   H56   S    
C26   C49   S    
C14   C35   S    
C38   C51   S    
Cr1   O1    S    
C10   C24   S    
C16   C29   S    
C3    O16   A    
C64   H39   S    
C12   O6    A    
C28   H15   S    
C32   C34   S    
C56   O10   A    
C36   C49   S    
C30   H17   S    
C1    O5    A    
C25   C38   S    
C51   H58   S    
C18   C57   S    
C62   H32   S    
C44   C57   S    
C69   H53   S    
C49   C52   S    
C23   O22   A    
C70   H54   S    
C52   H59   S    
C65   H41   S    
C4    O25   A    
Cr2   O18   S    
C27   H14   S    
C50   C51   S    
C22   H9    S    
C61   H28   S    
C24   H10   S    
C68   H49   S    
C26   C39   S    
C47   C54   S    
C21   C35   S    
C20   C33   S    
Cr3   O20   S    
C20   C54   S    
C48   H34   S    
C3    C40   S    
C40   C53   S    
C2    O15   A    
C53   H60   S    
C70   H57   S    
C33   C47   S    
C66   H46   S    
C13   C26   S    
C56   O12   A    
C19   H6    S    
C68   H48   S    
C7    C60   S    
C22   C52   S    
C29   C46   S    
Cr1   O5    S    
C19   C55   S    
Cr2   O6    S    
C21   H8    S    
C43   C71   S    
C27   C40   S    
C35   C56   S    
C45   O9    A    
C59   H24   S    
C32   C46   S    
C6    C59   S    
C44   H1    S    
C16   C69   S    
C8    C21   S    
C28   C41   S    
C71   O2    A    
C46   H12   S    
Cr3   O10   S    
C16   C32   S    
C22   C36   S    
Cr1   O21   S    
C25   H11   S    
C66   H47   S    
Cr2   O22   S    
Cr1   O8    S    
C10   C38   S    
C26   H13   S    
C21   C53   S    
C37   C50   S    
C34   O8    A    
C15   C28   S    
C42   C67   S    
C64   H40   S    
Cr4   O11   S    
C5    C18   S    
C42   C55   S    
C2    O4    A    
C15   C68   S    
Cr1   O18   S    
Cr3   O23   S    
C7    C41   S    
C12   O21   A    
Cr6   O17   S    
Cr5   O3    S    
C41   C54   S    
C10   C11   S    
C43   C57   S    
C6    C16   S    
C23   C31   S    
C63   H35   S    
C4    O17   A    
C69   H51   S    
C7    C20   S    
C6    C42   S    
C11   C25   S    
C57   H4    S    
Cr2   O12   S    
C18   C31   S    
C8    C40   S    
C60   H26   S    
C15   C33   S    
C60   H27   S    
C1    C36   S    
Cr5   O19   S    
