data_mof_unit_54565.cif
_audit_creation_date              2012-12-11T15:48:38-0500
_audit_creation_method            fapswitch 2.2
_symmetry_space_group_name_H-M    P1
_symmetry_Int_Tables_number       1
_space_group_crystal_system       triclinic
_cell_length_a                    10.943841
_cell_length_b                    10.977524
_cell_length_c                    18.821065
_cell_angle_alpha                 90.630597
_cell_angle_beta                  90.140841
_cell_angle_gamma                 60.223302
_cell_volume                      1962.42431583

loop_
_atom_site_label
_atom_site_type_symbol
_atom_type_description
_atom_site_fract_x
_atom_site_fract_y
_atom_site_fract_z
_atom_type_partial_charge
C1    C     C_R   0.240009 0.645496 0.610489 0.540449
C2    C     C_3   0.670610 0.551139 0.799724 -0.252130
C3    C     C_3   0.698431 0.673607 0.812299 0.050039
C4    C     C_3   0.669663 0.647989 0.676384 0.057638
C5    C     C_3   0.815235 0.632974 0.690362 -0.247345
C6    C     C_3   0.655650 0.534964 0.719567 -0.213635
C7    C     C_R   0.682821 0.151250 0.822223 0.017106
C8    C     C_R   0.779292 0.174467 0.784872 -0.006205
C9    C     C_R   0.773136 0.184107 0.710883 0.011853
C10   C     C_R   0.578597 0.140711 0.709627 -0.181277
C11   C     C_R   0.575563 0.146017 0.782759 -0.171148
C12   C     C_R   0.653684 0.622189 0.600986 0.539061
C13   C     C_3   0.935172 0.093727 0.785730 -0.271483
C14   C     C_3   0.929943 0.101975 0.705297 -0.281204
C15   C     C_R   0.674235 0.164644 0.672128 0.015090
C16   C     C_R   0.181081 0.667207 0.835067 0.014219
C17   C     C_R   0.154374 0.576175 0.793943 0.017536
C18   C     C_R   0.163059 0.573950 0.720227 -0.004733
C19   C     C_R   0.214738 0.762594 0.726194 -0.172908
C20   C     C_R   0.214154 0.759123 0.800014 -0.178442
C21   C     C_3   0.228348 0.420041 0.797035 -0.282144
C22   C     C_3   0.235439 0.418199 0.716649 -0.271008
C23   C     C_R   0.630145 0.225931 0.601918 0.538007
C24   C     C_R   0.195628 0.665432 0.684927 0.012195
C25   C     C_R   0.671706 0.680599 0.173322 0.031148
C26   C     C_R   0.791572 0.617424 0.216387 -0.006682
C27   C     C_R   0.784134 0.613744 0.288914 -0.005543
C28   C     C_R   0.530833 0.747671 0.280944 -0.133194
C29   C     C_R   0.539242 0.753547 0.206639 0.173222
C30   C     C_3   0.917070 0.473520 0.212234 -0.251553
C31   C     C_3   0.913339 0.472140 0.292544 -0.265105
C32   C     C_R   0.653854 0.668776 0.322068 -0.025627
C33   C     C_R   0.632126 0.190836 0.168336 0.020102
C34   C     C_R   0.223309 0.647364 0.401267 0.550534
C35   C     C_R   0.519102 0.199528 0.207219 0.005270
C36   C     C_R   0.516891 0.211221 0.279748 0.015388
C37   C     C_R   0.720983 0.238778 0.276346 -0.154617
C38   C     C_R   0.723224 0.228170 0.202178 -0.161375
C39   C     C_3   0.459571 0.102700 0.210391 -0.230906
C40   C     C_3   0.456836 0.117233 0.290423 -0.275985
C41   C     C_R   0.625046 0.216452 0.315959 0.019287
C42   C     C_R   0.145050 0.680654 0.183592 0.045907
C43   C     C_R   0.121832 0.795453 0.226056 0.102070
C44   C     C_R   0.135928 0.785065 0.297545 0.035696
C45   C     C_R   0.641520 0.623507 0.392518 0.554733
C46   C     C_R   0.213052 0.538224 0.287979 -0.161882
C47   C     C_R   0.200081 0.548544 0.214158 -0.170590
C48   C     C_3   0.995376 0.938441 0.231742 -0.242527
C49   C     C_3   0.011788 0.925975 0.311460 -0.293462
C50   C     C_R   0.173325 0.659740 0.330189 0.008877
C51   C     C_R   0.702302 0.099538 0.895203 0.538861
C52   C     C_R   0.723118 0.687841 0.888299 0.544495
C53   C     C_R   0.119094 0.705534 0.905999 0.542734
C54   C     C_R   0.672238 0.112023 0.102232 0.534450
C55   C     C_R   0.696936 0.691026 0.098276 0.583535
C56   C     C_R   0.611383 0.239378 0.391952 0.546310
C57   C     C_R   0.092958 0.710537 0.112411 0.558656
C58   C     C_3   0.571500 0.809630 0.782812 -0.232493
C59   C     C_3   0.555655 0.795318 0.702514 -0.239532
C60   C     C_3   0.832673 0.645709 0.770535 -0.217696
Cr1   Cr    Cr6+3 0.392960 0.397920 0.502240 1.004130
Cr2   Cr    Cr6+3 0.398340 0.708480 0.501250 1.005903
Cr3   Cr    Cr6+3 0.708670 0.393570 0.496460 1.003738
Cr4   Cr    Cr6+3 0.937650 0.938540 0.007610 1.034394
Cr5   Cr    Cr6+3 0.625330 0.937370 0.994520 1.041237
Cr6   Cr    Cr6+3 0.937940 0.625230 0.001190 1.010311
H1    H     H_    0.589355 0.898991 0.792366 0.143506
H2    H     H_    0.740432 0.429802 0.702640 0.148884
H3    H     H_    0.923521 0.545859 0.788687 0.143177
H4    H     H_    0.900722 0.529479 0.670772 0.132642
H5    H     H_    0.497434 0.128966 0.682609 0.128910
H6    H     H_    0.493204 0.134147 0.807778 0.138004
H7    H     H_    0.973254 0.986842 0.806169 0.172708
H8    H     H_    0.981311 0.153639 0.810988 0.129661
H9    H     H_    0.974253 0.165959 0.683921 0.132422
H10   H     H_    0.967490 0.998934 0.678195 0.146113
H11   H     H_    0.235184 0.839183 0.701686 0.133137
H12   H     H_    0.472620 0.832565 0.810695 0.119408
H13   H     H_    0.229661 0.835736 0.829442 0.133297
H14   H     H_    0.160228 0.380108 0.818039 0.133352
H15   H     H_    0.332104 0.377514 0.823487 0.144862
H16   H     H_    0.343365 0.374227 0.695485 0.179762
H17   H     H_    0.169827 0.379221 0.690766 0.123814
H18   H     H_    0.427507 0.794332 0.305328 0.174468
H19   H     H_    0.010408 0.473199 0.190132 0.157454
H20   H     H_    0.892550 0.396250 0.186948 0.137431
H21   H     H_    0.895536 0.388468 0.313195 0.152967
H22   H     H_    0.449082 0.811904 0.691801 0.136637
H23   H     H_    0.002329 0.477191 0.317910 0.137288
H24   H     H_    0.799340 0.255035 0.302623 0.129551
H25   H     H_    0.806651 0.230967 0.172810 0.121048
H26   H     H_    0.536051 0.995255 0.191702 0.188184
H27   H     H_    0.352915 0.149409 0.186469 0.168344
H28   H     H_    0.348480 0.173960 0.312837 0.139995
H29   H     H_    0.530919 0.018234 0.317703 0.140438
H30   H     H_    0.254598 0.436144 0.311830 0.145033
H31   H     H_    0.226977 0.456271 0.181924 0.121242
H32   H     H_    0.898380 0.939998 0.212688 0.142510
H33   H     H_    0.565796 0.877659 0.673581 0.113249
H34   H     H_    0.016307 0.019687 0.209483 0.167067
H35   H     H_    0.041968 0.000209 0.335463 0.146805
H36   H     H_    0.924296 0.920977 0.338699 0.130434
H37   H     H_    0.856227 0.732014 0.780952 0.125276
H38   H     H_    0.825413 0.715770 0.661786 0.115838
H39   H     H_    0.758832 0.452064 0.820954 0.131904
H40   H     H_    0.572634 0.571519 0.827726 0.123003
H41   H     H_    0.552756 0.540849 0.708647 0.127733
O1    O     O_R   0.507380 0.255700 0.581440 -0.535109
O2    O     O_R   0.524480 0.695810 0.424040 -0.510057
O3    O     O_R   0.736390 0.504290 0.414790 -0.522604
O4    O     O_R   0.691300 0.277290 0.422170 -0.512346
O5    O     O_3   0.499990 0.499990 0.499980 -0.249845
O6    O     O_R   0.089400 0.825690 0.930570 -0.520926
O7    O     O_R   0.818460 0.054440 0.929850 -0.501334
O8    O     O_R   0.606060 0.077150 0.915510 -0.536027
O9    O     O_R   0.646550 0.806680 0.917570 -0.507170
O10   O     O_R   0.837170 0.593410 0.915250 -0.527280
O11   O     O_R   0.065200 0.635530 0.931570 -0.500878
O12   O     O_R   0.280320 0.527350 0.578930 -0.503742
O13   O     O_R   0.068260 0.828890 0.091840 -0.483654
O14   O     O_R   0.798870 0.057410 0.079340 -0.514388
O15   O     O_R   0.584930 0.080350 0.076780 -0.513473
O16   O     O_R   0.626960 0.809650 0.067060 -0.457974
O17   O     O_R   0.816040 0.596610 0.076510 -0.530408
O18   O     O_R   0.045610 0.638500 0.081060 -0.520158
O19   O     O_3   0.833640 0.833710 0.001100 -0.265584
O20   O     O_R   0.260510 0.739590 0.584590 -0.533480
O21   O     O_R   0.532300 0.695080 0.573820 -0.510360
O22   O     O_R   0.744840 0.503500 0.576370 -0.529837
O23   O     O_R   0.699120 0.276560 0.571960 -0.500074
O24   O     O_R   0.498940 0.256500 0.419860 -0.520075
O25   O     O_R   0.272500 0.528080 0.429150 -0.512629
O26   O     O_R   0.252060 0.740380 0.423010 -0.515342
Cl1   Cl    Cl    0.382821 0.841016 0.157196 -0.644558

loop_
_geom_bond_atom_site_label_1
_geom_bond_atom_site_label_2
_ccdc_geom_bond_type
C44   C49   S    
C8    C13   S    
C28   H18   S    
C59   H33   S    
C32   C45   S    
C19   C20   A    
C9    C14   S    
C7    C8    A    
C7    C11   A    
C26   C27   A    
C5    H4    S    
C37   H24   S    
C18   C24   A    
C22   H16   S    
Cr2   O26   S    
C28   C29   A    
C10   C15   A    
C57   O18   A    
C30   C31   S    
C45   O2    A    
Cr1   O12   S    
Cr4   O14   S    
C4    C59   S    
C1    O12   A    
Cr3   O23   S    
Cr3   O5    S    
C19   H11   S    
Cr1   O1    S    
C59   H22   S    
C39   H27   S    
Cr1   O25   S    
C16   C53   S    
C35   C36   A    
C8    C9    A    
C31   H23   S    
Cr6   O10   S    
C6    H41   S    
C30   H20   S    
C60   H37   S    
C43   C48   S    
C56   O4    A    
C20   H13   S    
C3    C60   S    
C15   C23   S    
C29   Cl1   S    
C54   O15   A    
C5    H38   S    
C34   O25   A    
C21   C22   S    
C37   C41   A    
Cr5   O8    S    
C36   C41   A    
C2    C6    S    
C42   C57   S    
C53   O6    A    
C52   O9    A    
C25   C29   A    
C48   H34   S    
C55   O16   A    
C34   C50   S    
C51   O7    A    
Cr4   O7    S    
C12   O22   A    
C27   C31   S    
C1    O20   A    
C28   C32   A    
C31   H21   S    
C4    C6    S    
C40   H28   S    
C49   H36   S    
C58   H12   S    
C11   H6    S    
C16   C17   A    
C34   O26   A    
C25   C26   A    
C38   H25   S    
C2    H40   S    
C51   O8    A    
Cr6   O19   S    
C23   O23   A    
C14   H10   S    
C35   C39   S    
C43   C44   A    
C41   C56   S    
C37   C38   A    
C36   C40   S    
C16   C20   A    
C45   O3    A    
C17   C18   A    
Cr2   O5    S    
Cr5   O15   S    
C30   H19   S    
C57   O13   A    
C53   O11   A    
C48   C49   S    
C54   O14   A    
C21   H15   S    
C26   C30   S    
Cr4   O19   S    
Cr6   O11   S    
Cr5   O9    S    
Cr6   O17   S    
C4    C12   S    
C42   C43   A    
C40   H29   S    
C39   H26   S    
C39   C40   S    
C49   H35   S    
C44   C50   A    
C33   C54   S    
C46   C47   A    
Cr4   O6    S    
C5    C60   S    
C27   C32   A    
C18   C22   S    
Cr5   O16   S    
C25   C55   S    
C13   H7    S    
C4    C5    S    
C47   H31   S    
C3    C52   S    
C12   O21   A    
C48   H32   S    
C46   C50   A    
C2    H39   S    
C33   C38   A    
Cr4   O13   S    
Cr6   O18   S    
Cr5   O19   S    
Cr3   O3    S    
C19   C24   A    
C58   C59   S    
C7    C51   S    
C14   H9    S    
C22   H17   S    
Cr2   O21   S    
Cr2   O20   S    
Cr2   O2    S    
C60   H3    S    
C23   O1    A    
C21   H14   S    
C6    H2    S    
C33   C35   A    
C2    C3    S    
C42   C47   A    
Cr3   O22   S    
Cr3   O4    S    
C17   C21   S    
C56   O24   A    
C10   C11   A    
Cr1   O24   S    
C10   H5    S    
C3    C58   S    
C58   H1    S    
C46   H30   S    
C13   H8    S    
C1    C24   S    
C55   O17   A    
C52   O10   A    
C13   C14   S    
Cr1   O5    S    
C9    C15   A    
