data_mof_unit_24951.cif
_audit_creation_date              2013-03-05T15:47:05-0500
_audit_creation_method            fapswitch 2.2
_symmetry_space_group_name_H-M    P1
_symmetry_Int_Tables_number       1
_space_group_crystal_system       triclinic
_cell_length_a                    23.520982
_cell_length_b                    11.09439
_cell_length_c                    9.830359
_cell_angle_alpha                 112.149815
_cell_angle_beta                  97.340671
_cell_angle_gamma                 91.729695
_cell_volume                      2347.86814576

loop_
_atom_site_label
_atom_site_type_symbol
_atom_site_description
_atom_site_fract_x
_atom_site_fract_y
_atom_site_fract_z
_atom_type_partial_charge
O1    O     O_R   0.505330 0.332340 0.577400 -0.576966
O2    O     O_R   0.494670 0.667660 0.422600 -0.576955
O3    O     O_R   0.488470 0.295500 0.332650 -0.568724
O4    O     O_R   0.511530 0.704500 0.667350 -0.568740
C1    C     C_R   0.496116 0.253274 0.438700 0.803527
C2    C     C_R   0.503884 0.746726 0.561301 0.803550
O5    O     O_R   0.426310 0.518390 0.622390 -0.588018
O6    O     O_R   0.573690 0.481610 0.377610 -0.587990
O7    O     O_R   0.409450 0.481550 0.377650 -0.535300
O8    O     O_R   0.590550 0.518450 0.622350 -0.535308
C3    C     C_R   0.391265 0.500539 0.502295 0.844925
C4    C     C_R   0.608734 0.499458 0.497703 0.844973
Cu1   Cu    Cu3+1 0.509980 0.521810 0.644910 1.022210
Cu2   Cu    Cu3+1 0.490020 0.478190 0.355090 1.022242
C5    C     C_R   0.879648 0.591202 0.458636 0.611517
C6    C     C_R   0.120300 0.408446 0.540711 0.611432
N1    N     N_R   0.851470 0.501778 0.496258 -0.471982
N2    N     N_R   0.148505 0.498049 0.503408 -0.471959
C7    C     C_R   0.879970 0.412280 0.536393 0.600309
C8    C     C_R   0.120026 0.587663 0.463442 0.600182
C9    C     C_R   0.939386 0.403710 0.529670 -0.099022
C10   C     C_R   0.060578 0.596030 0.469807 -0.098920
C11   C     C_R   0.969933 0.500890 0.500063 -0.053828
C12   C     C_R   0.030020 0.498786 0.499280 -0.053822
C13   C     C_R   0.940338 0.600614 0.472184 -0.054568
C14   C     C_R   0.059607 0.399035 0.527101 -0.054494
C15   C     C_R   0.968592 0.300505 0.549779 0.273225
C16   C     C_R   0.031356 0.699148 0.449553 0.273354
C17   C     C_R   0.027919 0.295490 0.543370 -0.164481
C18   C     C_R   0.972020 0.704114 0.455803 -0.164573
O9    O     O_2   0.848517 0.667093 0.403463 -0.468499
O10   O     O_2   0.151406 0.332378 0.595665 -0.468610
O11   O     O_2   0.850568 0.333179 0.583808 -0.428511
O12   O     O_2   0.149487 0.667118 0.416591 -0.428416
C19   C     C_R   0.246058 0.604124 0.607704 -0.033223
C20   C     C_R   0.753909 0.395717 0.392201 -0.033298
H1    H     H_    0.227174 0.685414 0.684185 0.205436
H2    H     H_    0.772774 0.314379 0.315736 0.205392
C21   C     C_R   0.305776 0.607202 0.608747 -0.119310
C22   C     C_R   0.694197 0.392687 0.391236 -0.119310
C23   C     C_R   0.329094 0.499148 0.506829 -0.235943
C24   C     C_R   0.670903 0.500795 0.493141 -0.235915
C25   C     C_R   0.292082 0.390581 0.405434 0.313783
C26   C     C_R   0.707932 0.609373 0.594446 0.313762
C27   C     C_R   0.232675 0.392345 0.405227 -0.122292
C28   C     C_R   0.767335 0.607576 0.594552 -0.122280
H3    H     H_    0.203962 0.310248 0.327819 0.202007
H4    H     H_    0.796063 0.689686 0.671874 0.201940
C29   C     C_R   0.209683 0.497962 0.505950 0.213708
C30   C     C_R   0.790301 0.501903 0.493838 0.213795
H5    H     H_    0.478863 0.861154 0.379472 0.212431
H6    H     H_    0.521105 0.138855 0.620549 0.212441
C31   C     C_2   0.493486 0.111812 0.399528 -0.185617
C32   C     C_2   0.506514 0.888187 0.600476 -0.185631
C33   C     C_2   0.504975 0.068541 0.509999 -0.101021
C34   C     C_2   0.495007 0.931463 0.490014 -0.100985
H7    H     H_    0.461997 0.414539 0.844815 0.178876
H8    H     H_    0.538004 0.585460 0.155185 0.178889
N3    N     N_2   0.475010 0.445410 0.137370 -0.277622
N4    N     N_2   0.524990 0.554590 0.862630 -0.277622
C35   C     C_2   0.504838 0.511278 0.081589 -0.025309
C36   C     C_2   0.495162 0.488721 0.918410 -0.025339
H9    H     H_    0.555833 0.625208 0.935389 0.231871
H10   H     H_    0.444166 0.374792 0.064611 0.231867
N5    N     N_R   0.937381 0.193166 0.562593 0.137942
O13   O     O_R   0.941976 0.179748 0.689323 -0.286415
O14   O     O_R   0.905070 0.107828 0.446789 -0.284450
N6    N     N_R   0.062564 0.806507 0.436818 0.137770
O15   O     O_R   0.058551 0.819032 0.309613 -0.285331
O16   O     O_R   0.094337 0.892658 0.553108 -0.285585
C37   C     C_2   0.053685 0.173323 0.537411 0.581895
H11   H     H_    0.044294 0.128212 0.613457 0.118833
O17   O     O_2   0.082913 0.118190 0.441542 -0.421007
C38   C     C_2   0.946248 0.826193 0.461401 0.582127
H12   H     H_    0.955783 0.871286 0.385431 0.117752
O18   O     O_2   0.916895 0.881339 0.556954 -0.420588
C39   C     C_2   0.342541 0.726149 0.712043 0.460376
H13   H     H_    0.387516 0.739279 0.702783 0.064317
O19   O     O_2   0.322759 0.812454 0.808867 -0.480186
C40   C     C_2   0.657411 0.273740 0.288023 0.460443
H14   H     H_    0.612445 0.260626 0.297421 0.064179
O20   O     O_2   0.677163 0.187426 0.191104 -0.480178
N7    N     N_R   0.314066 0.276682 0.304767 0.140529
O21   O     O_R   0.358926 0.228474 0.350171 -0.371401
O22   O     O_R   0.284534 0.209885 0.174706 -0.291268
N8    N     N_R   0.685973 0.723309 0.695122 0.140526
O23   O     O_R   0.641094 0.771499 0.649774 -0.371414
O24   O     O_R   0.715536 0.790138 0.825131 -0.291254
C41   C     C_2   0.522234 0.975256 0.760172 0.430835
H15   H     H_    0.552149 0.944963 0.832354 0.145910
O25   O     O_2   0.499327 0.076286 0.814582 -0.549165
C42   C     C_2   0.477790 0.024738 0.239826 0.430839
H16   H     H_    0.447895 0.055034 0.167606 0.145894
O26   O     O_2   0.500692 0.923697 0.185455 -0.549165

loop_
_geom_bond_atom_site_label_1
_geom_bond_atom_site_label_2
_geom_bond_distance
_ccdc_geom_bond_type
C33   C34   1.465533 S    
C15   C17   1.406687 A    
C25   N7    1.438997 S    
H7    C36   1.085045 S    
C21   C23   1.419909 A    
Cu1   N4    2.012429 S    
C39   H13   1.083464 S    
O5    C3    1.295217 A    
Cu2   N3    2.012429 S    
N3    H10   1.030651 S    
C38   O18   1.221136 D    
N4    H9    1.030649 S    
O1    C1    1.298704 A    
C21   C39   1.488836 S    
C1    C31   1.465456 S    
C7    C9    1.411864 A    
C12   C14   1.417717 A    
C18   C38   1.485524 S    
N8    O24   1.301487 A    
C5    C13   1.413631 A    
N4    C36   1.302477 D    
H5    C34   1.082127 S    
C27   H3    1.083355 S    
O4    Cu1   1.953045 S    
C4    C24   1.468475 S    
N6    O15   1.301358 A    
N5    O14   1.301022 A    
C19   C29   1.397094 A    
C11   C12   1.415162 A    
C22   C40   1.488839 S    
C41   O25   1.220956 D    
H6    C33   1.082127 S    
C8    O12   1.349128 S    
H8    C35   1.085046 S    
C22   C24   1.419927 A    
C9    C15   1.416146 A    
C10   C16   1.416038 A    
Cu1   Cu2   2.678887 S    
C23   C25   1.418384 A    
O2    C2    1.298706 A    
C24   C26   1.418396 A    
C2    C32   1.465448 S    
C26   N8    1.439023 S    
C26   C28   1.397827 A    
C28   H4    1.083357 S    
C31   C33   1.344913 D    
C6    C14   1.413641 A    
C32   C34   1.344909 D    
N3    C35   1.302476 D    
C38   H12   1.084455 S    
C20   C22   1.402615 A    
C32   C41   1.490275 S    
O4    C2    1.289987 A    
C7    O11   1.349005 S    
C37   O17   1.221136 D    
N8    O23   1.300910 A    
C19   C21   1.402641 A    
O7    Cu2   1.935805 S    
C15   N5    1.434192 S    
C25   C27   1.397803 A    
N7    O21   1.300905 A    
C27   C29   1.395013 A    
O6    C4    1.295205 A    
C31   C42   1.490285 S    
C42   O26   1.220950 D    
C39   O19   1.221513 D    
C6    N2    1.363829 A    
O7    C3    1.293605 A    
O3    Cu2   1.953045 S    
O8    C4    1.293606 A    
C40   O20   1.221711 D    
N7    O22   1.301489 A    
C8    C10   1.411934 A    
C9    C11   1.416562 A    
C10   C12   1.416539 A    
O1    Cu1   1.945935 S    
C20   C30   1.397075 A    
C19   H1    1.083569 S    
C13   C18   1.420630 A    
C5    N1    1.363784 A    
O6    Cu2   1.949693 S    
C16   N6    1.433988 S    
C40   H14   1.083565 S    
O3    C1    1.289993 A    
O8    Cu1   1.935810 S    
N1    C30   1.435970 S    
C5    O9    1.348818 S    
C6    O10   1.348854 S    
C28   C30   1.395032 A    
C16   C18   1.406616 A    
C37   H11   1.084331 S    
C20   H2    1.083583 S    
C42   H16   1.085381 S    
N1    C7    1.363422 A    
C3    C23   1.468498 S    
N2    C8    1.363459 A    
C11   C13   1.417783 A    
C35   C36   1.512665 S    
O2    Cu2   1.945935 S    
O5    Cu1   1.949693 S    
C14   C17   1.420599 A    
N6    O16   1.301357 A    
N5    O13   1.300866 A    
C41   H15   1.085385 S    
N2    C29   1.436019 S    
C17   C37   1.485441 S    
