data_mof_unit_31097.cif
_audit_creation_date              2012-12-10T20:28:12-0500
_audit_creation_method            fapswitch 2.2
_symmetry_space_group_name_H-M    P1
_symmetry_Int_Tables_number       1
_space_group_crystal_system       triclinic
_cell_length_a                    18.704853
_cell_length_b                    18.802105
_cell_length_c                    18.837416
_cell_angle_alpha                 109.869338
_cell_angle_beta                  109.458679
_cell_angle_gamma                 109.607228
_cell_volume                      5066.73906739

loop_
_atom_site_label
_atom_site_type_symbol
_atom_type_description
_atom_site_fract_x
_atom_site_fract_y
_atom_site_fract_z
_atom_type_partial_charge
C1    C     C_R   0.383011 0.502296 0.380474 0.905203
C2    C     C_R   0.827260 0.813997 0.573584 -0.255662
C3    C     C_R   0.293260 0.358739 0.752638 0.543039
C4    C     C_R   0.335959 0.317458 0.784253 -0.455153
C5    C     C_R   0.081381 0.324487 0.822787 -0.217325
C6    C     C_R   0.000630 0.312435 0.815083 -0.091074
C7    C     C_R   0.920655 0.238263 0.742656 0.041807
C8    C     C_R   0.923512 0.177339 0.678795 -0.181600
C9    C     C_R   0.003913 0.189187 0.686847 -0.102447
C10   C     C_3   0.607624 0.891456 0.714288 0.067698
C11   C     C_3   0.688324 0.974626 0.796595 -0.314279
C12   C     C_3   0.704733 0.966458 0.877676 -0.996789
C13   C     C_R   0.811195 0.810469 0.494517 -0.132761
C14   C     C_3   0.170362 0.247216 0.290961 0.105884
C15   C     C_3   0.119786 0.183655 0.192448 -0.320731
C16   C     C_3   0.176956 0.155820 0.161932 -0.957966
C17   C     C_3   0.014060 0.396909 0.271662 0.043215
C18   C     C_3   0.941204 0.305670 0.239712 -0.316901
C19   C     C_3   0.853505 0.302357 0.217737 -0.979578
C20   C     C_3   0.063999 0.746784 0.661918 0.066120
C21   C     C_3   0.026263 0.783362 0.716210 -0.316130
C22   C     C_3   0.015302 0.740753 0.770613 -0.989281
C23   C     C_3   0.408004 0.437302 0.733481 0.094037
C24   C     C_R   0.730366 0.745822 0.416262 -0.048949
C25   C     C_3   0.486768 0.505178 0.826161 -0.387358
C26   C     C_3   0.573343 0.522148 0.828271 -0.938923
C27   C     C_3   0.848105 0.355337 0.649493 0.067956
C28   C     C_3   0.903240 0.391413 0.612687 -0.286425
C29   C     C_3   0.934592 0.488599 0.646327 -0.996262
C30   C     C_3   0.601591 0.548783 0.291438 0.084164
C31   C     C_3   0.511768 0.474306 0.212645 -0.307383
C32   C     C_3   0.519440 0.402095 0.152995 -0.963642
C33   C     C_R   0.670045 0.679230 0.418251 0.431661
C34   C     C_R   0.686229 0.685458 0.499256 -0.204756
C35   C     C_R   0.764260 0.753774 0.577531 -0.078824
C36   C     C_R   0.633354 0.755645 0.293787 0.543331
C37   C     C_R   0.610268 0.753207 0.213326 -0.271243
C38   C     C_R   0.659624 0.743345 0.172998 -0.175842
C39   C     C_R   0.620476 0.620100 0.500392 0.936927
C40   C     C_R   0.835938 0.791633 0.833757 -0.116307
C41   C     C_R   0.732687 0.736504 0.212537 -0.114572
C42   C     C_R   0.755926 0.738483 0.291950 -0.241741
C43   C     C_R   0.706431 0.747126 0.332940 0.114972
C44   C     C_R   0.436977 0.793554 0.547913 -0.292324
C45   C     C_R   0.369582 0.714972 0.470662 -0.128913
C46   C     C_R   0.388702 0.668886 0.410573 0.184815
C47   C     C_R   0.475669 0.703560 0.427893 -0.200486
C48   C     C_R   0.543047 0.782080 0.505083 -0.138962
C49   C     C_R   0.524586 0.826364 0.566599 0.535318
C50   C     C_R   0.249970 0.580064 0.267369 0.392181
C51   C     C_R   0.083998 0.262856 0.759050 0.037723
C52   C     C_R   0.616391 0.497341 0.620188 0.933065
C53   C     C_R   0.187402 0.499681 0.187997 -0.173471
C54   C     C_R   0.190044 0.421936 0.172387 0.011390
C55   C     C_R   0.257767 0.426419 0.236025 -0.228295
C56   C     C_R   0.319981 0.505065 0.314350 -0.170942
C57   C     C_R   0.318287 0.583229 0.330166 -0.018929
C58   C     C_R   0.036910 0.290349 0.068690 -0.067099
C59   C     C_R   0.978310 0.205995 0.995720 -0.185064
C60   C     C_R   0.008051 0.163800 0.946256 -0.124553
C61   C     C_R   0.096343 0.206116 0.969685 -0.123381
C62   C     C_R   0.794705 0.192332 0.769280 -0.162379
C63   C     C_R   0.154460 0.291740 0.040633 -0.178646
C64   C     C_R   0.379308 0.379960 0.499417 0.868669
C65   C     C_R   0.125222 0.335163 0.090723 0.104453
C66   C     C_R   0.239779 0.526632 0.523042 -0.209097
C67   C     C_R   0.252790 0.463843 0.539649 -0.142561
C68   C     C_R   0.215189 0.378659 0.470608 -0.087441
C69   C     C_R   0.159839 0.355205 0.384013 0.388347
C70   C     C_R   0.143730 0.417873 0.368415 0.494796
C71   C     C_R   0.186778 0.504303 0.437751 -0.311490
C72   C     C_R   0.173013 0.249863 0.489242 -0.168526
C73   C     C_R   0.708877 0.173080 0.748318 -0.112894
C74   C     C_R   0.187748 0.184883 0.499386 -0.118930
C75   C     C_R   0.265553 0.183879 0.509328 0.060441
C76   C     C_R   0.828819 0.855963 0.815897 -0.158721
C77   C     C_R   0.328079 0.249635 0.509617 -0.222524
C78   C     C_R   0.313296 0.314518 0.499998 -0.143346
C79   C     C_R   0.235512 0.315261 0.489464 0.063554
C80   C     C_R   0.352815 0.130855 0.588088 0.489145
C81   C     C_R   0.366213 0.061780 0.589600 -0.248640
C82   C     C_R   0.309346 0.976333 0.518254 -0.144946
C83   C     C_R   0.238879 0.958776 0.444702 -0.114361
C84   C     C_R   0.659573 0.183429 0.682441 -0.186176
C85   C     C_R   0.224780 0.026536 0.442360 -0.232254
C86   C     C_R   0.281030 0.112687 0.513877 0.097257
C87   C     C_2   0.737328 0.422392 0.753890 -0.179375
C88   C     C_R   0.802853 0.842348 0.731556 -0.152467
C89   C     C_2   0.818012 0.492895 0.808903 -0.373457
C90   C     C_2   0.676194 0.419867 0.678873 -0.172538
C91   C     C_2   0.673951 0.492802 0.689731 -0.347231
C92   C     C_R   0.996992 0.876313 0.380669 0.863252
C93   C     C_R   0.879101 0.878000 0.497556 0.889176
C94   C     C_R   0.002066 0.122422 0.619784 0.875228
C95   C     C_R   0.696442 0.214495 0.638264 -0.235801
C96   C     C_R   0.120717 0.119342 0.499442 0.867763
C97   C     C_R   0.002123 0.379452 0.882162 0.871112
C98   C     C_R   0.122417 0.498308 0.120599 0.873403
C99   C     C_R   0.001423 0.620529 0.121462 0.859239
C100  C     C_R   0.783772 0.764044 0.664391 0.156246
C101  C     C_R   0.883175 0.498069 0.881536 0.912149
C102  C     C_R   0.005766 0.733366 0.522881 0.552611
C103  C     C_R   0.026111 0.751632 0.463586 -0.156727
C104  C     C_R   0.962512 0.707101 0.374762 0.003225
C105  C     C_R   0.879343 0.638180 0.343668 -0.205517
C106  C     C_R   0.783652 0.237140 0.661027 0.495819
C107  C     C_R   0.857374 0.619976 0.401796 -0.213092
C108  C     C_R   0.919018 0.668306 0.491055 -0.239672
C109  C     C_R   0.983203 0.668938 0.247297 -0.238158
C110  C     C_R   0.999712 0.686832 0.186292 -0.085817
C111  C     C_R   0.015022 0.767063 0.189544 0.000648
C112  C     C_R   0.791509 0.699901 0.682861 -0.121608
C113  C     C_R   0.011746 0.827136 0.253842 -0.274346
C114  C     C_R   0.996751 0.809619 0.315235 -0.073692
C115  C     C_R   0.982910 0.730339 0.313271 0.020767
C116  C     C_R   0.112176 0.869166 0.161569 -0.152712
C117  C     C_R   0.832918 0.225199 0.726421 0.002319
C118  C     C_R   0.131734 0.892883 0.104794 -0.135668
C119  C     C_R   0.074845 0.838843 0.014563 -0.123698
C120  C     C_R   0.997859 0.761435 0.981022 -0.131152
C121  C     C_R   0.977077 0.738264 0.037584 -0.099071
C122  C     C_R   0.035011 0.791204 0.128380 0.136572
C123  C     C_R   0.296860 0.258099 0.807733 0.449898
C124  C     C_R   0.817673 0.713998 0.767361 -0.146568
C125  C     C_R   0.214775 0.239287 0.800393 0.501939
C126  C     C_R   0.170659 0.279121 0.767535 -0.185246
C127  C     C_R   0.210681 0.338089 0.744475 -0.287604
H1    H     H_    0.856874 0.802487 0.899271 0.133181
H2    H     H_    0.844755 0.916912 0.867667 0.139026
H3    H     H_    0.644557 0.575544 0.267248 0.133231
H4    H     H_    0.468220 0.446020 0.235664 0.240443
H5    H     H_    0.481349 0.500637 0.174782 0.227658
H6    H     H_    0.561415 0.428657 0.127891 0.265923
H7    H     H_    0.453120 0.349185 0.096531 0.283436
H8    H     H_    0.548321 0.373753 0.189133 0.260572
H9    H     H_    0.537829 0.772122 0.299685 0.330360
H10   H     H_    0.013601 0.319245 0.109092 0.173415
H11   H     H_    0.910381 0.172444 0.978976 0.124036
H12   H     H_    0.963162 0.097652 0.891003 0.125394
H13   H     H_    0.120210 0.171765 0.934145 0.168334
H14   H     H_    0.222825 0.323304 0.058084 0.145332
H15   H     H_    0.178122 0.553851 0.425409 0.152995
H16   H     H_    0.271230 0.592906 0.576378 0.156734
H17   H     H_    0.293947 0.482212 0.606298 0.183647
H18   H     H_    0.798804 0.893213 0.718704 0.129898
H19   H     H_    0.641594 0.741717 0.111340 0.148537
H20   H     H_    0.112628 0.249548 0.480932 0.160848
H21   H     H_    0.388117 0.249873 0.516406 0.164393
H22   H     H_    0.420685 0.074092 0.645949 0.128997
H23   H     H_    0.320122 0.923682 0.519891 0.154948
H24   H     H_    0.195307 0.892591 0.389347 0.155943
H25   H     H_    0.170235 0.012144 0.384648 0.121437
H26   H     H_    0.717869 0.365580 0.761615 0.187049
H27   H     H_    0.839672 0.545996 0.795949 0.155205
H28   H     H_    0.632117 0.358693 0.616665 0.162109
H29   H     H_    0.779846 0.640374 0.632681 0.106554
H30   H     H_    0.771614 0.729956 0.181835 0.148776
H31   H     H_    0.709507 0.549367 0.755102 0.163233
H32   H     H_    0.897939 0.654159 0.533957 0.134889
H33   H     H_    0.092106 0.801507 0.487312 0.162516
H34   H     H_    0.830225 0.601033 0.274815 0.148928
H35   H     H_    0.791858 0.569138 0.377775 0.143167
H36   H     H_    0.972239 0.607405 0.244669 0.159556
H37   H     H_    0.022072 0.888710 0.256871 0.149329
H38   H     H_    0.157449 0.911226 0.231380 0.127493
H39   H     H_    0.191270 0.952909 0.130747 0.134014
H40   H     H_    0.826388 0.665821 0.781911 0.109063
H41   H     H_    0.813406 0.734803 0.322429 0.143834
H42   H     H_    0.090631 0.857073 0.970827 0.135858
H43   H     H_    0.954417 0.719214 0.911221 0.123249
H44   H     H_    0.916582 0.678712 0.010704 0.101286
H45   H     H_    0.399977 0.331183 0.792730 0.178812
H46   H     H_    0.177416 0.369340 0.720463 0.186972
H47   H     H_    0.142458 0.381907 0.878692 0.161969
H48   H     H_    0.862559 0.120068 0.622431 0.165517
H49   H     H_    0.888719 0.865704 0.633426 0.170703
H50   H     H_    0.831083 0.180927 0.818241 0.149397
H51   H     H_    0.680029 0.149062 0.782330 0.128020
H52   H     H_    0.421139 0.828719 0.593291 0.141325
H53   H     H_    0.592688 0.167243 0.665488 0.151736
H54   H     H_    0.657524 0.221465 0.586643 0.147697
H55   H     H_    0.554332 0.759372 0.182060 0.136202
H56   H     H_    0.620412 0.835931 0.704177 0.145630
H57   H     H_    0.550287 0.877872 0.724534 0.135250
H58   H     H_    0.747078 0.987506 0.789085 0.211415
H59   H     H_    0.678196 0.031252 0.805739 0.220863
H60   H     H_    0.649502 0.960545 0.890002 0.269468
H61   H     H_    0.766380 0.025779 0.935403 0.260211
H62   H     H_    0.711160 0.907927 0.869068 0.268444
H63   H     H_    0.302758 0.689693 0.458082 0.149012
H64   H     H_    0.185937 0.641978 0.250878 0.327695
H65   H     H_    0.191268 0.212969 0.323906 0.160694
H66   H     H_    0.230104 0.305142 0.307991 0.123932
H67   H     H_    0.061483 0.124426 0.175068 0.225434
H68   H     H_    0.096407 0.215651 0.158053 0.247217
H69   H     H_    0.234951 0.213839 0.177245 0.264973
H70   H     H_    0.138082 0.110113 0.090087 0.271384
H71   H     H_    0.199625 0.121853 0.194322 0.260420
H72   H     H_    0.993868 0.414677 0.220777 0.171953
H73   H     H_    0.021641 0.446895 0.331024 0.126013
H74   H     H_    0.491024 0.669070 0.381730 0.211163
H75   H     H_    0.934028 0.256379 0.180474 0.228903
H76   H     H_    0.959164 0.288442 0.291391 0.234899
H77   H     H_    0.858861 0.350307 0.276465 0.268621
H78   H     H_    0.802239 0.235637 0.195196 0.270405
H79   H     H_    0.833198 0.317495 0.164762 0.261277
H80   H     H_    0.454433 0.216987 0.704321 0.317268
H81   H     H_    0.131484 0.765496 0.707940 0.167217
H82   H     H_    0.027109 0.673742 0.623812 0.120127
H83   H     H_    0.071429 0.855284 0.760660 0.235306
H84   H     H_    0.961541 0.772326 0.672982 0.222005
H85   H     H_    0.609955 0.807886 0.517822 0.177451
H86   H     H_    0.965102 0.669956 0.727301 0.270963
H87   H     H_    0.993201 0.772720 0.812895 0.271089
H88   H     H_    0.078698 0.748723 0.812926 0.266365
H89   H     H_    0.394557 0.236616 0.839656 0.325191
H90   H     H_    0.120757 0.169975 0.813196 0.325462
H91   H     H_    0.413337 0.466169 0.691802 0.180303
H92   H     H_    0.409320 0.376076 0.702922 0.184605
H93   H     H_    0.486137 0.567707 0.848408 0.228312
H94   H     H_    0.482721 0.482826 0.872859 0.223562
H95   H     H_    0.575406 0.460421 0.805795 0.278078
H96   H     H_    0.260696 0.367291 0.225018 0.160303
H97   H     H_    0.629085 0.570476 0.896108 0.259681
H98   H     H_    0.580959 0.549181 0.785554 0.277965
H99   H     H_    0.889772 0.393020 0.722286 0.135945
H100  H     H_    0.790485 0.364766 0.629689 0.159291
H101  H     H_    0.961306 0.382689 0.632283 0.228192
H102  H     H_    0.863338 0.354461 0.540099 0.226759
H103  H     H_    0.877431 0.498556 0.626125 0.263744
H104  H     H_    0.974553 0.513124 0.618707 0.262544
H105  H     H_    0.975756 0.527023 0.718806 0.275834
H106  H     H_    0.631280 0.521850 0.329167 0.145569
O1    O     O_R   0.408620 0.551720 0.460350 -0.613020
O2    O     O_R   0.952100 0.356700 0.912170 -0.621453
O3    O     O_R   0.145980 0.551740 0.094190 -0.598193
O4    O     O_R   0.409320 0.448300 0.357580 -0.636713
O5    O     O_R   0.042530 0.448320 0.094220 -0.642696
O6    O     O_R   0.054350 0.643370 0.094170 -0.603385
O7    O     O_R   0.950900 0.539950 0.094200 -0.632123
O8    O     O_R   0.963910 0.551750 0.912120 -0.626244
O9    O     O_R   0.860470 0.448330 0.912150 -0.611455
O10   O     O_R   0.591270 0.643330 0.551380 -0.624506
O11   O     O_R   0.591970 0.539910 0.448620 -0.622318
O12   O     O_R   0.949210 0.908400 0.357560 -0.623388
O13   O     O_R   0.590680 0.551700 0.642420 -0.627233
O14   O     O_R   0.591380 0.448280 0.539650 -0.620570
O15   O     O_R   0.408030 0.460090 0.551380 -0.632993
O16   O     O_R   0.408730 0.356670 0.448620 -0.630719
O17   O     O_R   0.051990 0.908360 0.460320 -0.621123
O18   O     O_3   0.592182 0.904313 0.642162 -0.647837
O19   O     O_3   0.247177 0.656548 0.284965 -0.768605
O20   O     O_3   0.113611 0.269557 0.315112 -0.643821
O21   O     O_3   0.092475 0.395925 0.283489 -0.644354
O22   O     O_3   0.408006 0.215722 0.657992 -0.821236
O23   O     O_R   0.959770 0.908340 0.551360 -0.611614
O24   O     O_3   0.071446 0.786163 0.610749 -0.656022
O25   O     O_3   0.337877 0.217604 0.838857 -0.718133
O26   O     O_3   0.180413 0.181516 0.825716 -0.734220
O27   O     O_3   0.327669 0.421591 0.731319 -0.656748
O28   O     O_3   0.819125 0.265178 0.615375 -0.648426
O29   O     O_3   0.590071 0.613791 0.343178 -0.642989
O30   O     O_3   0.586858 0.767784 0.335837 -0.781042
O31   O     O_R   0.856990 0.908380 0.448600 -0.615803
O32   O     O_R   0.050790 0.091560 0.642400 -0.609809
O33   O     O_R   0.948010 0.091600 0.539640 -0.615648
O34   O     O_R   0.143010 0.091580 0.551350 -0.603361
O35   O     O_R   0.040230 0.091620 0.448600 -0.626939
O36   O     O_R   0.055540 0.460120 0.912140 -0.626885
Zn1   Zn    Zn3+2 0.499530 0.569060 0.568620 0.934764
Zn2   Zn    Zn3+2 0.500470 0.430940 0.431380 0.930366
Zn3   Zn    Zn3+2 0.068630 0.999950 0.568590 1.038383
Zn4   Zn    Zn3+2 0.931370 1.000000 0.431370 0.978454
Zn5   Zn    Zn3+2 0.072290 0.569090 0.003150 0.975758
Zn6   Zn    Zn3+2 0.934150 0.430980 0.003190 0.924256

loop_
_geom_bond_atom_site_label_1
_geom_bond_atom_site_label_2
_ccdc_geom_bond_type
C2    C35   A    
C127  H46   S    
C55   C56   A    
C63   C65   A    
C96   O35   A    
C126  C127  A    
C80   O22   S    
C39   O11   A    
C11   H59   S    
C10   H57   S    
C5    H47   S    
C7    C117  S    
C120  C121  A    
C9    C51   A    
H89   O25   S    
C97   O36   A    
C28   H101  S    
C62   H50   S    
C81   C82   A    
C90   C91   D    
C93   O23   A    
C69   O20   S    
C7    C8    A    
C54   C65   S    
C53   C54   A    
C56   C57   A    
C12   H62   S    
C105  C107  A    
C31   H5    S    
C116  C122  A    
O36   Zn5   S    
C5    C6    A    
C50   O19   S    
C36   C37   A    
O32   Zn3   S    
C29   H103  S    
C10   O18   S    
C72   C79   A    
C85   C86   A    
C32   H6    S    
C3    C127  A    
C103  H33   S    
C123  C125  A    
C26   H98   S    
C15   C16   S    
C27   O28   S    
O2    Zn6   S    
C21   H83   S    
C47   H74   S    
C17   H73   S    
O12   Zn4   S    
C34   C35   A    
C41   C42   A    
C61   C63   A    
C2    C13   A    
H80   O22   S    
C110  C111  A    
C38   H19   S    
C62   C117  A    
C31   H4    S    
C75   C86   S    
C2    H49   S    
C118  C119  A    
C15   H67   S    
C40   C76   A    
C48   H85   S    
C116  C118  A    
C68   C69   A    
C91   H31   S    
H64   O19   S    
O35   Zn4   S    
C26   H95   S    
C19   H79   S    
C80   C86   A    
C88   H18   S    
C87   H26   S    
C62   C73   A    
C102  C108  A    
C70   C71   A    
O17   Zn3   S    
C101  O8    A    
C76   C88   A    
C73   C84   A    
C39   O10   A    
C40   H1    S    
C20   O24   S    
C93   O31   A    
C15   H68   S    
C96   O34   A    
C23   C25   S    
C66   C67   A    
C23   H91   S    
C59   C60   A    
C112  C124  A    
C21   C22   S    
H9    O30   S    
C10   H56   S    
C50   C57   A    
C70   O21   S    
C69   C70   A    
C3    O27   S    
C94   O33   A    
C67   H17   S    
C44   H52   S    
C104  C105  A    
C42   H41   S    
O1    Zn1   S    
C83   H24   S    
C123  O25   S    
C63   H14   S    
C40   C124  A    
C23   H92   S    
C17   O21   S    
C8    H48   S    
C50   C53   A    
C74   C75   A    
C124  H40   S    
C34   C39   S    
C6    C97   S    
C74   C96   S    
O11   Zn2   S    
C29   H104  S    
C38   C41   A    
C18   H75   S    
C109  H36   S    
C108  H32   S    
C78   C79   A    
C18   C19   S    
C66   H16   S    
C59   H11   S    
C1    O4    A    
C25   C26   S    
C77   C78   A    
C99   C110  S    
C33   O29   S    
C118  H39   S    
C44   C49   A    
C21   H84   S    
C4    C123  A    
C13   C93   S    
C60   C61   A    
C30   O29   S    
C84   C95   A    
O8    Zn5   S    
C18   H76   S    
C67   C68   A    
C36   O30   S    
C66   C71   A    
C37   C38   A    
C16   H69   S    
C95   C106  A    
C104  C115  S    
O14   Zn2   S    
C84   H53   S    
C58   C65   A    
C47   C48   A    
C64   O15   A    
C107  H35   S    
C1    O1    A    
C107  C108  A    
C76   H2    S    
C17   C18   S    
C8    C9    A    
C98   O3    A    
C111  C113  A    
C88   C100  A    
C20   H82   S    
C119  C120  A    
C25   H94   S    
C101  O9    A    
C75   C77   A    
C77   H21   S    
C121  C122  A    
C82   H23   S    
O16   Zn2   S    
C119  H42   S    
C71   H15   S    
C41   H30   S    
C99   O7    A    
C58   H10   S    
C72   C74   A    
C48   C49   A    
C83   C85   A    
C14   H66   S    
C23   O27   S    
C100  C112  A    
C87   C89   D    
C106  C117  A    
C26   H97   S    
C125  C126  A    
C105  H34   S    
C116  H38   S    
C22   H86   S    
C42   C43   A    
C73   H51   S    
O5    Zn6   S    
O4    Zn2   S    
C52   O14   A    
C103  C104  A    
C16   H71   S    
C44   C45   A    
C55   H96   S    
C113  C114  A    
C121  H44   S    
C94   O32   A    
C54   C55   A    
C28   C29   S    
C4    H45   S    
O34   Zn3   S    
C89   C101  S    
C11   H58   S    
C51   C126  S    
C64   C78   S    
C1    C56   S    
C31   C32   S    
C95   H54   S    
C24   C33   A    
C29   H105  S    
C80   C81   A    
O23   Zn3   S    
C52   O13   A    
O9    Zn6   S    
C32   H8    S    
C92   O12   A    
O7    Zn6   S    
C61   H13   S    
C114  C115  A    
C6    C7    A    
C98   O5    A    
C92   O17   A    
C53   C98   S    
C72   H20   S    
C125  O26   S    
C36   C43   A    
O31   Zn4   S    
H90   O26   S    
C102  O24   S    
O6    Zn5   S    
C22   H87   S    
C58   C59   A    
O10   Zn1   S    
C99   O6    A    
C46   C57   S    
C30   H3    S    
C109  C110  A    
C113  H37   S    
C32   H7    S    
C12   H60   S    
C27   H100  S    
C89   H27   S    
C30   C31   S    
C14   O20   S    
C68   C79   S    
C81   H22   S    
C37   H55   S    
C9    C94   S    
C19   H77   S    
O13   Zn1   S    
C33   C34   A    
C17   H72   S    
O3    Zn5   S    
C14   H65   S    
C106  O28   S    
C30   H106  S    
C102  C103  A    
C85   H25   S    
C46   C47   A    
C10   C11   S    
C109  C115  A    
C60   H12   S    
C64   O16   A    
C49   O18   S    
C35   C100  S    
C45   H63   S    
O15   Zn1   S    
C20   C21   S    
C13   C24   A    
C82   C83   A    
C112  H29   S    
C87   C90   S    
C27   C28   S    
C19   H78   S    
C24   C43   S    
C20   H81   S    
C14   C15   S    
C5    C51   A    
C25   H93   S    
O33   Zn4   S    
C52   C91   S    
C90   H28   S    
C22   H88   S    
C92   C114  S    
C28   H102  S    
C120  H43   S    
C27   H99   S    
C16   H70   S    
C3    C4    A    
C11   C12   S    
C45   C46   A    
C111  C122  S    
C97   O2    A    
C12   H61   S    
