data_mof_unit_67649.cif
_audit_creation_date              2013-03-05T16:47:20-0500
_audit_creation_method            fapswitch 2.2
_symmetry_space_group_name_H-M    P1
_symmetry_Int_Tables_number       1
_space_group_crystal_system       triclinic
_cell_length_a                    11.182612
_cell_length_b                    11.101737
_cell_length_c                    10.13853
_cell_angle_alpha                 92.651269
_cell_angle_beta                  90.176878
_cell_angle_gamma                 91.347945
_cell_volume                      1256.95596136

loop_
_atom_site_label
_atom_site_type_symbol
_atom_site_description
_atom_site_fract_x
_atom_site_fract_y
_atom_site_fract_z
_atom_type_partial_charge
O1    O     O_R   0.500020 0.321960 0.617040 -0.536889
O2    O     O_R   0.499980 0.321920 0.382900 -0.569609
C1    C     C_R   0.500739 0.266407 0.496271 0.819393
O3    O     O_R   0.319660 0.500030 0.617070 -0.530773
O4    O     O_R   0.319620 0.499990 0.382930 -0.548552
C2    C     C_R   0.263234 0.503447 0.499244 0.832458
Cu1   Cu    Cu3+1 0.500020 0.500020 0.638630 1.036211
Cu2   Cu    Cu3+1 0.499980 0.499980 0.361370 1.090661
O5    O     O_R   0.500020 0.678080 0.617100 -0.581257
O6    O     O_R   0.499980 0.678040 0.382960 -0.554652
O7    O     O_R   0.680380 0.500010 0.617070 -0.606077
O8    O     O_R   0.680340 0.499970 0.382930 -0.531107
C3    C     C_R   0.501760 0.733362 0.505038 0.740578
C4    C     C_R   0.736267 0.502497 0.500135 0.813914
C5    C     C_R   0.219462 0.667898 0.096267 0.321899
C6    C     C_R   0.174128 0.669821 0.225115 0.424374
C7    C     C_R   0.118610 0.564528 0.269724 -0.100461
C8    C     C_R   0.122380 0.453420 0.195999 -0.138578
C9    C     C_R   0.169051 0.450499 0.066918 0.355274
C10   C     C_R   0.205951 0.561374 0.014472 0.302584
C11   C     C_R   0.935738 0.568636 0.402413 -0.054230
C12   C     C_R   0.870453 0.506018 0.499301 -0.072907
C13   C     C_R   0.934558 0.434459 0.585800 0.043945
C14   C     C_R   0.061063 0.428949 0.577102 -0.159024
C15   C     C_R   0.127241 0.504279 0.496640 -0.174200
C16   C     C_R   0.062817 0.562631 0.399425 0.005697
C17   C     C_R   0.858809 0.454777 0.812633 0.437383
C18   C     C_R   0.837169 0.403770 0.933101 -0.255972
H1    H     H_    0.846878 0.460193 0.021808 0.274551
C19   C     C_R   0.815139 0.280263 0.942125 -0.182765
C20   C     C_R   0.820387 0.203858 0.826415 -0.077516
C21   C     C_R   0.853698 0.253539 0.704541 0.392997
C22   C     C_R   0.873676 0.379414 0.699289 -0.071487
C23   C     C_2   0.582368 0.932547 0.459143 -0.143179
C24   C     C_2   0.504370 0.866788 0.527389 0.269093
C25   C     C_2   0.555175 0.057149 0.416542 0.290508
C26   C     C_2   0.484173 0.134009 0.489258 0.332004
C27   C     C_2   0.478171 0.406655 0.921747 -0.007690
N1    N     N_2   0.498640 0.498660 0.846910 -0.360421
H2    H     H_    0.485427 0.582678 0.889625 0.221023
C28   C     C_2   0.457331 0.413850 0.072952 0.454113
N2    N     N_2   0.498610 0.498630 0.153040 -0.264550
O9    O     O_3   0.229902 0.564068 0.880850 -0.525691
C29   C     C_3   0.157874 0.651870 0.824309 -0.211621
H3    H     H_    0.075225 0.673278 0.880753 0.178656
H4    H     H_    0.130309 0.620974 0.724201 0.182881
H5    H     H_    0.209036 0.736622 0.815462 0.151371
C30   C     C_2   0.791646 0.236880 0.075946 0.904789
O10   O     O_2   0.824199 0.137671 0.106816 -0.552117
O11   O     O_R   0.738882 0.314436 0.170376 -0.714496
H6    H     H_    0.734838 0.279765 0.260915 0.389223
C31   C     C_2   0.794282 0.073206 0.831630 0.907798
O12   O     O_2   0.705154 0.028937 0.776802 -0.509350
O13   O     O_R   0.875533 0.999955 0.892897 -0.780539
H7    H     H_    0.849708 0.911985 0.887131 0.314785
O14   O     O_3   0.866632 0.182107 0.589570 -0.565259
C32   C     C_3   0.958111 0.097304 0.603411 -0.272712
H8    H     H_    0.918144 0.006399 0.615754 0.195674
H9    H     H_    0.020341 0.117266 0.687848 0.174878
H10   H     H_    0.011838 0.093505 0.511695 0.176339
C33   C     C_2   0.711868 0.905752 0.469348 0.957190
O15   O     O_2   0.746758 0.836108 0.550446 -0.627513
O16   O     O_R   0.794994 0.963900 0.389817 -0.693611
H11   H     H_    0.878528 0.932698 0.399548 0.308408
O17   O     O_3   0.482068 0.914475 0.654585 -0.491430
C34   C     C_3   0.373386 0.870847 0.706809 -0.131032
H12   H     H_    0.394215 0.807792 0.784996 0.202362
H13   H     H_    0.311199 0.827185 0.631714 0.099016
H14   H     H_    0.325699 0.947262 0.754594 0.155071
O18   O     O_3   0.610798 0.096334 0.303358 -0.590005
C35   C     C_3   0.594476 0.006285 0.199359 -0.223469
H15   H     H_    0.653936 0.928998 0.210099 0.220749
H16   H     H_    0.618172 0.043535 0.103349 0.197806
H17   H     H_    0.499780 0.972883 0.191240 0.139905
O19   O     O_3   0.389273 0.091879 0.561616 -0.547910
C36   C     C_3   0.298333 0.048173 0.473918 -0.294654
H18   H     H_    0.325342 0.966338 0.415644 0.160654
H19   H     H_    0.272091 0.117038 0.404625 0.217899
H20   H     H_    0.218923 0.023654 0.532978 0.189240
C37   C     C_2   0.464419 0.285807 0.860251 0.975267
O20   O     O_2   0.549570 0.219037 0.854599 -0.626672
O21   O     O_R   0.352151 0.245293 0.814856 -0.637119
H21   H     H_    0.349299 0.155682 0.792276 0.349032
O22   O     O_3   0.382596 0.330272 0.131078 -0.529336
C38   C     C_3   0.430858 0.214935 0.128261 -0.185973
H22   H     H_    0.529593 0.218214 0.120886 0.192022
H23   H     H_    0.390487 0.156742 0.047540 0.129237
H24   H     H_    0.404104 0.171561 0.219918 0.188176
O23   O     O_3   0.288321 0.763045 0.050278 -0.528538
C39   C     C_3   0.225569 0.872204 0.055470 -0.278373
H25   H     H_    0.247389 0.925282 0.148096 0.200337
H26   H     H_    0.127058 0.859107 0.042374 0.148030
H27   H     H_    0.257270 0.927641 0.973984 0.139004
C40   C     C_2   0.574960 0.591126 0.108278 0.957426
O24   O     O_2   0.679516 0.570874 0.087473 -0.626807
O25   O     O_R   0.531843 0.707121 0.096445 -0.737467
H28   H     H_    0.594134 0.764140 0.059746 0.301293
O26   O     O_3   0.198440 0.768279 0.310899 -0.575531
C41   C     C_3   0.093260 0.833610 0.335309 -0.407776
H29   H     H_    0.050555 0.805075 0.427757 0.178034
H30   H     H_    0.028585 0.828481 0.251656 0.185693
H31   H     H_    0.117008 0.930420 0.349400 0.167273
C42   C     C_2   0.091040 0.342140 0.264705 0.861206
O27   O     O_2   0.170534 0.282843 0.309931 -0.596202
O28   O     O_R   0.971576 0.309786 0.284758 -0.759356
H32   H     H_    0.962144 0.233371 0.335004 0.363403
O29   O     O_3   0.199379 0.345262 0.994059 -0.490328
C43   C     C_3   0.134010 0.237355 0.018053 -0.100988
H33   H     H_    0.037737 0.253179 0.032834 0.145738
H34   H     H_    0.175332 0.187462 0.097414 0.158450
H35   H     H_    0.141187 0.173418 0.931408 0.197947
C44   C     C_2   0.873297 0.638765 0.301009 0.896655
O30   O     O_2   0.787347 0.698965 0.331842 -0.595392
O31   O     O_R   0.913974 0.639685 0.171061 -0.794372
H36   H     H_    0.874704 0.703914 0.119540 0.333027
C45   C     C_2   0.124422 0.334163 0.641771 0.957549
O32   O     O_2   0.190702 0.267597 0.579474 -0.536229
O33   O     O_R   0.109395 0.319509 0.773556 -0.720124
H37   H     H_    0.074167 0.393059 0.819013 0.328594
O34   O     O_3   0.891972 0.575368 0.809504 -0.628294
C46   C     C_3   0.792247 0.649538 0.828903 -0.190487
H38   H     H_    0.808531 0.711515 0.915461 0.146060
H39   H     H_    0.705862 0.601043 0.843480 0.192198
H40   H     H_    0.782704 0.705154 0.741990 0.223664

loop_
_geom_bond_atom_site_label_1
_geom_bond_atom_site_label_2
_geom_bond_distance
_ccdc_geom_bond_type
C34   H13   1.115762 S    
C11   C16   1.424560 A    
C28   N2    1.290263 D    
C9    C10   1.416385 A    
C36   H20   1.108231 S    
C20   C31   1.476192 S    
O9    C29   1.418908 S    
C10   O9    1.383299 S    
C44   O31   1.395529 S    
O31   H36   1.010902 S    
C32   H8    1.106669 S    
Cu1   Cu2   2.810988 S    
C38   H22   1.106729 S    
C45   O32   1.216493 D    
Cu1   O7    2.029378 S    
C7    C16   1.458036 S    
C19   C30   1.482713 S    
C25   C26   1.370876 D    
C36   H19   1.105957 S    
C3    C24   1.487687 S    
O4    C2    1.338366 A    
O7    C4    1.343006 A    
C32   H9    1.112539 S    
C34   H14   1.106172 S    
C24   O17   1.396609 S    
C5    C6    1.402132 A    
C43   H33   1.104447 S    
C23   C24   1.339023 D    
C33   O16   1.398400 S    
O5    C3    1.316033 A    
O33   H37   1.007850 S    
C46   H40   1.105412 S    
C35   H17   1.115269 S    
O22   C38   1.400307 S    
C41   H29   1.109065 S    
C25   O18   1.389534 S    
C6    C7    1.404595 A    
C13   C22   1.487008 S    
O29   C43   1.419671 S    
O18   C35   1.427294 S    
C29   H5    1.097024 S    
C30   O11   1.399001 S    
C34   H12   1.109293 S    
C26   O19   1.377073 S    
N2    C40   1.411963 S    
C11   C12   1.422980 A    
C33   O15   1.223556 D    
O3    Cu1   2.028038 S    
C44   O30   1.216923 D    
C31   O13   1.396686 S    
O11   H6    1.012387 S    
C38   H23   1.107265 S    
C5    C10   1.417460 A    
C27   N1    1.316483 D    
C14   C15   1.396514 A    
C27   C28   1.550013 S    
C37   O21   1.393184 S    
N1    H2    1.024162 S    
C35   H16   1.105634 S    
C8    C9    1.409680 A    
C32   H10   1.108335 S    
C29   H4    1.097124 S    
C15   C16   1.409526 A    
C17   O34   1.382569 S    
C28   O22   1.387011 S    
C23   C33   1.489463 S    
C17   C22   1.402477 A    
O1    C1    1.345387 A    
O19   C36   1.411185 S    
C5    O23   1.391264 S    
C39   H26   1.114490 S    
C20   C21   1.423355 A    
Cu2   O8    2.028037 S    
O25   H28   1.013406 S    
C7    C8    1.413975 A    
C42   O28   1.393156 S    
C31   O12   1.221542 D    
C36   H18   1.109064 S    
C40   O25   1.395809 S    
C46   H38   1.101803 S    
O3    C2    1.351772 A    
C30   O10   1.222116 D    
C41   H30   1.111498 S    
O8    C4    1.339947 A    
O21   H21   1.010210 S    
O14   C32   1.417452 S    
C17   C18   1.389364 A    
C11   C44   1.498625 S    
O34   C46   1.410632 S    
C39   H27   1.107049 S    
C38   H24   1.105108 S    
Cu1   O5    1.998801 S    
O13   H7    1.010920 S    
C18   H1    1.075671 S    
O1    Cu1   1.978768 S    
O2    Cu2   1.998800 S    
C29   H3    1.113195 S    
Cu2   N2    2.111526 S    
C37   O20   1.220280 D    
O6    C3    1.355890 A    
O4    Cu2   2.029379 S    
C43   H34   1.103947 S    
C14   C45   1.461240 S    
O28   H32   1.013123 S    
C43   H35   1.107876 S    
C21   C22   1.413443 A    
C4    C12   1.500194 S    
C18   C19   1.394612 A    
O2    C1    1.329199 A    
C35   H15   1.106887 S    
C6    O26   1.386254 S    
C39   H25   1.108730 S    
C19   C20   1.417701 A    
C27   C37   1.457617 S    
C45   O33   1.363854 S    
C23   C25   1.505583 S    
C8    C42   1.481558 S    
O17   C34   1.411393 S    
C40   O24   1.213093 D    
C46   H39   1.108444 S    
C13   C14   1.420250 A    
O16   H11   1.010015 S    
C2    C15   1.521161 S    
C41   H31   1.103714 S    
C1    C26   1.475555 S    
Cu2   O6    1.978768 S    
O26   C41   1.412808 S    
C42   O27   1.219329 D    
Cu1   N1    2.112506 S    
C12   C13   1.414724 A    
O23   C39   1.413542 S    
C21   O14   1.389039 S    
C9    O29   1.402136 S    
