data_mof_unit_8458.cif
_audit_creation_date              2012-12-10T18:04:00-0500
_audit_creation_method            fapswitch 2.2
_symmetry_space_group_name_H-M    P1
_symmetry_Int_Tables_number       1
_space_group_crystal_system       triclinic
_cell_length_a                    10.757036
_cell_length_b                    9.706408
_cell_length_c                    10.854777
_cell_angle_alpha                 90.65168
_cell_angle_beta                  95.790774
_cell_angle_gamma                 89.332786
_cell_volume                      1127.45159943

loop_
_atom_site_label
_atom_site_type_symbol
_atom_type_description
_atom_site_fract_x
_atom_site_fract_y
_atom_site_fract_z
_atom_type_partial_charge
C1    C     C_R   0.262711 0.500250 0.498821 0.815938
C2    C     C_R   0.737294 0.499179 0.499742 0.810725
C3    C     C_R   0.415951 0.071892 0.421159 -0.097317
C4    C     C_R   0.583429 0.071726 0.579500 -0.097491
C5    C     C_R   0.405693 0.926022 0.436688 0.462685
C6    C     C_R   0.593706 0.924854 0.564454 0.419147
C7    C     C_R   0.500293 0.498880 0.262641 0.866011
C8    C     C_R   0.503353 0.500060 0.737656 0.872644
C9    C     C_R   0.534832 0.610688 0.065945 -0.038545
C10   C     C_R   0.561777 0.605588 0.946192 -0.015010
C11   C     C_R   0.505883 0.494112 0.129245 -0.135929
C12   C     C_R   0.518076 0.494856 0.872520 -0.150851
C13   C     C_R   0.516610 0.367793 0.064843 0.312179
C14   C     C_R   0.485917 0.373828 0.933967 0.352034
C15   C     C_3   0.561023 0.759155 0.938277 -0.242139
C16   C     C_3   0.513745 0.761897 0.068539 -0.274404
C17   C     C_R   0.074341 0.415181 0.580911 -0.184412
C18   C     C_R   0.945506 0.413885 0.580496 -0.166682
C19   C     C_R   0.871230 0.497075 0.497507 -0.014404
C20   C     C_R   0.128698 0.499236 0.497943 -0.010553
C21   C     C_R   0.925580 0.578202 0.412179 -0.197347
C22   C     C_R   0.054476 0.577642 0.411470 -0.168713
Cu1   Cu    Cu3+1 0.500000 0.640660 0.500000 1.040022
Cu2   Cu    Cu3+1 0.500000 0.359340 0.500000 1.009720
H1    H     H_    0.497076 0.800628 0.860396 0.183906
H2    H     H_    0.572839 0.814246 0.144241 0.168565
H3    H     H_    0.131638 0.352455 0.646835 0.158825
H4    H     H_    0.904657 0.350844 0.646808 0.187612
H5    H     H_    0.868325 0.639812 0.345360 0.141012
H6    H     H_    0.096553 0.635895 0.342621 0.178293
N1    N     N_R   0.500000 0.852070 0.500000 -0.258143
N2    N     N_R   0.500000 0.147940 0.500000 -0.270054
O1    O     O_R   0.319640 0.618740 0.499990 -0.563858
O2    O     O_R   0.680360 0.618740 0.500010 -0.559605
O3    O     O_R   0.319620 0.381170 0.499990 -0.542943
O4    O     O_R   0.680380 0.381170 0.500010 -0.552070
O5    O     O_R   0.499990 0.618810 0.319660 -0.554404
O6    O     O_R   0.500010 0.618810 0.680340 -0.570675
O7    O     O_R   0.499960 0.381240 0.319650 -0.554971
O8    O     O_R   0.500040 0.381240 0.680350 -0.536577
O9    O     O_3   0.623901 0.294413 0.105706 -0.593108
C23   C     C_3   0.596602 0.157268 0.132183 0.078884
H7    H     H_    0.607170 0.091714 0.049840 0.181047
H8    H     H_    0.501377 0.145036 0.159136 0.150645
C24   C     C_3   0.688631 0.107626 0.238758 -0.710591
H9    H     H_    0.682952 0.175093 0.321188 0.256434
H10   H     H_    0.666480 0.000865 0.263903 0.182903
H11   H     H_    0.785419 0.109790 0.211742 0.256405
O10   O     O_3   0.380454 0.306914 0.880221 -0.605459
C25   C     C_3   0.398722 0.163347 0.877702 0.092735
H12   H     H_    0.375060 0.119153 0.965918 0.172981
H13   H     H_    0.495606 0.134128 0.862171 0.162215
C26   C     C_3   0.312594 0.102591 0.771355 -0.753610
H14   H     H_    0.326190 0.155725 0.683747 0.251114
H15   H     H_    0.333904 0.991346 0.759415 0.220327
H16   H     H_    0.213535 0.115242 0.790355 0.237262
C27   C     C_2   0.695200 0.803105 0.938006 0.966693
O11   O     O_2   0.756978 0.757671 0.858028 -0.544460
O12   O     O_R   0.751217 0.888727 0.031430 -0.813170
H17   H     H_    0.842105 0.907604 0.021273 0.324576
C28   C     C_2   0.375458 0.792778 0.066904 0.935127
O13   O     O_2   0.318624 0.752561 0.151279 -0.522770
O14   O     O_R   0.311298 0.863327 0.968230 -0.811517
H18   H     H_    0.219091 0.875872 0.978009 0.332811
C29   C     C_2   0.336143 0.130611 0.312831 0.859294
O15   O     O_2   0.294528 0.247341 0.312392 -0.572205
O16   O     O_R   0.304929 0.046977 0.208799 -0.762944
H19   H     H_    0.248101 0.095205 0.142116 0.320183
C30   C     C_2   0.661407 0.132425 0.688271 0.862476
O17   O     O_2   0.702679 0.247988 0.687482 -0.593245
O18   O     O_R   0.693010 0.052176 0.792888 -0.773628
H20   H     H_    0.747648 0.102779 0.859948 0.331611
O19   O     O_3   0.300907 0.857800 0.384163 -0.487744
C31   C     C_3   0.194034 0.900920 0.442364 0.089888
H21   H     H_    0.207674 0.992781 0.504964 0.089437
H22   H     H_    0.167616 0.816030 0.501216 0.162633
C32   C     C_3   0.084684 0.931804 0.345161 -0.762327
H23   H     H_    0.083069 0.857816 0.266358 0.273011
H24   H     H_    0.995168 0.925201 0.387147 0.178897
H25   H     H_    0.091659 0.037602 0.309252 0.249019
O20   O     O_3   0.694229 0.853588 0.623349 -0.487035
C33   C     C_3   0.804553 0.887674 0.569490 0.107406
H26   H     H_    0.814498 0.000030 0.554228 0.095782
H27   H     H_    0.805883 0.835120 0.478274 0.134697
C34   C     C_3   0.917882 0.841597 0.654801 -0.669595
H28   H     H_    0.915464 0.728807 0.669846 0.266370
H29   H     H_    0.004457 0.866977 0.613493 0.155719
H30   H     H_    0.919564 0.896575 0.745179 0.262601

loop_
_geom_bond_atom_site_label_1
_geom_bond_atom_site_label_2
_ccdc_geom_bond_type
O19   C31   S    
C17   C20   A    
C13   O9    S    
O20   C33   S    
C1    O1    A    
C32   H23   S    
C26   H16   S    
C7    C11   S    
Cu2   O4    S    
C8    O6    A    
C19   C21   A    
C9    C16   S    
C10   C15   S    
C34   H28   S    
C34   H30   S    
C14   O10   S    
C15   C16   S    
Cu2   O7    S    
C28   O14   S    
C18   C19   A    
O9    C23   S    
C24   H10   S    
C30   O18   S    
Cu1   O1    S    
C31   C32   S    
C25   H13   S    
Cu1   Cu2   S    
C9    C10   A    
C17   H3    S    
C2    O2    A    
C32   H24   S    
C6    N1    A    
O12   H17   S    
C6    O20   S    
C21   C22   A    
C15   C27   S    
C3    C29   S    
C23   H8    S    
C4    C30   S    
C17   C18   A    
C26   H15   S    
C16   H2    S    
C25   C26   S    
C31   H21   S    
C34   H29   S    
O16   H19   S    
Cu2   O3    S    
C18   H4    S    
C4    C6    A    
C24   H11   S    
C29   O16   S    
Cu1   O5    S    
C21   H5    S    
C33   H26   S    
C23   C24   S    
Cu1   N1    S    
Cu2   N2    S    
C8    C12   S    
Cu1   O2    S    
C25   H12   S    
C7    O5    A    
C3    N2    A    
C9    C11   A    
C4    N2    A    
C10   C12   A    
C12   C14   A    
O10   C25   S    
C33   H27   S    
C16   C28   S    
C31   H22   S    
Cu1   O6    S    
C1    O3    A    
C32   H25   S    
C2    O4    A    
C1    C20   S    
C22   H6    S    
C2    C19   S    
C20   C22   A    
C3    C5    A    
C26   H14   S    
C33   C34   S    
O18   H20   S    
C11   C13   A    
C27   O11   D    
Cu2   O8    S    
C5    O19   S    
C28   O13   D    
C30   O17   D    
C27   O12   S    
O14   H18   S    
C24   H9    S    
C15   H1    S    
C29   O15   D    
C23   H7    S    
C7    O7    A    
C8    O8    A    
C13   C14   A    
C5    N1    A    
