data_mof_unit_32026.cif
_audit_creation_date              2013-03-05T16:09:18-0500
_audit_creation_method            fapswitch 2.2
_symmetry_space_group_name_H-M    P1
_symmetry_Int_Tables_number       1
_space_group_crystal_system       triclinic
_cell_length_a                    7.291273
_cell_length_b                    12.173639
_cell_length_c                    21.15794
_cell_angle_alpha                 90.037408
_cell_angle_beta                  90.273501
_cell_angle_gamma                 89.765022
_cell_volume                      1877.96922996

loop_
_atom_site_label
_atom_site_type_symbol
_atom_site_description
_atom_site_fract_x
_atom_site_fract_y
_atom_site_fract_z
_atom_type_partial_charge
O1    O     O_R   0.354460 0.152320 0.595720 -0.583020
O2    O     O_R   0.645540 0.847680 0.404280 -0.596117
O3    O     O_R   0.145540 0.652320 0.404280 -0.597588
O4    O     O_R   0.854460 0.347680 0.595720 -0.582989
O5    O     O_R   0.683670 0.140090 0.727290 -0.579739
O6    O     O_R   0.316330 0.859910 0.272710 -0.527602
O7    O     O_R   0.816330 0.640090 0.272710 -0.551994
O8    O     O_R   0.183670 0.359910 0.727290 -0.580983
O9    O     O_R   0.854010 0.349340 0.727750 -0.545366
O10   O     O_R   0.145990 0.650660 0.272250 -0.561162
O11   O     O_R   0.645990 0.849340 0.272250 -0.589601
O12   O     O_R   0.354010 0.150660 0.727750 -0.545285
C1    C     C_R   0.516306 0.112597 0.747056 1.146270
C2    C     C_R   0.483162 0.888573 0.253550 1.138360
C3    C     C_R   0.984945 0.611270 0.253569 1.129846
C4    C     C_R   0.016180 0.388046 0.746630 1.145633
O13   O     O_R   0.684170 0.139420 0.596190 -0.592861
O14   O     O_R   0.315830 0.860580 0.403810 -0.579017
O15   O     O_R   0.815830 0.639420 0.403810 -0.576431
O16   O     O_R   0.184170 0.360580 0.596190 -0.593011
C5    C     C_R   0.515514 0.113350 0.574549 0.969246
C6    C     C_R   0.484495 0.886642 0.425455 0.966227
C7    C     C_R   0.984782 0.613312 0.425414 0.953488
C8    C     C_R   0.015227 0.386628 0.574555 0.965628
O17   O     O_3   0.520730 0.319480 0.661730 -0.283719
O18   O     O_3   0.479270 0.680520 0.338270 -0.283471
O19   O     O_3   0.979270 0.819480 0.338270 -0.284094
O20   O     O_3   0.020730 0.180520 0.661730 -0.282949
V1    V     V_3+5 0.795560 0.238090 0.661730 1.319325
V2    V     V_3+5 0.204440 0.761910 0.338270 1.329176
V3    V     V_3+5 0.704440 0.738090 0.338270 1.313275
V4    V     V_3+5 0.295560 0.261910 0.661730 1.318086
C9    C     C_R   0.013146 0.469481 0.797565 -0.555291
C10   C     C_R   0.996767 0.530083 0.202304 -0.561570
C11   C     C_R   0.487424 0.971808 0.203482 -0.562447
C12   C     C_R   0.511736 0.031222 0.798058 -0.559319
C13   C     C_R   0.038753 0.657739 0.835569 0.430680
C14   C     C_R   0.019479 0.340849 0.164274 0.431993
C15   C     C_R   0.529684 0.159478 0.166625 0.434026
C16   C     C_R   0.535320 0.842865 0.835817 0.424760
C17   C     C_R   0.028320 0.582259 0.784668 0.203972
C18   C     C_R   0.989599 0.416751 0.214310 0.227327
C19   C     C_R   0.514078 0.083328 0.217071 0.223179
C20   C     C_R   0.527425 0.918542 0.785141 0.198984
C21   C     C_R   0.012040 0.430957 0.859468 0.896241
C22   C     C_R   0.038414 0.567880 0.142078 0.890703
C23   C     C_R   0.459197 0.937776 0.141639 0.901611
C24   C     C_R   0.500359 0.069075 0.860035 0.901670
C25   C     C_R   0.040817 0.502750 0.911027 -0.104188
C26   C     C_R   0.034921 0.496710 0.089538 -0.094637
C27   C     C_R   0.509387 0.005172 0.090335 -0.089922
C28   C     C_R   0.528957 0.997525 0.911806 -0.102308
C29   C     C_R   0.033327 0.617707 0.899022 -0.353125
C30   C     C_R   0.040421 0.381184 0.101065 -0.371227
C31   C     C_R   0.539788 0.119253 0.102775 -0.374263
C32   C     C_R   0.532423 0.882354 0.899583 -0.343120
C33   C     C_R   0.057314 0.463828 0.974714 -0.215078
C34   C     C_R   0.028571 0.537354 0.025910 -0.220563
C35   C     C_R   0.521859 0.963146 0.026950 -0.238443
C36   C     C_R   0.541487 0.037196 0.975583 -0.212477
C37   C     C_R   0.981283 0.647316 0.011309 0.808151
C38   C     C_R   0.100208 0.353553 0.989007 0.823670
C39   C     C_R   0.586660 0.147180 0.989749 0.837324
C40   C     C_R   0.527390 0.849289 0.013168 0.813870
C41   C     C_R   0.994378 0.687872 0.950204 0.685473
C42   C     C_R   0.071041 0.311075 0.048937 0.673610
C43   C     C_R   0.576185 0.188396 0.050847 0.663514
C44   C     C_R   0.524274 0.810342 0.951552 0.701979
C45   C     C_1   0.995250 0.533161 0.478018 -0.136258
C46   C     C_1   0.004751 0.466764 0.521943 -0.132925
C47   C     C_1   0.505130 0.033192 0.521956 -0.134157
C48   C     C_1   0.494881 0.966803 0.478046 -0.133386
F1    F     F_    0.940974 0.793632 0.941310 -0.637480
F2    F     F_    0.075729 0.200290 0.053796 -0.626563
F3    F     F_    0.607806 0.297195 0.057112 -0.630356
F4    F     F_    0.506492 0.700209 0.944574 -0.627413
F5    F     F_    0.103001 0.672003 0.136963 -0.583164
F6    F     F_    0.959225 0.325170 0.868247 -0.592317
F7    F     F_    0.441649 0.174098 0.868476 -0.588739
F8    F     F_    0.361236 0.844303 0.133237 -0.580778
N1    N     N_R   0.963387 0.378956 0.278017 0.261699
O21   O     O_R   0.082618 0.313529 0.304425 -0.268937
O22   O     O_R   0.824229 0.413625 0.310833 -0.338684
N2    N     N_R   0.019582 0.619913 0.720135 0.263536
O23   O     O_R   0.136749 0.690973 0.698832 -0.255802
O24   O     O_R   0.891961 0.583835 0.682335 -0.368364
N3    N     N_R   0.524123 0.880902 0.720533 0.263518
O25   O     O_R   0.640580 0.807416 0.700831 -0.252955
O26   O     O_R   0.399437 0.917265 0.681533 -0.372063
N4    N     N_R   0.508694 0.120316 0.281826 0.262388
O27   O     O_R   0.623108 0.193908 0.302435 -0.248194
O28   O     O_R   0.380900 0.085658 0.319529 -0.371081
N5    N     N_R   0.041463 0.774041 0.822592 0.288434
O29   O     O_R   0.933597 0.816559 0.780071 -0.304051
O30   O     O_R   0.152390 0.838568 0.853023 -0.358761
N6    N     N_R   0.014220 0.224580 0.177993 0.287264
O31   O     O_R   0.893407 0.185922 0.216753 -0.329219
O32   O     O_R   0.149315 0.160600 0.162623 -0.334370
N7    N     N_R   0.510721 0.275141 0.180967 0.281170
O33   O     O_R   0.385503 0.307669 0.220325 -0.326182
O34   O     O_R   0.638322 0.344430 0.166759 -0.321695
N8    N     N_R   0.533190 0.727027 0.821807 0.287634
O35   O     O_R   0.417605 0.687708 0.780920 -0.320533
O36   O     O_R   0.660095 0.662298 0.843608 -0.338753
F9    F     F_    0.902132 0.714989 0.054149 -0.572913
F10   F     F_    0.181447 0.286093 0.946329 -0.570139
F11   F     F_    0.664942 0.213729 0.946144 -0.569864
F12   F     F_    0.557277 0.772305 0.058281 -0.561868

loop_
_geom_bond_atom_site_label_1
_geom_bond_atom_site_label_2
_geom_bond_distance
_ccdc_geom_bond_type
N3    O25   1.300661 A    
O1    C5    1.343444 A    
N5    O29   1.298606 A    
C9    C21   1.391525 A    
C7    C45   1.482102 S    
O3    C7    1.345059 A    
C10   C18   1.404239 A    
O15   V3    2.002193 S    
N1    O21   1.300998 A    
N4    O27   1.300312 A    
C8    C46   1.482111 S    
C33   C38   1.409822 A    
C35   C40   1.416673 A    
C26   C30   1.427892 A    
C5    C47   1.481402 S    
C36   C39   1.411783 A    
C40   C44   1.387020 A    
C24   F7    1.358562 S    
O20   V1    1.782460 S    
O9    C4    1.333994 A    
N2    O24   1.301617 A    
C14   C18   1.421715 A    
O10   C3    1.328493 A    
O4    C8    1.345074 A    
O11   C2    1.336143 A    
C42   F2    1.352918 S    
O13   V1    2.005102 S    
C31   C43   1.411337 A    
C28   C36   1.435537 A    
C15   N7    1.446373 S    
C15   C31   1.438763 A    
O16   C8    1.348721 A    
C16   C32   1.432161 A    
N6    O32   1.295793 A    
O2    C6    1.343387 A    
C21   F6    1.358803 S    
C10   C22   1.390408 A    
C20   N3    1.441566 S    
C11   C19   1.401655 A    
C3    C10   1.469541 S    
O5    C1    1.335832 A    
O4    V1    1.981851 S    
O9    V1    1.990869 S    
C13   C29   1.429343 A    
C34   C37   1.414925 A    
O7    C3    1.341494 A    
C11   C23   1.386920 A    
C35   C36   1.420591 A    
N5    O30   1.298199 A    
O12   V4    1.989732 S    
O19   V2    1.782461 S    
C45   C46   1.233593 T    
C18   N1    1.438431 S    
C23   F8    1.357123 S    
C6    C48   1.481396 S    
N1    O22   1.300977 A    
C40   F12   1.354390 S    
O5    V1    2.008454 S    
C39   C43   1.388698 A    
C19   N4    1.442563 S    
O7    V3    2.003398 S    
C38   C42   1.387357 A    
C26   C34   1.435061 A    
N2    O23   1.300593 A    
C1    C12   1.465910 S    
C41   F1    1.356512 S    
C2    C11   1.466903 S    
C23   C27   1.411653 A    
C32   C44   1.408326 A    
C17   N2    1.441602 S    
C16   N8    1.440936 S    
O1    V4    1.978249 S    
O13   C5    1.349154 A    
O2    V3    1.978246 S    
O8    V4    2.003397 S    
O3    V2    1.981848 S    
O15   C7    1.348732 A    
C4    C9    1.464017 S    
O6    C2    1.331968 A    
O10   V2    1.990869 S    
N4    O28   1.301274 A    
N7    O33   1.299119 A    
C14   C30   1.434017 A    
C21   C25   1.412779 A    
N6    O31   1.296445 A    
C13   N5    1.442611 S    
N8    O36   1.296249 A    
O14   V2    2.005102 S    
N7    O34   1.294951 A    
C16   C20   1.414899 A    
N3    O26   1.301289 A    
C12   C20   1.402824 A    
C27   C35   1.438198 A    
C39   F11   1.357600 S    
C37   F9    1.354042 S    
O16   V4    2.002193 S    
O6    V2    2.008455 S    
O14   C6    1.349218 A    
O18   V3    1.787748 S    
C25   C33   1.433017 A    
C15   C19   1.419451 A    
C30   C42   1.412192 A    
C44   F4    1.355404 S    
C22   F5    1.358574 S    
C22   C26   1.409155 A    
C9    C17   1.404859 A    
C47   C48   1.233178 T    
C33   C34   1.420475 A    
C29   C41   1.408064 A    
O17   V4    1.787747 S    
C25   C29   1.423251 A    
C12   C24   1.392382 A    
C27   C31   1.431298 A    
C13   C17   1.417184 A    
N8    O35   1.297517 A    
O11   V3    1.989732 S    
C37   C41   1.388082 A    
C24   C28   1.414052 A    
C43   F3    1.351643 S    
O12   C1    1.331541 A    
O8    C4    1.333147 A    
C38   F10   1.356766 S    
C14   N6    1.445758 S    
C28   C32   1.425689 A    
