data_mof_unit_48192.cif
_audit_creation_date              2012-12-10T17:55:51-0500
_audit_creation_method            fapswitch 2.2
_symmetry_space_group_name_H-M    P1
_symmetry_Int_Tables_number       1
_space_group_crystal_system       triclinic
_cell_length_a                    11.105303
_cell_length_b                    10.834554
_cell_length_c                    9.514038
_cell_angle_alpha                 90.009984
_cell_angle_beta                  103.672199
_cell_angle_gamma                 90.12973
_cell_volume                      1112.29806609

loop_
_atom_site_label
_atom_site_type_symbol
_atom_type_description
_atom_site_fract_x
_atom_site_fract_y
_atom_site_fract_z
_atom_type_partial_charge
C1    C     C_R   0.499910 0.262054 0.499933 0.787707
C2    C     C_R   0.500091 0.737946 0.500067 0.789369
C3    C     C_R   0.262167 0.499603 0.440013 0.841406
C4    C     C_R   0.737832 0.499787 0.559987 0.841356
C5    C     C_R   0.417558 0.428993 0.051702 -0.029905
C6    C     C_R   0.582442 0.571006 0.948297 -0.029297
C7    C     C_R   0.417645 0.428950 0.902875 -0.024881
C8    C     C_R   0.582357 0.571047 0.097125 -0.025553
C9    C     C_2   0.125939 0.498419 0.402641 0.008978
C10   C     C_2   0.874055 0.498844 0.597360 0.008639
C11   C     C_2   0.067639 0.492222 0.511556 -0.157386
C12   C     C_2   0.932330 0.492248 0.488467 -0.157976
C13   C     C_R   0.500329 0.063814 0.372351 -0.185853
C14   C     C_R   0.499673 0.936186 0.627649 -0.185705
C15   C     C_R   0.500461 0.936119 0.372413 -0.185665
C16   C     C_R   0.499539 0.063881 0.627587 -0.185769
C17   C     C_R   0.500103 0.871788 0.500054 -0.017848
C18   C     C_R   0.499898 0.128212 0.499946 -0.017608
Cu1   Cu    Cu3+1 0.500000 0.500020 0.640660 0.938534
Cu2   Cu    Cu3+1 0.500000 0.499980 0.359340 0.938102
H1    H     H_    0.877809 0.487333 0.377838 0.170143
H2    H     H_    0.122137 0.487628 0.622198 0.168532
H3    H     H_    0.351649 0.372026 0.089667 0.118171
H4    H     H_    0.648351 0.627975 0.910332 0.117113
H5    H     H_    0.351824 0.371802 0.828656 0.116000
H6    H     H_    0.648183 0.628189 0.171345 0.117489
H7    H     H_    0.500591 0.111812 0.272552 0.149735
H8    H     H_    0.499413 0.888189 0.727449 0.149772
N1    N     N_R   0.500030 0.500030 0.852080 -0.155406
N2    N     N_R   0.499970 0.499970 0.147920 -0.155802
O1    O     O_R   0.499990 0.319660 0.618740 -0.587875
O2    O     O_R   0.500010 0.680340 0.381260 -0.587550
O3    O     O_R   0.499990 0.319630 0.381170 -0.587823
O4    O     O_R   0.500010 0.680370 0.618830 -0.587384
O5    O     O_R   0.320690 0.500020 0.575130 -0.603099
O6    O     O_R   0.679310 0.499980 0.424870 -0.603495
O7    O     O_R   0.320680 0.499990 0.337560 -0.576736
O8    O     O_R   0.679320 0.500010 0.662440 -0.576456
C19   C     C_3   0.944410 0.506018 0.754466 -0.880657
H9    H     H_    0.881725 0.513278 0.829198 0.245982
H10   H     H_    0.001393 0.421706 0.784291 0.231455
H11   H     H_    0.005353 0.588760 0.771799 0.235841
C20   C     C_3   0.055602 0.504844 0.245502 -0.882200
H12   H     H_    0.118309 0.511479 0.170709 0.247488
H13   H     H_    0.998185 0.420477 0.216163 0.233905
H14   H     H_    0.995082 0.587610 0.227708 0.232897
H15   H     H_    0.500846 0.888070 0.272663 0.149652
H16   H     H_    0.499154 0.111931 0.727337 0.149664

loop_
_geom_bond_atom_site_label_1
_geom_bond_atom_site_label_2
_ccdc_geom_bond_type
C11   C12   S    
C4    O6    A    
C6    H4    S    
C7    N1    A    
Cu1   O8    S    
C15   H15   S    
C8    H6    S    
C11   H2    S    
Cu1   Cu2   S    
C7    H5    S    
C3    O5    A    
C20   H12   S    
Cu1   O1    S    
C8    N2    A    
C16   H16   S    
C1    O3    A    
C19   H10   S    
Cu2   N2    S    
C2    C17   S    
Cu2   O7    S    
C9    C11   D    
C14   C17   A    
C2    O4    A    
C1    C18   S    
C10   C12   D    
C13   C18   A    
C3    C9    S    
Cu2   O3    S    
C16   C18   A    
C4    O8    A    
Cu1   O5    S    
C19   H11   S    
C5    C7    A    
C13   C15   A    
C20   H14   S    
C14   C16   A    
C9    C20   S    
C4    C10   S    
Cu1   N1    S    
C1    O1    A    
C6    N1    A    
C3    O7    A    
C2    O2    A    
C5    N2    A    
Cu2   O2    S    
C19   H9    S    
C15   C17   A    
C13   H7    S    
Cu2   O6    S    
C6    C8    A    
C14   H8    S    
C12   H1    S    
C20   H13   S    
C10   C19   S    
Cu1   O4    S    
C5    H3    S    
