data_mof_unit_62012.cif
_audit_creation_date              2013-03-05T16:07:32-0500
_audit_creation_method            fapswitch 2.2
_symmetry_space_group_name_H-M    P1
_symmetry_Int_Tables_number       1
_space_group_crystal_system       triclinic
_cell_length_a                    30.051969
_cell_length_b                    31.851249
_cell_length_c                    21.335002
_cell_angle_alpha                 89.87434
_cell_angle_beta                  134.759434
_cell_angle_gamma                 90.104711
_cell_volume                      14500.7957161

loop_
_atom_site_label
_atom_site_type_symbol
_atom_site_description
_atom_site_fract_x
_atom_site_fract_y
_atom_site_fract_z
_atom_type_partial_charge
O1    O     O_R   0.406950 0.500000 0.354430 -0.637938
O2    O     O_R   0.906950 0.000000 0.354430 -0.637923
O3    O     O_R   0.407010 0.500000 0.459520 -0.563764
O4    O     O_R   0.907010 0.000000 0.459520 -0.563643
C1    C     C_R   0.378469 0.500031 0.378690 1.000094
C2    C     C_R   0.878467 0.000087 0.378691 0.999984
O5    O     O_R   0.499970 0.561610 0.447450 -0.631183
O6    O     O_R   0.499970 0.438390 0.447450 -0.633141
O7    O     O_R   0.999970 0.061610 0.447450 -0.632029
O8    O     O_R   0.999970 0.938390 0.447450 -0.632137
O9    O     O_R   0.500030 0.561620 0.552540 -0.587707
O10   O     O_R   0.500030 0.438380 0.552540 -0.585755
O11   O     O_R   0.000030 0.061620 0.552540 -0.589113
O12   O     O_R   0.000030 0.938380 0.552540 -0.584669
C3    C     C_R   0.500090 0.581241 0.499990 0.927248
C4    C     C_R   0.500082 0.418763 0.500128 0.925567
C5    C     C_R   0.000072 0.081241 0.499971 0.924881
C6    C     C_R   0.000090 0.918763 0.500137 0.928061
Zn1   Zn    Zn3+2 0.499970 0.500000 0.429830 0.967935
Zn2   Zn    Zn3+2 0.999970 0.000000 0.429830 0.967929
Zn3   Zn    Zn3+2 0.500040 0.500000 0.570170 1.059957
Zn4   Zn    Zn3+2 0.000040 0.000000 0.570170 1.059883
O13   O     O_R   0.593000 0.500000 0.540480 -0.644286
O14   O     O_R   0.093000 0.000000 0.540480 -0.644341
O15   O     O_R   0.593060 0.500000 0.645570 -0.620723
O16   O     O_R   0.093060 0.000000 0.645570 -0.620767
C7    C     C_R   0.621689 0.499748 0.621301 0.849933
C8    C     C_R   0.121694 0.000284 0.621321 0.849981
C9    C     C_3   0.452560 0.763910 0.416236 -0.154123
C10   C     C_3   0.455423 0.236131 0.417386 -0.153032
C11   C     C_3   0.950809 0.263922 0.416892 -0.153358
C12   C     C_3   0.956709 0.736140 0.417173 -0.153410
C13   C     C_3   0.447059 0.736119 0.470020 0.082642
C14   C     C_3   0.445314 0.263815 0.465903 0.082016
C15   C     C_3   0.948232 0.236141 0.473784 0.082214
C16   C     C_3   0.944638 0.763830 0.463366 0.082237
H1    H     H_    0.413053 0.775826 0.348220 0.140262
H2    H     H_    0.418241 0.224244 0.348765 0.140438
H3    H     H_    0.909930 0.275847 0.349508 0.140923
H4    H     H_    0.920616 0.724259 0.348396 0.139776
H5    H     H_    0.488950 0.776122 0.596129 0.157250
H6    H     H_    0.480586 0.223698 0.588564 0.158712
H7    H     H_    0.994307 0.276141 0.601845 0.158057
H8    H     H_    0.976907 0.723709 0.584197 0.158010
C17   C     C_1   0.500528 0.625711 0.500088 -0.112108
C18   C     C_1   0.500478 0.374300 0.500638 -0.111238
C19   C     C_1   0.000465 0.125712 0.500015 -0.112160
C20   C     C_1   0.000479 0.874300 0.500646 -0.111060
C21   C     C_1   0.499923 0.874282 0.498997 -0.182948
C22   C     C_1   0.499978 0.125731 0.500068 -0.183247
C23   C     C_1   0.999917 0.374283 0.498992 -0.182102
C24   C     C_1   0.999961 0.625732 0.500045 -0.184028
C25   C     C_3   0.507559 0.736163 0.447157 -0.237959
C26   C     C_3   0.512053 0.263956 0.454168 -0.238867
C27   C     C_3   0.004545 0.236157 0.443864 -0.237319
C28   C     C_3   0.013972 0.763953 0.456507 -0.239116
C29   C     C_3   0.501241 0.708709 0.500167 0.050919
C30   C     C_3   0.501126 0.291314 0.501828 0.050927
C31   C     C_3   0.001153 0.208710 0.500026 0.050744
C32   C     C_3   0.001086 0.791315 0.501818 0.051036
C33   C     C_3   0.555320 0.764573 0.529633 -0.208824
C34   C     C_3   0.556985 0.235555 0.537518 -0.209728
C35   C     C_3   0.054012 0.264558 0.525609 -0.209244
C36   C     C_3   0.057557 0.735544 0.540022 -0.209682
C37   C     C_3   0.500273 0.791335 0.499008 0.126688
C38   C     C_3   0.500278 0.208687 0.500986 0.126489
C39   C     C_3   0.000245 0.291338 0.498951 0.126160
C40   C     C_3   0.000208 0.708689 0.500925 0.126939
C41   C     C_3   0.547631 0.736907 0.580594 0.354774
C42   C     C_3   0.544747 0.263119 0.583103 0.353853
C43   C     C_3   0.049220 0.236899 0.579758 0.354656
C44   C     C_3   0.043385 0.763112 0.583239 0.353981
C45   C     C_3   0.493963 0.764300 0.552445 -0.245653
C46   C     C_3   0.489329 0.235609 0.549081 -0.243371
C47   C     C_3   0.996884 0.264311 0.555561 -0.245066
C48   C     C_3   0.987280 0.735616 0.546653 -0.243965
C49   C     C_1   0.500967 0.663215 0.500102 0.011079
C50   C     C_1   0.500877 0.336799 0.501201 0.011415
C51   C     C_1   0.000874 0.163216 0.499978 0.011383
C52   C     C_1   0.000865 0.836800 0.501209 0.011212
C53   C     C_1   0.499954 0.836769 0.498680 -0.028368
C54   C     C_1   0.500007 0.163248 0.500353 -0.028862
C55   C     C_1   0.999939 0.336771 0.498655 -0.027272
C56   C     C_1   0.999963 0.663250 0.500306 -0.029916
H9    H     H_    0.600246 0.776778 0.555254 0.164039
H10   H     H_    0.603282 0.223448 0.568114 0.163553
H11   H     H_    0.097951 0.276748 0.548037 0.164191
H12   H     H_    0.104342 0.723428 0.572680 0.163413
H13   H     H_    0.513074 0.724156 0.404135 0.165183
H14   H     H_    0.521290 0.276070 0.415386 0.164149
H15   H     H_    0.007634 0.224143 0.398225 0.165669
H16   H     H_    0.024830 0.776062 0.419672 0.163855
C57   C     C_3   0.269243 0.466284 0.299063 0.305612
C58   C     C_3   0.269226 0.533829 0.298682 0.317557
C59   C     C_3   0.769269 0.965927 0.297971 0.315612
C60   C     C_3   0.769189 0.033457 0.299808 0.308069
C61   C     C_3   0.227689 0.500073 0.288201 -0.309772
C62   C     C_3   0.727681 0.999225 0.288219 -0.310086
H17   H     H_    0.208964 0.500020 0.318162 0.158113
H18   H     H_    0.708924 0.998500 0.318148 0.158989
C63   C     C_3   0.188843 0.500000 0.189014 -0.084046
C64   C     C_3   0.688838 0.000047 0.189039 -0.084232
C65   C     C_3   0.229177 0.465269 0.199649 -0.138754
C66   C     C_3   0.229166 0.534688 0.199241 -0.157553
C67   C     C_3   0.729201 0.965801 0.198517 -0.159012
C68   C     C_3   0.729127 0.035202 0.200424 -0.137668
C69   C     C_3   0.271095 0.499961 0.211889 -0.207195
C70   C     C_3   0.771084 0.000947 0.211913 -0.207381
C71   C     C_3   0.311122 0.500042 0.311791 -0.221310
C72   C     C_3   0.811116 0.000130 0.311804 -0.221317
H19   H     H_    0.211276 0.436739 0.158029 0.190121
H20   H     H_    0.211230 0.563138 0.157244 0.181459
H21   H     H_    0.711293 0.937651 0.155915 0.180569
H22   H     H_    0.711190 0.064018 0.159410 0.190797
H23   H     H_    0.289513 0.499911 0.181490 0.209078
H24   H     H_    0.789498 0.001668 0.181517 0.209080
C73   C     C_3   0.728888 0.537700 0.745981 -0.162177
C74   C     C_3   0.728701 0.470287 0.768331 -0.172936
C75   C     C_3   0.228762 0.029881 0.768138 -0.171492
C76   C     C_3   0.228816 0.962398 0.746583 -0.162347
C77   C     C_3   0.769448 0.508440 0.827490 -0.143827
C78   C     C_3   0.269435 0.991776 0.827776 -0.143990
H25   H     H_    0.787011 0.515538 0.892665 0.127197
H26   H     H_    0.287051 0.984854 0.893130 0.127398
H27   H     H_    0.709797 0.568694 0.741139 0.158567
H28   H     H_    0.709517 0.446251 0.781825 0.162970
H29   H     H_    0.209656 0.054030 0.781398 0.161426
H30   H     H_    0.209636 0.931458 0.742046 0.157054
C79   C     C_3   0.810831 0.499877 0.811374 -0.004165
C80   C     C_3   0.310842 0.000122 0.811562 -0.005039
C81   C     C_3   0.771770 0.529274 0.731349 -0.184585
C82   C     C_3   0.771493 0.461624 0.753750 -0.184534
C83   C     C_3   0.271597 0.038335 0.753496 -0.181784
C84   C     C_3   0.271729 0.970615 0.731880 -0.186572
C85   C     C_3   0.731534 0.491130 0.673286 0.128822
C86   C     C_3   0.231596 0.008717 0.673374 0.128346
C87   C     C_3   0.689286 0.499569 0.687913 -0.020950
C88   C     C_3   0.189299 0.000481 0.688034 -0.020503
H31   H     H_    0.791007 0.553335 0.717971 0.140764
H32   H     H_    0.790268 0.430528 0.758337 0.151715
H33   H     H_    0.290449 0.069377 0.757745 0.153241
H34   H     H_    0.290918 0.946434 0.718798 0.140182
O17   O     O_R   0.447530 0.000000 0.354370 -0.634065
O18   O     O_R   0.947530 0.500000 0.354370 -0.634090
O19   O     O_R   0.552560 0.000000 0.459510 -0.631387
O20   O     O_R   0.052560 0.500000 0.459510 -0.631656
C89   C     C_R   0.500251 0.001210 0.378613 0.848267
C90   C     C_R   0.000285 0.501256 0.378659 0.848199
O21   O     O_R   0.447490 0.938400 0.447370 -0.619520
O22   O     O_R   0.447490 0.061600 0.447370 -0.621778
O23   O     O_R   0.947490 0.438400 0.447370 -0.619552
O24   O     O_R   0.947490 0.561600 0.447370 -0.621838
O25   O     O_R   0.552530 0.938390 0.552510 -0.608209
O26   O     O_R   0.552530 0.061610 0.552510 -0.609228
O27   O     O_R   0.052530 0.438390 0.552510 -0.605688
O28   O     O_R   0.052530 0.561610 0.552510 -0.611604
C91   C     C_R   0.499988 0.918767 0.499634 0.898077
C92   C     C_R   0.500007 0.081238 0.499899 0.895035
C93   C     C_R   0.999987 0.418767 0.499638 0.898640
C94   C     C_R   0.000005 0.581238 0.499891 0.894353
Zn5   Zn    Zn3+2 0.429870 0.000000 0.429720 0.945810
Zn6   Zn    Zn3+2 0.929870 0.500000 0.429720 0.945860
Zn7   Zn    Zn3+2 0.570140 0.000000 0.570120 0.990769
Zn8   Zn    Zn3+2 0.070140 0.500000 0.570120 0.990792
O29   O     O_R   0.447440 0.000000 0.540340 -0.631079
O30   O     O_R   0.947440 0.500000 0.540340 -0.631066
O31   O     O_R   0.552480 0.000000 0.645470 -0.603409
O32   O     O_R   0.052480 0.500000 0.645470 -0.603362
C95   C     C_R   0.499650 0.999955 0.621165 0.889513
C96   C     C_R   0.999649 0.500077 0.621164 0.889516
O33   O     O_R   0.000050 0.534770 0.093010 -0.633163
O34   O     O_R   0.000050 0.465230 0.093010 -0.629110
O35   O     O_R   0.500050 0.034770 0.093010 -0.633433
O36   O     O_R   0.500050 0.965230 0.093010 -0.629106
C97   C     C_R   0.000337 0.499964 0.122027 0.873911
C98   C     C_R   0.500497 0.999958 0.122173 0.873577
O37   O     O_R   0.093030 0.534780 0.092960 -0.619673
O38   O     O_R   0.093030 0.465220 0.092960 -0.611760
O39   O     O_R   0.593030 0.034780 0.092960 -0.611781
O40   O     O_R   0.593030 0.965220 0.092960 -0.619636
C99   C     C_R   0.121702 0.500004 0.121568 0.984696
C100  C     C_R   0.621700 0.000010 0.121574 0.984132
Zn9   Zn    Zn3+2 1.000000 0.546450 0.999940 0.975940
Zn10  Zn    Zn3+2 0.000000 0.453550 0.999940 0.981364
Zn11  Zn    Zn3+2 0.500000 0.046450 0.999940 0.981940
Zn12  Zn    Zn3+2 0.500000 0.953550 0.999940 0.975422
O41   O     O_R   0.999950 0.534800 0.906860 -0.625794
O42   O     O_R   0.999950 0.465200 0.906860 -0.615832
O43   O     O_R   0.499950 0.034800 0.906860 -0.614156
O44   O     O_R   0.499950 0.965200 0.906860 -0.627185
O45   O     O_R   0.906980 0.534790 0.906910 -0.627547
O46   O     O_R   0.906980 0.465210 0.906910 -0.634453
O47   O     O_R   0.406980 0.034790 0.906910 -0.633713
O48   O     O_R   0.406980 0.965210 0.906910 -0.628277
C101  C     C_R   0.999388 0.500048 0.877528 0.941444
C102  C     C_R   0.499392 0.000029 0.877532 0.941333
C103  C     C_R   0.878200 0.499979 0.878915 0.857403
C104  C     C_R   0.378204 0.000011 0.879015 0.857493
C105  C     C_3   0.549713 0.022988 0.318669 0.098461
C106  C     C_3   0.504744 0.961597 0.275849 0.117773
C107  C     C_3   0.051312 0.521403 0.320191 0.097973
C108  C     C_3   0.001838 0.461572 0.273009 0.117753
C109  C     C_3   0.053241 0.481095 0.282136 -0.192693
C110  C     C_3   0.554708 0.982799 0.283636 -0.192562
H35   H     H_    0.095678 0.465078 0.305998 0.140743
H36   H     H_    0.598312 0.968219 0.308715 0.138650
C111  C     C_3   0.000699 0.500038 0.189630 -0.050118
C112  C     C_3   0.500910 0.000001 0.189803 -0.049627
C113  C     C_3   0.999615 0.540633 0.227352 -0.198637
C114  C     C_3   0.949345 0.479759 0.179153 -0.195791
C115  C     C_3   0.496747 0.040491 0.224472 -0.198512
C116  C     C_3   0.451061 0.978030 0.180703 -0.195928
C117  C     C_3   0.447647 0.018280 0.217184 0.097377
C118  C     C_3   0.949040 0.520088 0.218734 0.097615
C119  C     C_3   0.500567 0.001501 0.311390 -0.093298
C120  C     C_3   0.000721 0.501570 0.311571 -0.093336
H37   H     H_    0.998706 0.573104 0.207432 0.148124
H38   H     H_    0.907831 0.462630 0.119842 0.131061
H39   H     H_    0.493505 0.072899 0.202251 0.147850
H40   H     H_    0.410910 0.959535 0.122661 0.130699
C121  C     C_3   0.535503 0.968202 0.763998 -0.216702
C122  C     C_3   0.521823 0.037082 0.750133 -0.209854
C123  C     C_3   0.022333 0.463228 0.750934 -0.211694
C124  C     C_3   0.035049 0.532199 0.763289 -0.215026
C125  C     C_3   0.056871 0.495384 0.825741 0.382322
C126  C     C_3   0.556809 0.005189 0.825645 0.382079
H41   H     H_    0.565720 0.942657 0.775628 0.165558
H42   H     H_    0.540984 0.067023 0.750508 0.161472
H43   H     H_    0.041909 0.433404 0.751968 0.160443
H44   H     H_    0.064911 0.557931 0.774352 0.166125
C127  C     C_3   0.999382 0.500158 0.810092 -0.083847
C128  C     C_3   0.499386 0.000056 0.810096 -0.083737
C129  C     C_3   0.963317 0.468274 0.734216 -0.224935
C130  C     C_3   0.976040 0.536945 0.746546 -0.222086
C131  C     C_3   0.476564 0.963086 0.747344 -0.223032
C132  C     C_3   0.462875 0.031667 0.733536 -0.223982
C133  C     C_3   0.439975 0.994710 0.669805 -0.143873
C134  C     C_3   0.939897 0.505048 0.669689 -0.143658
C135  C     C_3   0.498977 0.999968 0.687893 -0.027341
C136  C     C_3   0.998970 0.500155 0.687885 -0.027324
H45   H     H_    0.933770 0.442412 0.723579 0.159392
H46   H     H_    0.956884 0.566904 0.745875 0.165907
H47   H     H_    0.457817 0.933005 0.747293 0.165166
H48   H     H_    0.432978 0.057338 0.722361 0.159923
H49   H     H_    0.391637 0.990334 0.603771 0.155516
H50   H     H_    0.891496 0.509073 0.603564 0.155725
C137  C     C_3   0.385984 0.718566 0.436123 -0.371957
C138  C     C_3   0.341283 0.753833 0.411124 -0.375692
C139  C     C_3   0.280422 0.736057 0.377387 -0.798500
H51   H     H_    0.256269 0.716524 0.317744 0.275977
H52   H     H_    0.290194 0.716602 0.429240 0.270356
H53   H     H_    0.248908 0.762228 0.359734 0.241016
H54   H     H_    0.363909 0.773825 0.469728 0.226435
H55   H     H_    0.330115 0.773772 0.358705 0.226302
H56   H     H_    0.363397 0.698594 0.377524 0.221634
H57   H     H_    0.397186 0.698648 0.488575 0.225074
C140  C     C_3   0.382315 0.281222 0.425231 -0.371134
C141  C     C_3   0.336360 0.245835 0.395581 -0.378171
C142  C     C_3   0.273551 0.263439 0.355030 -0.791854
H58   H     H_    0.279947 0.282857 0.404092 0.275329
H59   H     H_    0.252173 0.282966 0.296293 0.272881
H60   H     H_    0.241172 0.237179 0.334128 0.240636
H61   H     H_    0.328507 0.225931 0.345783 0.225576
H62   H     H_    0.356171 0.225837 0.453118 0.227697
H63   H     H_    0.390229 0.301094 0.475099 0.228720
H64   H     H_    0.362542 0.301210 0.367715 0.219312
C143  C     C_3   0.888532 0.218628 0.444259 -0.372833
C144  C     C_3   0.844896 0.253927 0.422492 -0.373695
C145  C     C_3   0.785403 0.236197 0.393111 -0.801432
H65   H     H_    0.759479 0.216668 0.332969 0.276669
H66   H     H_    0.797223 0.216749 0.446473 0.269059
H67   H     H_    0.754642 0.262392 0.377734 0.241508
H68   H     H_    0.869317 0.273914 0.481698 0.226524
H69   H     H_    0.831719 0.273863 0.368676 0.226361
H70   H     H_    0.864148 0.198660 0.385054 0.222749
H71   H     H_    0.901744 0.198714 0.498109 0.223879
C146  C     C_3   0.880958 0.781276 0.419871 -0.370690
C147  C     C_3   0.834447 0.745920 0.388123 -0.378560
C148  C     C_3   0.770965 0.763570 0.344765 -0.792335
H72   H     H_    0.775944 0.782995 0.392602 0.276042
H73   H     H_    0.750889 0.783101 0.286611 0.272170
H74   H     H_    0.738190 0.737334 0.322388 0.240444
H75   H     H_    0.827991 0.726014 0.339475 0.225369
H76   H     H_    0.852943 0.725917 0.445011 0.227541
H77   H     H_    0.887470 0.801152 0.468584 0.229596
H78   H     H_    0.862499 0.801267 0.363005 0.218480
C149  C     C_3   0.711135 0.481227 0.585995 -0.391161
C150  C     C_3   0.768097 0.474180 0.599902 -0.371835
C151  C     C_3   0.747997 0.464647 0.512895 -0.866542
H79   H     H_    0.718678 0.435835 0.482557 0.265426
H80   H     H_    0.720954 0.491390 0.466381 0.262485
H81   H     H_    0.790160 0.459526 0.525191 0.246887
H82   H     H_    0.798200 0.502679 0.629457 0.219612
H83   H     H_    0.796366 0.447420 0.645865 0.222825
H84   H     H_    0.681409 0.452574 0.557147 0.209664
H85   H     H_    0.682936 0.507918 0.539823 0.215655
C152  C     C_3   0.211267 0.018415 0.586003 -0.390918
C153  C     C_3   0.268275 0.025314 0.599904 -0.371718
C154  C     C_3   0.248241 0.034637 0.512818 -0.865800
H86   H     H_    0.221185 0.007831 0.466632 0.262052
H87   H     H_    0.218954 0.063442 0.482099 0.265979
H88   H     H_    0.290433 0.039668 0.525110 0.246991
H89   H     H_    0.296572 0.052126 0.645551 0.223446
H90   H     H_    0.298333 0.996810 0.629829 0.219302
H91   H     H_    0.183034 0.991674 0.540138 0.215069
H92   H     H_    0.181592 0.047078 0.556795 0.210822
C155  C     C_3   0.605591 0.048563 0.397438 -0.418412
C156  C     C_3   0.643639 0.066428 0.380322 -0.333784
C157  C     C_3   0.699769 0.091574 0.459416 -0.797453
H93   H     H_    0.683818 0.118256 0.472996 0.249977
H94   H     H_    0.731454 0.071175 0.518808 0.258727
H95   H     H_    0.726336 0.104254 0.445188 0.288905
H96   H     H_    0.660817 0.040391 0.367307 0.228007
H97   H     H_    0.613526 0.087283 0.321454 0.232159
H98   H     H_    0.587973 0.074604 0.409733 0.200374
H99   H     H_    0.635986 0.027907 0.456564 0.224177
C158  C     C_3   0.509124 0.917556 0.308386 -0.431225
C159  C     C_3   0.512310 0.883925 0.260518 -0.319199
C160  C     C_3   0.516511 0.840099 0.293464 -0.855880
H100  H     H_    0.559343 0.837277 0.365257 0.264311
H101  H     H_    0.474645 0.833634 0.281388 0.260467
H102  H     H_    0.518724 0.816297 0.257780 0.253769
H103  H     H_    0.469760 0.885685 0.188365 0.226890
H104  H     H_    0.554135 0.889340 0.271981 0.234193
H105  H     H_    0.551714 0.915837 0.380515 0.208719
H106  H     H_    0.467355 0.912107 0.297030 0.201586
C161  C     C_3   0.109068 0.545143 0.400595 -0.414670
C162  C     C_3   0.148181 0.561675 0.384366 -0.338200
C163  C     C_3   0.206238 0.584910 0.465063 -0.797660
H107  H     H_    0.192446 0.612194 0.480641 0.251204
H108  H     H_    0.236390 0.563524 0.522990 0.258064
H109  H     H_    0.233631 0.596522 0.451490 0.289287
H110  H     H_    0.163251 0.535057 0.369300 0.225198
H111  H     H_    0.119560 0.583483 0.327026 0.233615
H112  H     H_    0.093481 0.571767 0.414887 0.201080
H113  H     H_    0.138020 0.523541 0.458235 0.224105
C164  C     C_3   0.003112 0.417454 0.302516 -0.431231
C165  C     C_3   0.004104 0.383732 0.252520 -0.319650
C166  C     C_3   0.005396 0.339840 0.282644 -0.855125
H114  H     H_    0.047969 0.335775 0.354239 0.263779
H115  H     H_    0.963116 0.334635 0.270118 0.260988
H116  H     H_    0.006084 0.315971 0.245484 0.254072
H117  H     H_    0.961734 0.386740 0.180507 0.227159
H118  H     H_    0.046267 0.387877 0.264345 0.233688
H119  H     H_    0.045473 0.414440 0.374519 0.207326
H120  H     H_    0.960950 0.413314 0.290681 0.203144
C167  C     C_3   0.386589 0.038528 0.178640 -0.392275
C168  C     C_3   0.346300 0.052311 0.082803 -0.364923
C169  C     C_3   0.284806 0.071817 0.043599 -0.834899
H121  H     H_    0.257286 0.048712 0.044026 0.259805
H122  H     H_    0.294124 0.099981 0.082017 0.263609
H123  H     H_    0.256702 0.081435 0.974306 0.258523
H124  H     H_    0.372251 0.075756 0.079896 0.229911
H125  H     H_    0.335576 0.024771 0.042091 0.216898
H126  H     H_    0.360183 0.015386 0.181184 0.219933
H127  H     H_    0.398050 0.066149 0.219614 0.201326
C170  C     C_3   0.889884 0.542424 0.182747 -0.392553
C171  C     C_3   0.850053 0.557528 0.087857 -0.367488
C172  C     C_3   0.790624 0.579406 0.051393 -0.833159
H128  H     H_    0.761640 0.557492 0.051022 0.259972
H129  H     H_    0.802722 0.607302 0.092122 0.262714
H130  H     H_    0.762742 0.589889 0.982640 0.261038
H131  H     H_    0.877515 0.579828 0.085828 0.230062
H132  H     H_    0.836625 0.530278 0.045014 0.215602
H133  H     H_    0.862056 0.520247 0.184228 0.220536
H134  H     H_    0.903809 0.569626 0.225978 0.199990
N1    N     N_R   0.121324 0.490129 0.910853 0.198749
O49   O     O_R   0.166070 0.486330 0.914277 -0.377877
O50   O     O_R   0.134682 0.489443 0.983530 -0.437559
N2    N     N_R   0.621183 0.010905 0.910642 0.198893
O51   O     O_R   0.665882 0.014951 0.913992 -0.377636
O52   O     O_R   0.634510 0.011803 0.983286 -0.436816
N3    N     N_R   0.600127 0.722877 0.671027 0.208118
O53   O     O_R   0.636247 0.750416 0.733591 -0.378658
O54   O     O_R   0.611271 0.683076 0.689886 -0.396799
N4    N     N_R   0.594083 0.277170 0.674301 0.208547
O55   O     O_R   0.628093 0.249648 0.737578 -0.375144
O56   O     O_R   0.604462 0.316977 0.693138 -0.392066
N5    N     N_R   0.103544 0.222860 0.669356 0.208223
O57   O     O_R   0.140971 0.250392 0.731376 -0.375684
O58   O     O_R   0.115026 0.183057 0.688008 -0.397493
N6    N     N_R   0.091268 0.777154 0.674640 0.208457
O59   O     O_R   0.124247 0.749627 0.738033 -0.378124
O60   O     O_R   0.101368 0.816960 0.693542 -0.391145
N7    N     N_R   0.289640 0.428303 0.351648 0.212066
O61   O     O_R   0.248082 0.402866 0.333873 -0.397104
O62   O     O_R   0.348699 0.418523 0.413381 -0.409468
N8    N     N_R   0.289534 0.571897 0.350779 0.208734
O63   O     O_R   0.247889 0.597591 0.331893 -0.415494
O64   O     O_R   0.348636 0.581460 0.413263 -0.413809
N9    N     N_R   0.789742 0.927489 0.349350 0.211465
O65   O     O_R   0.748236 0.901596 0.330581 -0.397611
O66   O     O_R   0.848855 0.917865 0.411191 -0.411657
N10   N     N_R   0.789431 0.071060 0.353077 0.210319
O67   O     O_R   0.747734 0.096325 0.335106 -0.416172
O68   O     O_R   0.848485 0.080768 0.415456 -0.411191

loop_
_geom_bond_atom_site_label_1
_geom_bond_atom_site_label_2
_geom_bond_distance
_ccdc_geom_bond_type
C158  H106  1.111564 S    
C170  C171  1.532290 S    
C27   C31   1.541883 S    
C2    C72   1.437204 S    
C97   C111  1.434665 S    
C164  C165  1.530469 S    
C11   C39   1.540724 S    
C109  H35   1.110321 S    
C143  H70   1.111441 S    
C159  H103  1.111659 S    
O33   Zn9   2.018357 S    
O26   C92   1.283604 A    
C32   C44   1.525786 S    
C170  H133  1.110988 S    
C9    C13   1.545875 S    
C106  C119  1.531334 S    
C10   H2    1.110129 S    
C107  C113  1.541638 S    
C24   C56   1.195020 T    
C123  C129  1.551911 S    
O9    C3    1.283489 A    
O33   C97   1.265661 A    
O10   C4    1.283090 A    
O8    Zn2   1.997231 S    
C42   C46   1.537301 S    
C111  C114  1.536255 S    
C150  H83   1.111575 S    
O34   C97   1.265989 A    
O5    C3    1.282519 A    
C58   C66   1.534315 S    
C63   C65   1.536544 S    
C12   C28   1.553811 S    
C80   C84   1.530969 S    
C161  H113  1.111033 S    
O40   C100  1.265575 A    
C117  C119  1.533440 S    
O29   C95   1.274822 A    
C134  C136  1.535164 S    
C126  N2    1.457348 S    
C108  C109  1.544117 S    
C64   C100  1.432775 S    
Zn8   O32   2.016808 S    
C140  H63   1.111412 S    
C42   N4    1.457106 S    
C34   C38   1.539815 S    
C30   C42   1.525803 S    
C116  H40   1.110310 S    
C58   C61   1.538594 S    
C62   C64   1.536953 S    
C14   C140  1.527372 S    
Zn12  O44   2.018393 S    
Zn1   O13   2.023529 S    
C162  H110  1.111225 S    
C38   C54   1.447330 S    
C112  C116  1.535852 S    
C122  C132  1.552135 S    
C133  H49   1.110177 S    
C131  H47   1.110198 S    
C33   H9    1.110149 S    
C13   C45   1.548073 S    
C35   C43   1.536514 S    
O5    Zn1   1.998848 S    
C145  H66   1.110963 S    
C25   H13   1.110058 S    
C105  C110  1.543586 S    
C76   C88   1.533482 S    
C153  C154  1.525013 S    
C23   C55   1.194865 T    
C85   C87   1.530105 S    
O22   Zn5   1.997599 S    
C141  H62   1.111665 S    
C142  H59   1.110951 S    
C121  H41   1.110246 S    
C58   C71   1.526205 S    
C113  H37   1.110364 S    
C98   C112  1.434175 S    
C114  C118  1.542368 S    
C20   C52   1.194464 T    
O43   C102  1.267490 A    
C146  H77   1.111419 S    
O8    C6    1.282813 A    
C126  C128  1.519130 S    
C168  C169  1.525098 S    
C149  H84   1.111278 S    
C127  C130  1.536148 S    
C148  H73   1.110951 S    
C77   H25   1.109330 S    
N10   O67   1.300191 A    
C108  C164  1.528001 S    
C152  C153  1.534493 S    
C33   C37   1.539709 S    
C116  C117  1.541800 S    
C144  H69   1.111637 S    
C172  H128  1.110885 S    
C14   C30   1.534612 S    
C65   C69   1.552089 S    
C15   C143  1.527450 S    
O17   Zn5   2.016807 S    
C66   C69   1.552083 S    
C79   C103  1.437669 S    
C44   N6    1.457104 S    
N7    O62   1.300015 A    
C24   C94   1.417187 S    
C160  H101  1.111116 S    
C39   C55   1.447109 S    
C169  H121  1.110856 S    
C57   C65   1.534005 S    
C59   N9    1.458134 S    
N2    O51   1.300151 A    
C168  H125  1.111679 S    
O31   C95   1.276755 A    
C22   C92   1.417167 S    
C10   C26   1.553811 S    
O35   Zn11  2.018357 S    
C139  H51   1.110961 S    
C121  C135  1.533597 S    
C105  C119  1.532185 S    
C12   C16   1.545709 S    
C67   H21   1.110239 S    
C26   H14   1.110051 S    
C89   C119  1.440913 S    
C118  C120  1.532722 S    
C165  H117  1.111671 S    
C38   C46   1.541711 S    
C122  C135  1.533673 S    
C128  C132  1.535765 S    
C132  C133  1.547356 S    
C140  C141  1.531346 S    
H8    C48   1.110169 S    
C25   C33   1.555873 S    
C102  C128  1.438629 S    
N8    O63   1.300220 A    
C27   C35   1.555873 S    
C162  H111  1.111541 S    
C28   C36   1.555568 S    
C171  H132  1.111045 S    
C167  H127  1.111342 S    
C137  H57   1.111414 S    
C146  C147  1.531308 S    
C107  C109  1.543345 S    
C21   C91   1.416973 S    
C90   C120  1.440591 S    
C152  H91   1.111150 S    
N4    O56   1.300273 A    
C157  H94   1.110842 S    
C125  N1    1.457323 S    
O6    Zn1   1.997231 S    
C10   C14   1.545689 S    
O27   C93   1.283547 A    
C110  C112  1.536937 S    
O28   C94   1.283649 A    
C156  H96   1.111661 S    
C66   H20   1.110237 S    
C138  H54   1.111663 S    
O19   Zn7   2.022950 S    
O20   Zn8   2.022950 S    
O9    Zn3   1.997538 S    
C41   N3    1.457174 S    
O23   C93   1.283178 A    
C107  C120  1.532199 S    
O4    Zn4   2.023528 S    
C106  C110  1.543948 S    
C151  H79   1.110824 S    
O18   Zn6   2.016807 S    
C124  C136  1.533663 S    
O40   Zn12  2.019590 S    
C130  H46   1.110187 S    
C9    C37   1.540740 S    
C164  H120  1.111542 S    
O30   C96   1.274798 A    
C169  H123  1.110552 S    
C147  H75   1.111640 S    
Zn4   O16   2.017277 S    
C155  H98   1.111413 S    
C78   H26   1.110202 S    
C57   C61   1.538721 S    
C63   C99   1.432847 S    
C86   C152  1.528972 S    
C158  H105  1.111496 S    
N9    O66   1.300011 A    
Zn3   O15   2.017277 S    
C32   C52   1.448760 S    
C139  H53   1.110350 S    
C166  H115  1.111087 S    
C75   C88   1.533871 S    
Zn12  O48   2.019605 S    
O14   C8    1.274360 A    
C162  C163  1.525316 S    
C6    C20   1.416214 S    
C143  C144  1.531302 S    
C123  C125  1.530992 S    
Zn11  O43   2.019992 S    
C65   H19   1.110253 S    
C40   C48   1.541737 S    
C115  H39   1.110363 S    
C159  H104  1.111706 S    
C167  H126  1.111012 S    
C79   C82   1.532334 S    
C141  C142  1.525679 S    
C43   N5    1.457179 S    
O48   C104  1.267494 A    
C68   C70   1.552086 S    
O37   C99   1.265612 A    
C70   C72   1.542449 S    
C172  H130  1.110494 S    
C76   C84   1.548565 S    
C153  H89   1.111570 S    
C73   C81   1.548647 S    
C154  H88   1.110544 S    
Zn5   O29   2.023328 S    
C81   H31   1.110338 S    
H5    C45   1.110190 S    
C166  H116  1.110291 S    
C39   C47   1.541675 S    
O6    C4    1.282799 A    
C111  C113  1.536948 S    
C147  C148  1.525694 S    
C17   C49   1.194606 T    
C73   H27   1.110221 S    
C58   N8    1.458064 S    
C57   C71   1.526062 S    
C75   H29   1.110274 S    
N6    O59   1.300193 A    
C106  C158  1.527961 S    
C124  C125  1.531624 S    
C161  H112  1.111404 S    
N5    O57   1.300200 A    
C129  C134  1.547246 S    
C156  C157  1.525407 S    
C7    C87   1.442482 S    
O1    C1    1.274506 A    
N3    O54   1.300280 A    
C157  H95   1.110086 S    
O47   C104  1.266381 A    
C151  H81   1.110552 S    
C64   C67   1.536371 S    
C15   C31   1.534642 S    
C130  C134  1.547841 S    
C21   C53   1.194882 T    
C124  C130  1.550416 S    
C27   H15   1.110060 S    
C75   C83   1.546535 S    
Zn6   O30   2.023328 S    
C141  H61   1.111639 S    
O42   C101  1.267297 A    
C13   C29   1.534630 S    
C148  H72   1.110946 S    
Zn10  O46   2.019605 S    
C41   C45   1.536897 S    
C44   C48   1.537292 S    
O39   C100  1.265427 A    
O41   C101  1.266961 A    
O32   C96   1.276782 A    
C117  C167  1.528437 S    
C145  H65   1.110965 S    
C121  C131  1.550153 S    
H7    C47   1.110194 S    
C69   C71   1.542498 S    
O19   C89   1.276940 A    
O20   C90   1.276233 A    
C143  H71   1.111404 S    
O1    Zn1   2.017279 S    
H6    C46   1.110172 S    
O2    Zn2   2.017279 S    
C155  C156  1.532736 S    
C40   C56   1.447343 S    
C29   C49   1.449031 S    
C8    C88   1.442666 S    
O4    C2    1.275337 A    
C4    C18   1.416218 S    
C167  C168  1.533312 S    
C18   C50   1.194469 T    
C25   C29   1.541858 S    
C26   C34   1.555580 S    
C170  H134  1.111387 S    
O37   Zn9   2.019868 S    
C60   C72   1.526242 S    
C121  C126  1.531612 S    
C28   C32   1.541480 S    
C154  H86   1.110809 S    
C124  H44   1.110248 S    
C84   H34   1.110340 S    
C34   H10   1.110141 S    
O7    Zn2   1.998848 S    
C37   C53   1.447129 S    
C166  H114  1.111053 S    
C122  H42   1.110234 S    
O23   Zn6   1.997881 S    
C134  H50   1.110181 S    
N1    O50   1.299694 A    
C125  C127  1.519155 S    
C150  H82   1.111815 S    
N10   O68   1.299990 A    
C14   C46   1.548431 S    
O25   Zn7   1.997876 S    
C63   C66   1.536372 S    
C62   H18   1.110296 S    
C11   C15   1.545869 S    
C80   C83   1.532379 S    
O21   Zn5   1.997881 S    
C31   C51   1.449042 S    
C36   C40   1.539806 S    
C138  C139  1.525744 S    
C22   C54   1.195010 T    
N7    O61   1.300251 A    
O22   C92   1.283231 A    
C140  H64   1.111424 S    
C77   C79   1.530704 S    
O3    C1    1.275375 A    
C59   C72   1.526148 S    
N2    O52   1.299723 A    
C76   H30   1.110204 S    
O35   C98   1.265710 A    
O39   Zn11  2.019868 S    
O11   C5    1.283517 A    
C82   H32   1.110311 S    
C83   H33   1.110315 S    
C113  C118  1.541231 S    
C70   H24   1.110210 S    
C161  C162  1.532614 S    
O12   Zn4   1.999161 S    
C1    C71   1.437121 S    
C112  C115  1.536568 S    
C165  H118  1.111698 S    
O11   Zn4   1.997538 S    
C13   C137  1.527446 S    
C96   C136  1.437952 S    
O25   C91   1.283538 A    
O36   C98   1.265711 A    
O38   C99   1.265424 A    
C30   C50   1.448774 S    
C160  H100  1.111015 S    
C144  C145  1.525749 S    
N8    O64   1.299991 A    
C95   C135  1.437954 S    
C145  H67   1.110355 S    
C9    H1    1.110138 S    
C11   C27   1.554142 S    
O21   C91   1.283201 A    
C36   H12   1.110141 S    
O24   Zn6   1.997599 S    
C123  H43   1.110234 S    
C137  H56   1.111439 S    
O24   C94   1.283199 A    
C5    C19   1.416459 S    
C163  H107  1.110876 S    
O12   C6    1.283068 A    
N1    O49   1.300153 A    
C19   C51   1.194617 T    
O18   C90   1.275332 A    
C142  H60   1.110356 S    
C59   C62   1.538755 S    
N9    O65   1.300251 A    
C157  H93   1.110881 S    
O17   C89   1.274784 A    
C15   C47   1.548065 S    
C106  C116  1.543967 S    
C158  C159  1.530508 S    
C68   H22   1.110256 S    
Zn9   O41   2.019992 S    
C123  C136  1.533561 S    
C138  H55   1.111639 S    
N5    O58   1.300281 A    
C122  C126  1.531078 S    
C37   C45   1.541695 S    
C149  H85   1.111149 S    
C148  H74   1.110353 S    
C105  C155  1.527906 S    
C73   C77   1.546083 S    
C129  H45   1.110338 S    
C59   C67   1.534312 S    
C118  C170  1.528399 S    
C149  C150  1.534486 S    
C144  H68   1.111664 S    
C83   C86   1.538245 S    
O13   C7    1.273991 A    
C74   C87   1.533499 S    
C16   C48   1.548444 S    
O44   C102  1.266767 A    
C12   C40   1.540813 S    
C164  H119  1.111529 S    
C36   C44   1.536391 S    
C160  H102  1.110297 S    
C169  H122  1.110867 S    
C147  H76   1.111660 S    
C131  C133  1.547691 S    
C34   C42   1.536408 S    
O2    C2    1.274587 A    
C108  C114  1.543873 S    
C107  C161  1.528050 S    
C61   H17   1.109861 S    
C76   C78   1.546433 S    
C168  H124  1.111519 S    
C67   C70   1.552010 S    
C35   C39   1.539703 S    
C139  H52   1.110964 S    
Zn2   O14   2.023529 S    
O26   Zn7   1.998154 S    
C74   C82   1.546486 S    
C86   C88   1.529918 S    
C84   C86   1.537569 S    
O46   C103  1.266619 A    
C109  C111  1.536893 S    
O10   Zn3   1.999161 S    
C128  C131  1.536311 S    
Zn10  O42   2.018393 S    
C60   C62   1.538793 S    
C74   C77   1.547265 S    
Zn7   O31   2.016808 S    
C159  C160  1.526428 S    
O34   Zn10  2.019960 S    
C81   C85   1.537685 S    
C163  H108  1.110845 S    
C101  C127  1.438632 S    
C171  H131  1.111544 S    
C172  H129  1.110878 S    
C153  H90   1.111817 S    
C154  H87   1.110825 S    
C69   H23   1.110209 S    
C10   C38   1.540786 S    
C156  H97   1.111537 S    
O7    C5    1.282500 A    
C115  C117  1.541257 S    
C110  H36   1.110321 S    
C133  C135  1.535113 S    
C60   N10   1.458044 S    
C163  H109  1.110148 S    
O3    Zn3   2.023528 S    
C85   C149  1.528972 S    
C3    C17   1.416448 S    
C142  H58   1.110938 S    
C152  H92   1.111275 S    
N4    O55   1.300195 A    
C26   C30   1.541495 S    
C75   C78   1.547418 S    
C33   C41   1.536508 S    
C60   C68   1.534023 S    
N6    O60   1.300272 A    
C35   H11   1.110148 S    
C73   C87   1.533366 S    
O45   C103  1.267312 A    
Zn11  O47   2.019327 S    
C16   C32   1.534603 S    
Zn9   O45   2.019327 S    
C137  C138  1.531257 S    
O27   Zn8   1.997876 S    
O15   C7    1.278970 A    
C146  H78   1.111423 S    
O16   C8    1.278699 A    
C114  H38   1.110275 S    
C29   C41   1.525758 S    
C150  C151  1.525012 S    
C132  H48   1.110331 S    
N3    O53   1.300197 A    
O36   Zn12  2.019960 S    
C43   C47   1.536901 S    
C9    C25   1.554138 S    
C82   C85   1.538261 S    
C57   N7    1.458146 S    
C23   C93   1.416948 S    
C151  H80   1.110811 S    
C11   H3    1.110138 S    
C64   C68   1.536508 S    
C105  C115  1.541659 S    
C12   H4    1.110133 S    
C171  C172  1.525134 S    
C61   C63   1.536882 S    
C16   C146  1.527384 S    
C28   H16   1.110050 S    
O28   Zn8   1.998154 S    
C127  C129  1.535897 S    
C165  C166  1.526462 S    
C155  H99   1.111023 S    
C74   H28   1.110196 S    
C108  C120  1.531231 S    
C80   C104  1.437518 S    
C78   C80   1.530800 S    
O38   Zn10  2.019590 S    
C31   C43   1.525780 S    
C79   C81   1.531088 S    
