data_mof_unit_28718.cif
_audit_creation_date              2012-12-10T17:43:42-0500
_audit_creation_method            fapswitch 2.2
_symmetry_space_group_name_H-M    P1
_symmetry_Int_Tables_number       1
_space_group_crystal_system       triclinic
_cell_length_a                    14.881675
_cell_length_b                    10.641685
_cell_length_c                    10.02117
_cell_angle_alpha                 90.801137
_cell_angle_beta                  89.605582
_cell_angle_gamma                 90.452522
_cell_volume                      1586.77254771

loop_
_atom_site_label
_atom_site_type_symbol
_atom_type_description
_atom_site_fract_x
_atom_site_fract_y
_atom_site_fract_z
_atom_type_partial_charge
C1    C     C_R   0.513175 0.261744 0.498971 1.007930
C2    C     C_R   0.186920 0.385880 0.533876 0.499916
C3    C     C_R   0.232283 0.496634 0.501013 -0.279275
C4    C     C_R   0.327720 0.496170 0.500452 0.945570
C5    C     C_R   0.188017 0.604314 0.458165 0.414091
C6    C     C_R   0.583190 0.111067 0.731325 0.378849
C7    C     C_R   0.576354 0.045166 0.853327 0.151170
C8    C     C_R   0.514297 0.944683 0.863000 0.282635
C9    C     C_R   0.469463 0.901896 0.749207 0.523584
C10   C     C_R   0.496562 0.945496 0.622626 -0.275582
C11   C     C_R   0.538294 0.062759 0.616747 -0.138994
C12   C     C_R   0.907562 0.601063 0.440345 0.027382
C13   C     C_R   0.531673 0.127988 0.495991 -0.092781
C14   C     C_R   0.518250 0.062844 0.375085 0.334997
C15   C     C_R   0.488456 0.938747 0.378690 0.355936
C16   C     C_R   0.491644 0.740391 0.500969 0.878889
C17   C     C_R   0.484071 0.876934 0.502184 -0.187866
C18   C     C_R   0.344867 0.416825 0.125746 0.487814
C19   C     C_R   0.260710 0.446835 0.071338 0.321887
C20   C     C_R   0.258935 0.522373 0.956105 0.242098
C21   C     C_R   0.338584 0.539821 0.883429 -0.153223
C22   C     C_R   0.421000 0.497489 0.931887 -0.104585
C23   C     C_R   0.950275 0.279291 0.573342 0.319317
C24   C     C_R   0.423508 0.469454 0.069753 -0.124388
C25   C     C_R   0.576265 0.524899 0.071180 0.496439
C26   C     C_R   0.577436 0.516534 0.928130 0.467981
C27   C     C_R   0.672303 0.500253 0.499420 0.934406
C28   C     C_R   0.814972 0.609476 0.462381 0.362811
C29   C     C_R   0.767730 0.500153 0.497232 -0.222371
C30   C     C_R   0.810320 0.385757 0.514619 0.396621
C31   C     C_R   0.904240 0.384310 0.523619 -0.167207
C32   C     C_R   0.953099 0.491408 0.480504 -0.135945
C33   C     C_3   0.317886 0.879753 0.745222 -0.305994
C34   C     C_R   0.043454 0.274142 0.563451 0.514074
C35   C     C_3   0.372641 0.864588 0.248576 -0.176222
C36   C     C_3   0.665727 0.677460 0.163669 -0.137385
C37   C     C_3   0.343834 0.206971 0.164842 -0.235370
C38   C     C_3   0.127836 0.335093 0.059577 -0.273868
C39   C     C_3   0.681408 0.652617 0.839580 -0.175447
C40   C     C_3   0.087530 0.077953 0.503703 -0.171320
C41   C     C_3   0.250673 0.274601 0.703569 -0.231384
C42   C     C_R   0.092901 0.381928 0.525143 -0.140361
C43   C     C_R   0.047137 0.490161 0.480291 -0.168531
C44   C     C_R   0.095251 0.598588 0.438392 0.050482
C45   C     C_R   0.049637 0.700172 0.380477 0.347141
C46   C     C_R   0.955076 0.699385 0.378448 0.348117
H1    H     H_    0.336688 0.602730 0.801228 0.264659
H2    H     H_    0.354934 0.763133 0.245796 0.229197
H3    H     H_    0.351741 0.904824 0.152211 0.191690
H4    H     H_    0.633243 0.738446 0.089492 0.110392
H5    H     H_    0.738409 0.701372 0.164506 0.207418
H6    H     H_    0.638783 0.701793 0.263294 0.220670
H7    H     H_    0.395103 0.192783 0.084627 0.151730
H8    H     H_    0.275574 0.188344 0.125562 0.142912
H9    H     H_    0.355212 0.136705 0.243181 0.194715
H10   H     H_    0.086260 0.275240 0.125938 0.190914
H11   H     H_    0.166164 0.270863 0.991945 0.123894
H12   H     H_    0.712783 0.722826 0.492092 0.295934
H13   H     H_    0.080989 0.392117 0.000356 0.193555
H14   H     H_    0.139750 0.587782 0.988475 0.371851
H15   H     H_    0.793415 0.209136 0.471797 0.372717
H16   H     H_    0.718634 0.659990 0.743897 0.174323
H17   H     H_    0.622322 0.716012 0.833557 0.143556
H18   H     H_    0.729106 0.686602 0.916442 0.160165
H19   H     H_    0.857483 0.219912 0.693488 0.377836
H20   H     H_    0.018455 0.046009 0.477282 0.181598
H21   H     H_    0.125137 0.994783 0.537669 0.201674
H22   H     H_    0.122981 0.114883 0.413980 0.156622
H23   H     H_    0.639375 0.261118 0.805870 0.360197
H24   H     H_    0.202072 0.330410 0.764788 0.159835
H25   H     H_    0.244506 0.175421 0.735194 0.182232
H26   H     H_    0.320233 0.304964 0.726698 0.180748
H27   H     H_    0.290298 0.718267 0.489233 0.302227
H28   H     H_    0.061544 0.874323 0.323000 0.320304
H29   H     H_    0.941125 0.810816 0.228745 0.328025
H30   H     H_    0.518138 0.068738 0.179699 0.385187
H31   H     H_    0.684859 0.114775 0.932699 0.365114
H32   H     H_    0.546072 0.904922 0.044060 0.388548
H33   H     H_    0.261738 0.811971 0.759382 0.220505
H34   H     H_    0.312447 0.917095 0.642430 0.166290
H35   H     H_    0.309356 0.956875 0.820390 0.155772
H36   H     H_    0.332556 0.911792 0.329171 0.141847
N1    N     N_R   0.499150 0.498800 0.142780 -0.138442
N2    N     N_R   0.499120 0.498720 0.857170 -0.145330
O1    O     O_R   0.500000 0.316780 0.614690 -0.615628
O2    O     O_3   0.638100 0.215460 0.719116 -0.680884
O3    O     O_3   0.627226 0.077733 0.963412 -0.760568
O4    O     O_3   0.498565 0.881688 0.979949 -0.734410
O5    O     O_3   0.399742 0.816509 0.763509 -0.572197
O6    O     O_3   0.466974 0.877619 0.260229 -0.620908
O7    O     O_3   0.656224 0.547290 0.136504 -0.582565
O8    O     O_3   0.350600 0.327564 0.223971 -0.523796
O9    O     O_3   0.183341 0.412735 0.140347 -0.590736
O10   O     O_3   0.182271 0.580334 0.912351 -0.767445
O11   O     O_3   0.758355 0.277511 0.514904 -0.708441
O12   O     O_R   0.499990 0.316750 0.385360 -0.519777
O13   O     O_3   0.658865 0.525031 0.861659 -0.571934
O14   O     O_3   0.907637 0.183221 0.640754 -0.723947
O15   O     O_3   0.085727 0.167717 0.608382 -0.571405
O16   O     O_3   0.235819 0.279494 0.564356 -0.586244
O17   O     O_3   0.233668 0.716475 0.438081 -0.741225
O18   O     O_3   0.098595 0.797700 0.325039 -0.723077
O19   O     O_3   0.908010 0.790463 0.311911 -0.706084
O20   O     O_3   0.534940 0.123296 0.255927 -0.701584
O21   O     O_R   0.367850 0.499980 0.614680 -0.663461
O22   O     O_R   0.367840 0.499960 0.385350 -0.569531
O23   O     O_R   0.500010 0.683250 0.614640 -0.596518
O24   O     O_R   0.500000 0.683220 0.385310 -0.608309
O25   O     O_R   0.632160 0.500040 0.614650 -0.561223
O26   O     O_R   0.632150 0.500020 0.385320 -0.576238
O27   O     O_3   0.773104 0.724666 0.450015 -0.703394
Zn1   Zn    Zn3+2 0.500010 0.500020 0.653130 0.995137
Zn2   Zn    Zn3+2 0.499990 0.499980 0.346870 1.063276

loop_
_geom_bond_atom_site_label_1
_geom_bond_atom_site_label_2
_ccdc_geom_bond_type
H30   O20   S    
C27   C29   S    
O23   Zn1   S    
N1    Zn2   S    
C19   C20   A    
C34   C42   A    
O1    Zn1   S    
C40   O15   S    
C7    C8    A    
C45   C46   A    
C39   H18   S    
C29   C30   A    
C12   C28   A    
C18   C24   A    
C28   C29   A    
C24   N1    A    
H19   O14   S    
C30   C31   A    
C39   O13   S    
C10   C17   A    
C18   C19   A    
C16   O23   A    
C7    O3    S    
C27   O26   A    
C8    C9    A    
C40   H21   S    
C35   H3    S    
C9    C10   A    
C36   H6    S    
H28   O18   S    
C37   H7    S    
H27   O17   S    
C2    O16   S    
C40   H20   S    
C21   C22   A    
C12   C32   A    
H29   O19   S    
C35   H2    S    
C35   H36   S    
C28   O27   S    
C1    O1    A    
C5    O17   S    
C25   O7    S    
O22   Zn2   S    
H12   O27   S    
C12   C46   A    
C45   O18   S    
O25   Zn1   S    
C9    O5    S    
C6    C11   A    
C33   H33   S    
C25   C26   A    
C4    O22   A    
C8    O4    S    
C22   N2    A    
O24   Zn2   S    
C43   C44   A    
C30   O11   S    
C33   O5    S    
C38   H11   S    
C14   O20   S    
C31   C32   A    
C23   C34   A    
C34   O15   S    
C41   O16   S    
N2    Zn1   S    
O26   Zn2   S    
C27   O25   A    
C36   H5    S    
C41   H26   S    
C37   H8    S    
C36   O7    S    
C5    C44   A    
C22   C24   A    
O12   Zn2   S    
C1    C13   S    
C42   C43   A    
C3    C4    S    
C36   H4    S    
C44   C45   A    
C4    O21   A    
H32   O4    S    
C15   C17   A    
C39   H16   S    
C20   O10   S    
C26   N2    A    
C37   O8    S    
O21   Zn1   S    
C3    C5    A    
C19   O9    S    
H15   O11   S    
C33   H34   S    
C6    C7    A    
C39   H17   S    
C46   O19   S    
C6    O2    S    
C41   H25   S    
C18   O8    S    
C2    C3    A    
C15   O6    S    
C11   C13   A    
C16   C17   S    
C2    C42   A    
C1    O12   A    
C38   O9    S    
C32   C43   A    
C10   C11   A    
C16   O24   A    
C26   O13   S    
C38   H13   S    
C37   H9    S    
C35   O6    S    
C23   O14   S    
C38   H10   S    
C20   C21   A    
H31   O3    S    
C40   H22   S    
C25   N1    A    
C14   C15   A    
C13   C14   A    
C33   H35   S    
H23   O2    S    
C23   C31   A    
C41   H24   S    
C21   H1    S    
H14   O10   S    
