data_mof_unit_26479.cif
_audit_creation_date              2012-12-11T15:34:52-0500
_audit_creation_method            fapswitch 2.2
_symmetry_space_group_name_H-M    P1
_symmetry_Int_Tables_number       1
_space_group_crystal_system       triclinic
_cell_length_a                    30.548708
_cell_length_b                    7.250153
_cell_length_c                    25.975639
_cell_angle_alpha                 89.996463
_cell_angle_beta                  111.969509
_cell_angle_gamma                 89.995172
_cell_volume                      5335.3808017

loop_
_atom_site_label
_atom_site_type_symbol
_atom_type_description
_atom_site_fract_x
_atom_site_fract_y
_atom_site_fract_z
_atom_type_partial_charge
O1    O     O_R   0.295360 0.592990 0.320420 -0.533753
O2    O     O_R   0.704640 0.407010 0.679580 -0.533753
O3    O     O_R   0.204640 0.092990 0.179580 -0.533742
O4    O     O_R   0.795360 0.907010 0.820420 -0.533742
O5    O     O_R   0.294060 0.265620 0.213230 -0.539736
O6    O     O_R   0.705940 0.734380 0.786770 -0.539737
O7    O     O_R   0.205940 0.765620 0.286770 -0.539721
O8    O     O_R   0.794060 0.234380 0.713230 -0.539722
C1    C     C_R   0.304212 0.432250 0.199648 0.694917
C2    C     C_R   0.695788 0.567750 0.800352 0.694918
C3    C     C_R   0.195789 0.932252 0.300352 0.694870
C4    C     C_R   0.804211 0.067748 0.699647 0.694871
O9    O     O_R   0.300850 0.263360 0.322080 -0.533703
O10   O     O_R   0.699150 0.736640 0.677920 -0.533703
O11   O     O_R   0.199150 0.763360 0.177920 -0.533687
O12   O     O_R   0.800850 0.236640 0.822080 -0.533688
O13   O     O_R   0.211480 0.091820 0.289210 -0.537058
O14   O     O_R   0.788520 0.908180 0.710790 -0.537059
O15   O     O_R   0.288520 0.591820 0.210790 -0.537071
O16   O     O_R   0.711480 0.408180 0.789210 -0.537071
C5    C     C_R   0.313267 0.431453 0.343168 0.683901
C6    C     C_R   0.686733 0.568546 0.656832 0.683902
C7    C     C_R   0.186734 0.931480 0.156834 0.683908
C8    C     C_R   0.813265 0.068520 0.843166 0.683908
O17   O     O_3   0.220670 0.426670 0.239090 -0.374636
O18   O     O_3   0.779330 0.573330 0.760910 -0.374636
O19   O     O_3   0.279330 0.926670 0.260910 -0.374665
O20   O     O_3   0.720670 0.073330 0.739090 -0.374666
V1    V     V_3+5 0.255440 0.152290 0.252020 1.416494
V2    V     V_3+5 0.744560 0.847710 0.747980 1.416493
V3    V     V_3+5 0.244560 0.652290 0.247980 1.416503
V4    V     V_3+5 0.755440 0.347710 0.752020 1.416503
C9    C     C_R   0.850232 0.063596 0.899375 -0.038580
C10   C     C_R   0.149767 0.936404 0.100625 -0.038581
C11   C     C_R   0.649763 0.563764 0.600621 -0.038704
C12   C     C_R   0.350237 0.436236 0.399379 -0.038704
C13   C     C_R   0.873655 0.126127 0.997418 -0.155777
C14   C     C_R   0.126345 0.873874 0.002582 -0.155777
C15   C     C_R   0.626261 0.627826 0.502649 -0.155831
C16   C     C_R   0.373738 0.372173 0.497351 -0.155831
C17   C     C_R   0.838845 0.117448 0.944406 -0.162633
C18   C     C_R   0.161155 0.882553 0.055594 -0.162634
C19   C     C_R   0.661094 0.618653 0.555637 -0.162560
C20   C     C_R   0.338906 0.381347 0.444363 -0.162560
C21   C     C_R   0.897228 0.018892 0.907725 -0.210792
C22   C     C_R   0.102772 0.981108 0.092275 -0.210791
C23   C     C_R   0.602795 0.518488 0.592243 -0.210830
C24   C     C_R   0.397205 0.481510 0.407757 -0.210831
C25   C     C_R   0.933796 0.029951 0.961469 0.085912
C26   C     C_R   0.066204 0.970049 0.038530 0.085912
C27   C     C_R   0.566200 0.530065 0.538526 0.085886
C28   C     C_R   0.433800 0.469933 0.461474 0.085887
C29   C     C_R   0.920793 0.084300 0.006296 0.134361
C30   C     C_R   0.079207 0.915701 0.993704 0.134362
C31   C     C_R   0.579149 0.585499 0.493751 0.134369
C32   C     C_R   0.420851 0.414499 0.506249 0.134369
C33   C     C_R   0.982645 0.991637 0.972296 0.057075
C34   C     C_R   0.017355 0.008364 0.027703 0.057075
C35   C     C_R   0.517372 0.491297 0.527684 0.057073
C36   C     C_R   0.482628 0.508700 0.472316 0.057073
C37   C     C_R   0.002023 0.062222 0.070404 -0.183055
C38   C     C_R   0.997977 0.937779 0.929596 -0.183055
C39   C     C_R   0.497907 0.563660 0.429668 -0.183065
C40   C     C_R   0.502093 0.436337 0.570332 -0.183065
C41   C     C_R   0.954850 0.098880 0.059792 -0.193715
C42   C     C_R   0.045150 0.901121 0.940208 -0.193714
C43   C     C_R   0.545061 0.600718 0.440292 -0.193712
C44   C     C_R   0.454939 0.399279 0.559708 -0.193712
H1    H     H_    0.944932 0.140388 0.094047 0.130177
H2    H     H_    0.055068 0.859613 0.905953 0.130176
H3    H     H_    0.554937 0.643083 0.406079 0.130182
H4    H     H_    0.445063 0.356914 0.593921 0.130182
H5    H     H_    0.095994 0.019330 0.128671 0.095851
H6    H     H_    0.904006 0.980669 0.871329 0.095852
H7    H     H_    0.403947 0.520472 0.371394 0.095947
H8    H     H_    0.596053 0.479527 0.628606 0.095947
H9    H     H_    0.197134 0.845968 0.061610 0.114226
H10   H     H_    0.802866 0.154032 0.938390 0.114226
H11   H     H_    0.302953 0.344275 0.438324 0.114285
H12   H     H_    0.697047 0.655726 0.561676 0.114286
H13   H     H_    0.863759 0.168321 0.031614 0.121774
H14   H     H_    0.136241 0.831681 0.968386 0.121774
H15   H     H_    0.636115 0.670859 0.468494 0.121773
H16   H     H_    0.363885 0.329141 0.531506 0.121773
H17   H     H_    0.025710 0.078092 0.112908 0.126520
H18   H     H_    0.974290 0.921910 0.887092 0.126520
H19   H     H_    0.474191 0.580125 0.387199 0.126514
H20   H     H_    0.525809 0.419871 0.612800 0.126514
C45   C     C_R   0.076394 0.122430 0.457237 0.578286
C46   C     C_R   0.923606 0.877570 0.542763 0.578286
C47   C     C_R   0.423591 0.622406 0.042743 0.578251
C48   C     C_R   0.576411 0.377598 0.957256 0.578247
N1    N     N_R   0.073309 0.972319 0.423661 -0.555150
N2    N     N_R   0.926690 0.027681 0.576339 -0.555150
N3    N     N_R   0.426692 0.472314 0.076340 -0.555124
N4    N     N_R   0.573308 0.527689 0.923659 -0.555129
C49   C     C_R   0.041714 0.832881 0.419856 0.572759
C50   C     C_R   0.958286 0.167119 0.580144 0.572759
C51   C     C_R   0.458305 0.332897 0.080162 0.572740
C52   C     C_R   0.541696 0.667105 0.919835 0.572738
C53   C     C_R   0.012354 0.840106 0.450705 -0.028901
C54   C     C_R   0.987646 0.159894 0.549295 -0.028901
C55   C     C_R   0.487663 0.340122 0.049311 -0.028880
C56   C     C_R   0.512338 0.659881 0.950687 -0.028879
C57   C     C_R   0.014819 0.994388 0.484579 -0.019752
C58   C     C_R   0.985181 0.005612 0.515421 -0.019752
C59   C     C_R   0.485182 0.494389 0.015420 -0.019765
C60   C     C_R   0.514819 0.505615 0.984578 -0.019759
C61   C     C_R   0.046849 0.137475 0.487693 -0.025089
C62   C     C_R   0.953151 0.862525 0.512307 -0.025089
C63   C     C_R   0.453137 0.637457 0.012289 -0.025067
C64   C     C_R   0.546864 0.362546 0.987709 -0.025065
C65   C     C_R   0.980451 0.697341 0.448225 -0.153557
C66   C     C_R   0.019549 0.302659 0.551775 -0.153557
C67   C     C_R   0.519579 0.197371 0.051805 -0.153520
C68   C     C_R   0.480423 0.802632 0.948193 -0.153527
C69   C     C_R   0.951231 0.708395 0.478637 -0.147124
C70   C     C_R   0.048769 0.291605 0.521363 -0.147124
C71   C     C_R   0.548798 0.208427 0.021393 -0.147113
C72   C     C_R   0.451203 0.791576 0.978605 -0.147106
O21   O     O_2   0.108393 0.256034 0.461866 -0.528618
O22   O     O_2   0.891607 0.743966 0.538134 -0.528618
O23   O     O_2   0.391572 0.755985 0.038089 -0.528672
O24   O     O_2   0.608431 0.244025 0.961910 -0.528674
O25   O     O_2   0.038140 0.688456 0.385762 -0.526468
O26   O     O_2   0.961860 0.311543 0.614238 -0.526468
O27   O     O_2   0.461901 0.188496 0.114279 -0.526513
O28   O     O_2   0.538100 0.811503 0.885717 -0.526515
H21   H     H_    0.977972 0.576328 0.422833 0.171183
H22   H     H_    0.022028 0.423671 0.577167 0.171183
H23   H     H_    0.522068 0.076366 0.077207 0.171177
H24   H     H_    0.477934 0.923637 0.922791 0.171175
H25   H     H_    0.927186 0.595520 0.475702 0.170032
H26   H     H_    0.072814 0.404480 0.524298 0.170032
H27   H     H_    0.572852 0.095562 0.024338 0.170019
H28   H     H_    0.427149 0.904442 0.975660 0.170021
C73   C     C_R   0.867470 0.194048 0.603388 -0.087690
C74   C     C_R   0.132530 0.805952 0.396612 -0.087690
C75   C     C_R   0.632487 0.694139 0.896560 -0.087727
C76   C     C_R   0.367512 0.305862 0.103438 -0.087734
H29   H     H_    0.867376 0.306293 0.575845 0.158665
H30   H     H_    0.132624 0.693707 0.424155 0.158665
H31   H     H_    0.632550 0.806451 0.924067 0.158701
H32   H     H_    0.367448 0.193548 0.075932 0.158701
C77   C     C_R   0.838235 0.204922 0.633914 -0.201405
C78   C     C_R   0.161765 0.795078 0.366086 -0.201405
C79   C     C_R   0.661720 0.705012 0.866033 -0.201433
C80   C     C_R   0.338278 0.294992 0.133965 -0.201433
C81   C     C_R   0.836360 0.058956 0.668698 -0.051940
C82   C     C_R   0.163640 0.941044 0.331301 -0.051941
C83   C     C_R   0.663638 0.558963 0.831299 -0.051916
C84   C     C_R   0.336362 0.441038 0.168701 -0.051913
C85   C     C_R   0.865014 0.903355 0.672999 -0.212262
C86   C     C_R   0.134986 0.096645 0.327001 -0.212262
C87   C     C_R   0.635025 0.403280 0.827047 -0.212270
C88   C     C_R   0.364976 0.596717 0.172955 -0.212270
H33   H     H_    0.864625 0.789263 0.699745 0.136042
H34   H     H_    0.135375 0.210737 0.300255 0.136041
H35   H     H_    0.635447 0.289115 0.800342 0.136044
H36   H     H_    0.364556 0.710877 0.199663 0.136042
C89   C     C_R   0.895074 0.894497 0.643495 -0.089120
C90   C     C_R   0.104926 0.105503 0.356505 -0.089120
C91   C     C_R   0.604963 0.394426 0.856549 -0.089146
C92   C     C_R   0.395037 0.605577 0.143452 -0.089153
H37   H     H_    0.917385 0.774559 0.648300 0.153158
H38   H     H_    0.082615 0.225441 0.351700 0.153158
H39   H     H_    0.582684 0.274422 0.851779 0.153182
H40   H     H_    0.417316 0.725583 0.148223 0.153181
C93   C     C_R   0.896362 0.038954 0.607934 0.354393
C94   C     C_R   0.103638 0.961046 0.392066 0.354393
C95   C     C_R   0.603636 0.538963 0.892062 0.354407
C96   C     C_R   0.396364 0.461039 0.107937 0.354408
H41   H     H_    0.816315 0.325968 0.629367 0.134854
H42   H     H_    0.183685 0.674032 0.370632 0.134854
H43   H     H_    0.683605 0.826130 0.870541 0.134852
H44   H     H_    0.316391 0.173878 0.129455 0.134850

loop_
_geom_bond_atom_site_label_1
_geom_bond_atom_site_label_2
_ccdc_geom_bond_type
C66   H22   S    
O17   V3    S    
C51   C55   A    
C25   C29   A    
C1    C84   S    
O1    C5    A    
O19   V1    S    
C53   C65   A    
C16   H16   S    
O3    C7    A    
C10   C18   A    
C48   N4    A    
O4    V2    S    
C69   H25   S    
C76   C80   A    
C25   C33   A    
C33   C38   A    
C5    C12   S    
C67   H23   S    
O7    C3    A    
C6    C11   S    
C38   H18   S    
C75   C79   A    
C35   C40   A    
C80   H44   S    
C65   H21   S    
N4    C52   A    
C36   C39   A    
C40   C44   A    
C73   C77   A    
C23   H8    S    
C14   C18   A    
C48   O24   S    
N2    C93   S    
C58   C62   A    
O4    C8    A    
C79   H43   S    
C43   H3    S    
C74   C94   A    
N2    C50   A    
C45   C61   A    
O1    V3    S    
O13   V1    S    
O2    V4    S    
C47   C63   A    
O3    V1    S    
C81   C85   A    
C57   C61   A    
C28   C36   A    
C90   H38   S    
C75   H31   S    
C1    O15   A    
C52   C56   A    
C15   C31   A    
C84   C88   A    
C2    O16   A    
C16   C32   A    
N4    C95   S    
C68   H24   S    
O2    C6    A    
C59   C60   A    
C75   C95   A    
C10   C22   A    
C83   C87   A    
C11   C19   A    
N3    C96   S    
C73   C93   A    
C70   H26   S    
C44   H4    S    
C13   C29   A    
C34   C37   A    
O11   C7    A    
O15   V3    S    
C35   C36   A    
O12   C8    A    
C47   O23   S    
C14   H14   S    
C85   H33   S    
C46   O22   S    
C24   H7    S    
C13   H13   S    
O10   V2    S    
C62   C69   A    
C61   C70   A    
C46   N2    A    
O5    V1    S    
C53   C57   A    
C39   C43   A    
N1    C94   S    
O7    V3    S    
C38   C42   A    
C87   H35   S    
C26   C34   A    
C76   H32   S    
C88   H36   S    
C49   O25   S    
C74   H30   S    
C17   H10   S    
O18   V4    S    
C48   C64   A    
C15   C19   A    
C91   C95   A    
C27   C31   A    
C87   C91   A    
C19   H12   S    
C50   C54   A    
C47   N3    A    
C45   N1    A    
C71   H27   S    
C68   C72   A    
C85   C89   A    
C21   H6    S    
C72   H28   S    
O8    V4    S    
C55   C67   A    
O5    C1    A    
C9    C21   A    
C54   C66   A    
C37   C41   A    
C2    C83   S    
C3    C82   S    
C31   C43   A    
C90   C94   A    
C24   C28   A    
C91   H39   S    
O8    C4    A    
C7    C10   S    
C21   C25   A    
O9    C5    A    
C26   C30   A    
O11   V3    S    
C66   C70   A    
C37   H17   S    
C51   O27   S    
C92   H40   S    
O6    V2    S    
C77   H41   S    
C67   C71   A    
O14   V2    S    
C65   C69   A    
C12   C20   A    
C27   C35   A    
C46   C62   A    
N1    C49   A    
C56   C60   A    
C29   C41   A    
O16   V4    S    
C50   O26   S    
O9    V1    S    
C73   H29   S    
C3    O13   A    
C39   H19   S    
C52   O28   S    
C59   C63   A    
C4    C81   S    
C86   C90   A    
C20   H11   S    
C80   C84   A    
O6    C2    A    
C64   C71   A    
C23   C27   A    
C78   C82   A    
C30   C42   A    
O12   V4    S    
C57   C58   A    
C22   C26   A    
C8    C9    S    
C14   C30   A    
C9    C17   A    
C56   C68   A    
O10   C6    A    
O20   V2    S    
C89   C93   A    
C32   C44   A    
C33   C34   A    
C42   H2    S    
C45   O21   S    
C74   C78   A    
C41   H1    S    
C79   C83   A    
C78   H42   S    
C12   C24   A    
N3    C51   A    
C13   C17   A    
C89   H37   S    
C92   C96   A    
C15   H15   S    
C60   C64   A    
C16   C20   A    
C88   C92   A    
C18   H9    S    
C76   C96   A    
C82   C86   A    
C54   C58   A    
C4    O14   A    
C86   H34   S    
C77   C81   A    
C63   C72   A    
C55   C59   A    
C11   C23   A    
C40   H20   S    
C22   H5    S    
C49   C53   A    
C28   C32   A    
