data_mof_unit_68371.cif
_audit_creation_date              2012-12-10T20:46:35-0500
_audit_creation_method            fapswitch 2.2
_symmetry_space_group_name_H-M    P1
_symmetry_Int_Tables_number       1
_space_group_crystal_system       triclinic
_cell_length_a                    10.408253
_cell_length_b                    8.917809
_cell_length_c                    8.09882
_cell_angle_alpha                 90.000162
_cell_angle_beta                  102.440887
_cell_angle_gamma                 90.000086
_cell_volume                      734.071492415

loop_
_atom_site_label
_atom_site_type_symbol
_atom_type_description
_atom_site_fract_x
_atom_site_fract_y
_atom_site_fract_z
_atom_type_partial_charge
C1    C     C_R   0.500000 0.217933 0.500000 0.915159
C2    C     C_1   0.500000 0.934772 0.500000 -0.195814
C3    C     C_3   0.886332 0.819669 0.291104 0.081487
C4    C     C_3   0.775840 0.918209 0.192652 -0.297292
C5    C     C_3   0.821215 0.007203 0.054481 -0.948384
C6    C     C_3   0.113679 0.819610 0.709006 0.081545
C7    C     C_3   0.224213 0.918008 0.807610 -0.297196
C8    C     C_3   0.178818 0.007017 0.945755 -0.948490
C9    C     C_2   0.969959 0.426870 0.723126 0.282995
C10   C     C_2   0.030033 0.426938 0.276829 0.282993
C11   C     C_R   0.500000 0.782058 0.500000 0.989037
C12   C     C_R   0.255846 0.504626 0.432232 0.906176
C13   C     C_R   0.744154 0.504619 0.567768 0.906172
C14   C     C_2   0.114553 0.529677 0.399542 -0.269772
C15   C     C_2   0.885448 0.529652 0.600460 -0.269739
C16   C     C_2   0.070471 0.635873 0.494887 0.404199
C17   C     C_2   0.929537 0.635873 0.505154 0.404203
C18   C     C_1   0.500000 0.065180 0.500000 -0.215109
H1    H     H_    0.917862 0.741155 0.200622 0.180166
H2    H     H_    0.309041 0.846140 0.866543 0.239983
H3    H     H_    0.257399 0.997355 0.719416 0.227995
H4    H     H_    0.095625 0.081939 0.889330 0.271248
H5    H     H_    0.261275 0.076943 0.015127 0.279529
H6    H     H_    0.147116 0.929791 0.037045 0.258660
H7    H     H_    0.924660 0.333785 0.775678 0.093404
H8    H     H_    0.075325 0.333872 0.224232 0.093444
H9    H     H_    0.969981 0.893281 0.349859 0.137402
H10   H     H_    0.690922 0.846448 0.133761 0.240005
H11   H     H_    0.742790 0.997571 0.280943 0.227969
H12   H     H_    0.904545 0.081959 0.110859 0.271203
H13   H     H_    0.738810 0.077299 0.985288 0.279560
H14   H     H_    0.852712 0.929961 0.963047 0.258667
H15   H     H_    0.082040 0.741092 0.799397 0.180106
H16   H     H_    0.030105 0.893317 0.650235 0.137427
N1    N     N_1   0.500020 0.500000 0.073650 -0.012237
N2    N     N_1   0.499980 0.500000 0.926350 -0.012238
O1    O     O_R   0.499990 0.285340 0.636850 -0.618243
O2    O     O_3   0.161103 0.739728 0.583486 -0.650103
O3    O     O_2   0.088433 0.445305 0.769694 -0.561244
O4    O     O_2   0.911561 0.445386 0.230272 -0.561260
O5    O     O_R   0.500010 0.714660 0.363150 -0.614129
O6    O     O_R   0.500010 0.285340 0.363150 -0.618255
O7    O     O_R   0.499990 0.714660 0.636850 -0.614112
O8    O     O_R   0.317810 0.500000 0.585760 -0.531733
O9    O     O_R   0.682190 0.500000 0.414240 -0.531763
O10   O     O_R   0.317820 0.500000 0.312020 -0.628789
O11   O     O_R   0.682180 0.500000 0.687980 -0.628777
O12   O     O_3   0.838918 0.739775 0.416623 -0.650128
Zn1   Zn    Zn3+2 0.499990 0.500000 0.682780 1.022047
Zn2   Zn    Zn3+2 0.500010 0.500000 0.317220 1.022028

loop_
_geom_bond_atom_site_label_1
_geom_bond_atom_site_label_2
_ccdc_geom_bond_type
O8    Zn1   S    
C8    H4    S    
C1    O6    A    
C6    O2    S    
C11   O7    A    
C6    C7    S    
C2    C18   T    
O1    Zn1   S    
O10   Zn2   S    
C4    H11   S    
C6    H15   S    
C1    O1    A    
C17   O12   S    
C5    H14   S    
N1    Zn2   S    
C3    H9    S    
C9    C15   S    
C9    H7    S    
C7    C8    S    
C12   O8    A    
C3    H1    S    
C4    C5    S    
C10   H8    S    
C1    C18   S    
O9    Zn2   S    
O6    Zn2   S    
C2    C11   S    
O11   Zn1   S    
C4    H10   S    
C12   C14   S    
C7    H2    S    
C13   C15   S    
C14   C16   D    
C3    C4    S    
C6    H16   S    
C3    O12   S    
C9    O3    D    
C8    H5    S    
C13   O9    A    
C10   O4    D    
C5    H12   S    
C10   C14   S    
C11   O5    A    
C15   C17   D    
O5    Zn2   S    
O7    Zn1   S    
C8    H6    S    
C7    H3    S    
C13   O11   A    
N2    Zn1   S    
N1    N2    T    
C16   O2    S    
C16   C17   S    
C5    H13   S    
C12   O10   A    
