data_mof_unit_46482.cif
_audit_creation_date              2012-12-10T20:35:51-0500
_audit_creation_method            fapswitch 2.2
_symmetry_space_group_name_H-M    P1
_symmetry_Int_Tables_number       1
_space_group_crystal_system       triclinic
_cell_length_a                    15.698388
_cell_length_b                    10.731465
_cell_length_c                    9.95263
_cell_angle_alpha                 90.396729
_cell_angle_beta                  91.707135
_cell_angle_gamma                 89.68799
_cell_volume                      1675.87936226

loop_
_atom_site_label
_atom_site_type_symbol
_atom_type_description
_atom_site_fract_x
_atom_site_fract_y
_atom_site_fract_z
_atom_type_partial_charge
C1    C     C_R   0.495390 0.260743 0.499069 0.882600
C2    C     C_3   0.955951 0.511904 0.648625 0.200191
C3    C     C_3   0.917228 0.486131 0.505179 -0.011413
C4    C     C_3   0.946448 0.592300 0.412181 -0.544810
C5    C     C_3   0.044122 0.589762 0.401713 -0.390585
C6    C     C_1   0.825647 0.489780 0.506740 0.065374
C7    C     C_1   0.174433 0.493471 0.492826 0.103935
C8    C     C_1   0.249735 0.496967 0.493204 -0.124274
C9    C     C_R   0.530740 0.065854 0.604481 0.042029
C10   C     C_R   0.491739 0.128438 0.496603 -0.157036
C11   C     C_R   0.456070 0.061486 0.385221 0.143759
C12   C     C_R   0.338557 0.499953 0.498032 0.890059
C13   C     C_R   0.461956 0.932472 0.386643 -0.194838
C14   C     C_R   0.496534 0.871384 0.499447 -0.171175
C15   C     C_R   0.531443 0.938075 0.607439 0.049072
C16   C     C_3   0.507602 0.935167 0.752100 0.237607
C17   C     C_3   0.511223 0.076956 0.751034 -0.131958
C18   C     C_R   0.426877 0.480379 0.067903 0.084996
C19   C     C_R   0.573593 0.501623 0.077844 -0.102652
C20   C     C_R   0.575083 0.495978 0.935579 0.197019
C21   C     C_R   0.426239 0.479599 0.926458 0.101227
C22   C     C_3   0.342467 0.550204 0.923418 0.459353
C23   C     C_R   0.498543 0.739439 0.500302 0.921173
C24   C     C_3   0.346561 0.552423 0.077109 -0.470890
C25   C     C_R   0.661459 0.499124 0.501708 0.898868
C26   C     C_3   0.054429 0.516890 0.643334 0.131824
C27   C     C_3   0.049673 0.356749 0.451361 0.563649
C28   C     C_3   0.949807 0.360380 0.444920 0.230828
C29   C     C_1   0.750310 0.494275 0.505533 -0.146133
C30   C     C_3   0.082918 0.488903 0.496888 -0.030676
H1    H     H_    0.931117 0.603472 0.683840 0.173167
H2    H     H_    0.916518 0.582270 0.309816 0.222318
H3    H     H_    0.434355 0.879474 0.303094 0.182589
H4    H     H_    0.441837 0.900670 0.763960 0.174467
H5    H     H_    0.447294 0.119064 0.767112 0.131735
H6    H     H_    0.632563 0.504967 0.136668 0.163244
H7    H     H_    0.083362 0.447108 0.713110 0.198420
H8    H     H_    0.357253 0.646289 0.122416 0.228554
H9    H     H_    0.296342 0.497633 0.126027 0.202518
H10   H     H_    0.928091 0.358766 0.337400 0.148393
H11   H     H_    0.070095 0.683464 0.427414 0.261462
H12   H     H_    0.061222 0.570649 0.295899 0.232863
H13   H     H_    0.926040 0.684497 0.452436 0.242924
N1    N     N_R   0.499430 0.499140 0.142800 -0.107631
N2    N     N_R   0.499430 0.499180 0.857150 -0.099668
O1    O     O_R   0.500010 0.316790 0.614690 -0.635450
O2    O     O_R   0.500000 0.316760 0.385350 -0.612982
O3    O     O_R   0.377150 0.500020 0.614720 -0.597442
O4    O     O_R   0.377140 0.499990 0.385380 -0.624228
O5    O     O_R   0.500000 0.683240 0.614650 -0.553705
O6    O     O_R   0.499990 0.683210 0.385310 -0.615826
O7    O     O_R   0.622860 0.500010 0.614620 -0.626162
O8    O     O_R   0.622850 0.499980 0.385280 -0.620275
Zn1   Zn    Zn3+2 0.500010 0.500020 0.653130 0.993907
Zn2   Zn    Zn3+2 0.499990 0.499980 0.346870 0.963127
Cl1   Cl    Cl    0.923431 0.401883 0.771945 -0.524114
Cl2   Cl    Cl    0.092460 0.665016 0.705534 -0.564228
C31   C     C_3   0.403208 0.120314 0.271811 -0.338475
C32   C     C_3   0.454361 0.131655 0.144427 -0.819642
H14   H     H_    0.512441 0.188294 0.163682 0.269463
H15   H     H_    0.473351 0.037771 0.107972 0.274976
H16   H     H_    0.414799 0.177423 0.064497 0.236527
H17   H     H_    0.346389 0.061592 0.248770 0.220083
H18   H     H_    0.376668 0.212349 0.300606 0.223178
Cl3   Cl    Cl    0.583921 0.855731 0.857574 -0.627968
C33   C     C_3   0.581521 0.140678 0.839755 -0.343901
C34   C     C_3   0.671600 0.136156 0.784005 -0.657688
H19   H     H_    0.717296 0.177805 0.858598 0.245015
H20   H     H_    0.692008 0.038995 0.763502 0.298058
H21   H     H_    0.674110 0.190662 0.689745 0.245630
H22   H     H_    0.563141 0.239717 0.852860 0.188999
H23   H     H_    0.582875 0.100021 0.941925 0.242590
C35   C     C_3   0.662666 0.470931 0.882322 -0.404855
C36   C     C_3   0.710232 0.590937 0.852399 -0.629853
H24   H     H_    0.720958 0.645675 0.946467 0.255362
H25   H     H_    0.773046 0.567892 0.810265 0.250277
H26   H     H_    0.674140 0.649343 0.779184 0.297823
H27   H     H_    0.702340 0.420772 0.959384 0.184928
H28   H     H_    0.661100 0.401624 0.800564 0.237873
Cl4   Cl    Cl    0.349869 0.702768 0.854584 -0.571569
C37   C     C_3   0.263437 0.478731 0.867144 -0.354724
C38   C     C_3   0.268967 0.336639 0.879197 -0.849182
H29   H     H_    0.321618 0.299299 0.818272 0.253011
H30   H     H_    0.279208 0.308799 0.985669 0.264765
H31   H     H_    0.208395 0.294917 0.840682 0.308252
H32   H     H_    0.206029 0.512031 0.919799 0.251627
H33   H     H_    0.252076 0.502061 0.760456 0.257257
Cl5   Cl    Cl    0.087600 0.315308 0.287866 -0.561964
Cl6   Cl    Cl    0.092008 0.238136 0.562806 -0.470951
Cl7   Cl    Cl    0.899493 0.224461 0.511773 -0.440019

loop_
_geom_bond_atom_site_label_1
_geom_bond_atom_site_label_2
_ccdc_geom_bond_type
C5    H12   S    
C18   C21   A    
C35   C36   S    
C19   C20   A    
C12   O3    A    
C3    C6    S    
C12   O4    A    
C7    C8    T    
O3    Zn1   S    
C17   C33   S    
O5    Zn1   S    
C36   H25   S    
C18   C24   S    
C3    C28   S    
C25   O8    A    
C19   H6    S    
C1    O1    A    
C28   H10   S    
C15   C16   S    
C24   H9    S    
C16   H4    S    
C33   H23   S    
C16   C17   S    
C36   H26   S    
C24   H8    S    
C35   H27   S    
C11   C31   S    
C9    C10   A    
C37   H32   S    
C33   C34   S    
C32   H14   S    
C7    C30   S    
C13   C14   A    
C27   C30   S    
C25   C29   S    
O7    Zn1   S    
C37   C38   S    
C21   N2    A    
O8    Zn2   S    
C31   H18   S    
C32   H15   S    
C36   H24   S    
C34   H19   S    
C22   C37   S    
C1    O2    A    
C23   O5    A    
C31   C32   S    
O4    Zn2   S    
C2    H1    S    
C34   H20   S    
C14   C23   S    
C13   H3    S    
C18   N1    A    
C23   O6    A    
C33   H22   S    
C8    C12   S    
O1    Zn1   S    
C35   H28   S    
C2    C26   S    
C37   H33   S    
C4    H2    S    
C9    C17   S    
N2    Zn1   S    
C26   C30   S    
C38   H30   S    
C22   C24   S    
C3    C4    S    
C19   N1    A    
O2    Zn2   S    
C5    C30   S    
C31   H17   S    
C5    H11   S    
C32   H16   S    
C1    C10   S    
C20   N2    A    
C4    C5    S    
C26   H7    S    
C4    H13   S    
C38   H31   S    
C34   H21   S    
C2    C3    S    
C9    C15   A    
C25   O7    A    
C22   Cl4   S    
C2    Cl1   S    
C11   C13   A    
N1    Zn2   S    
C20   C35   S    
C27   Cl6   S    
O6    Zn2   S    
C27   Cl5   S    
C26   Cl2   S    
C10   C11   A    
C6    C29   T    
C38   H29   S    
C27   C28   S    
C14   C15   A    
C28   Cl7   S    
C16   Cl3   S    
C17   H5    S    
C21   C22   S    
