data_mof_unit_42680.cif
_audit_creation_date              2012-12-10T17:35:36-0500
_audit_creation_method            fapswitch 2.2
_symmetry_space_group_name_H-M    P1
_symmetry_Int_Tables_number       1
_space_group_crystal_system       triclinic
_cell_length_a                    10.717815
_cell_length_b                    12.308226
_cell_length_c                    13.292344
_cell_angle_alpha                 116.392928
_cell_angle_beta                  77.591702
_cell_angle_gamma                 101.423943
_cell_volume                      1523.45208324

loop_
_atom_site_label
_atom_site_type_symbol
_atom_type_description
_atom_site_fract_x
_atom_site_fract_y
_atom_site_fract_z
_atom_type_partial_charge
C1    C     C_R   0.517662 0.854993 0.287363 0.763443
C2    C     C_3   0.122108 0.002110 0.502187 0.147956
C3    C     C_3   0.044068 0.004006 0.615611 -0.437896
C4    C     C_3   0.071998 0.886444 0.402131 -0.376062
C5    C     C_R   0.348567 0.279142 0.017646 -0.192383
C6    C     C_R   0.477613 0.229939 0.833679 -0.119664
C7    C     C_R   0.670137 0.807982 0.112812 -0.187661
C8    C     C_R   0.738941 0.720204 0.023502 -0.146262
C9    C     C_R   0.690108 0.597628 0.986443 -0.142572
C10   C     C_R   0.564022 0.561040 0.028969 0.095660
C11   C     C_R   0.498262 0.649555 0.125595 0.088819
C12   C     C_R   0.739766 0.000715 0.501228 0.768623
C13   C     C_R   0.504281 0.438018 0.983234 0.001851
C14   C     C_R   0.398367 0.401894 0.051231 0.157254
C15   C     C_R   0.337450 0.489636 0.148508 -0.218259
C16   C     C_R   0.380814 0.612348 0.179855 -0.196287
C17   C     C_R   0.538446 0.352389 0.869934 -0.079663
C18   C     C_R   0.390708 0.193177 0.910775 -0.204797
C19   C     C_R   0.554644 0.772627 0.169307 -0.093993
C20   C     C_R   0.705914 0.348700 0.330833 -0.297951
C21   C     C_R   0.325524 0.758449 0.644276 0.079638
C22   C     C_R   0.287882 0.661222 0.675216 -0.248098
C23   C     C_R   0.487731 0.145461 0.712798 0.843848
C24   C     C_R   0.353448 0.558185 0.620843 -0.157315
C25   C     C_R   0.458259 0.551078 0.534234 -0.007951
C26   C     C_R   0.493466 0.653292 0.505567 0.294549
C27   C     C_R   0.529509 0.447096 0.475257 -0.043143
C28   C     C_R   0.634013 0.448053 0.389610 0.175817
C29   C     C_R   0.666587 0.548171 0.363031 -0.287089
C30   C     C_R   0.598150 0.648253 0.419679 -0.184305
C31   C     C_R   0.502334 0.341385 0.497054 0.040015
C32   C     C_R   0.674571 0.248166 0.356731 0.080208
C33   C     C_R   0.260096 0.000895 0.500848 0.754890
C34   C     C_3   0.958327 0.115570 0.488332 -0.339521
C35   C     C_3   0.100694 0.117047 0.490740 -0.372615
C36   C     C_3   0.898668 0.001324 0.616063 -0.138895
C37   C     C_3   0.927838 0.886494 0.402728 -0.426624
C38   C     C_3   0.877757 0.002318 0.503432 0.074000
Cu1   Cu    Cu3+1 0.529690 0.098270 0.475420 0.955521
Cu2   Cu    Cu3+1 0.470310 0.901730 0.524580 0.939258
H1    H     H_    0.923555 0.201942 0.555312 0.232587
H2    H     H_    0.849556 0.913183 0.617510 0.145976
H3    H     H_    0.058509 0.923105 0.626780 0.160681
H4    H     H_    0.344775 0.099985 0.884488 0.158737
H5    H     H_    0.271651 0.250601 0.071747 0.133815
H6    H     H_    0.714952 0.901674 0.146129 0.142159
H7    H     H_    0.754557 0.532572 0.927279 0.153211
H8    H     H_    0.833961 0.746545 0.987198 0.140020
H9    H     H_    0.947861 0.112646 0.405542 0.157516
H10   H     H_    0.323134 0.677444 0.249392 0.154165
H11   H     H_    0.729747 0.171218 0.311822 0.113551
H12   H     H_    0.786001 0.348918 0.265329 0.137197
H13   H     H_    0.424572 0.332584 0.560427 0.130203
H14   H     H_    0.274076 0.837995 0.686956 0.119220
H15   H     H_    0.207562 0.665738 0.741618 0.147336
H16   H     H_    0.631524 0.719908 0.393000 0.202919
H17   H     H_    0.133465 0.201360 0.563203 0.181098
H18   H     H_    0.081115 0.086047 0.687721 0.171452
H19   H     H_    0.913630 0.883373 0.320882 0.160598
H20   H     H_    0.127520 0.883597 0.320122 0.153853
N1    N     N_R   0.574690 0.246280 0.438200 -0.179617
N2    N     N_R   0.426100 0.754320 0.561190 -0.203813
O1    O     O_R   0.537340 0.972510 0.318130 -0.581407
O2    O     O_R   0.487200 0.806530 0.359650 -0.601881
O3    O     O_R   0.707380 0.082980 0.479220 -0.576588
O4    O     O_R   0.657240 0.917000 0.520740 -0.597970
O5    O     O_R   0.512800 0.193470 0.640350 -0.568103
O6    O     O_R   0.462660 0.027490 0.681870 -0.572274
O7    O     O_R   0.342760 0.083000 0.479260 -0.596241
O8    O     O_R   0.292620 0.917020 0.520780 -0.599131
H21   H     H_    0.085844 0.802690 0.408747 0.170769
H22   H     H_    0.251588 0.463738 0.197001 0.138788
C39   C     C_2   0.619246 0.394731 0.785120 0.848630
O9    O     O_2   0.716987 0.348213 0.730190 -0.573985
O10   O     O_R   0.582344 0.487466 0.768141 -0.761147
H23   H     H_    0.644490 0.508315 0.708320 0.330930
H24   H     H_    0.746422 0.549481 0.297567 0.150854
H25   H     H_    0.320224 0.485772 0.648311 0.146219
H26   H     H_    0.157736 0.120036 0.411219 0.171549
C40   C     C_2   0.840241 0.101597 0.722782 0.834678
O11   O     O_2   0.886734 0.208178 0.750540 -0.579745
O12   O     O_R   0.734019 0.070948 0.791111 -0.761654
H27   H     H_    0.704310 0.144897 0.860919 0.332991
H28   H     H_    0.872909 0.802610 0.409397 0.169512

loop_
_geom_bond_atom_site_label_1
_geom_bond_atom_site_label_2
_ccdc_geom_bond_type
C2    C35   S    
C39   O10   S    
C39   O9    D    
C31   N1    A    
C36   H2    S    
C7    C8    A    
C15   H22   S    
C11   C19   A    
C29   C30   A    
Cu2   O8    S    
C28   C29   A    
C16   H10   S    
C32   N1    A    
C21   H14   S    
C15   C16   A    
Cu2   N2    S    
C34   C35   S    
C23   O5    A    
C8    C9    A    
C37   H28   S    
C9    C10   A    
C33   O7    A    
C30   H16   S    
Cu2   O4    S    
C21   C22   A    
C17   C39   S    
Cu1   O3    S    
C34   H1    S    
C6    C18   A    
C1    O1    A    
Cu1   N1    S    
C1    C19   S    
C27   C31   A    
C7    H6    S    
C24   C25   A    
C40   O12   S    
C36   C40   S    
Cu1   Cu2   S    
C5    C18   A    
C20   C28   A    
C25   C26   A    
C5    H5    S    
C23   O6    A    
C2    C4    S    
O10   H23   S    
C8    H8    S    
C32   H11   S    
C37   C38   S    
C18   H4    S    
C11   C16   A    
C3    H3    S    
C4    H20   S    
Cu1   O7    S    
C31   H13   S    
C5    C14   A    
C37   H19   S    
C33   O8    A    
C2    C33   S    
C24   H25   S    
C9    H7    S    
C7    C19   A    
C22   C24   A    
C1    O2    A    
C20   C32   A    
C6    C17   A    
C34   H9    S    
C34   C38   S    
Cu1   O5    S    
C40   O11   D    
C10   C13   A    
C26   C30   A    
C22   H15   S    
C25   C27   A    
Cu1   O1    S    
C12   O3    A    
Cu2   O2    S    
C13   C17   A    
C35   H17   S    
C36   C38   S    
C2    C3    S    
C26   N2    A    
C20   H12   S    
C12   O4    A    
C3    C36   S    
C6    C23   S    
C35   H26   S    
C12   C38   S    
C10   C11   A    
C3    H18   S    
C29   H24   S    
C4    C37   S    
O12   H27   S    
Cu2   O6    S    
C27   C28   A    
C14   C15   A    
C21   N2    A    
C13   C14   A    
C4    H21   S    
