data_mof_unit_58538.cif
_audit_creation_date              2012-12-10T20:49:47-0500
_audit_creation_method            fapswitch 2.2
_symmetry_space_group_name_H-M    P1
_symmetry_Int_Tables_number       1
_space_group_crystal_system       triclinic
_cell_length_a                    8.117643
_cell_length_b                    8.930381
_cell_length_c                    16.927036
_cell_angle_alpha                 89.908697
_cell_angle_beta                  82.64504
_cell_angle_gamma                 90.201903
_cell_volume                      1216.99591817

loop_
_atom_site_label
_atom_site_type_symbol
_atom_type_description
_atom_site_fract_x
_atom_site_fract_y
_atom_site_fract_z
_atom_type_partial_charge
C1    C     C_R   0.499896 0.781942 0.501098 0.937612
C2    C     C_R   0.512229 0.380997 0.219272 -0.287368
C3    C     C_R   0.476454 0.372055 0.860567 -0.123020
C4    C     C_R   0.533166 0.383838 0.137173 -0.118102
C5    C     C_R   0.395013 0.490242 0.903350 0.053703
C6    C     C_R   0.581927 0.516624 0.096370 0.050342
C7    C     C_R   0.324661 0.609093 0.863998 -0.112163
C8    C     C_R   0.632510 0.642816 0.137668 -0.090834
C9    C     C_R   0.352338 0.613407 0.780200 0.454535
C10   C     C_R   0.619018 0.636026 0.221403 0.447406
C11   C     C_2   0.410161 0.498468 0.988279 -0.194389
C12   C     C_R   0.499521 0.218034 0.501083 0.921835
C13   C     C_2   0.562554 0.523646 0.011454 -0.183096
C14   C     C_2   0.231355 0.730957 0.910104 0.515191
C15   C     C_2   0.688952 0.782957 0.094453 0.491317
C16   C     C_3   0.538950 0.855633 0.282927 0.108777
C17   C     C_3   0.608909 0.005379 0.305567 -0.733922
C18   C     C_3   0.408023 0.845286 0.726897 0.103601
C19   C     C_3   0.324677 0.986290 0.701068 -0.717512
C20   C     C_2   0.713225 0.554746 0.953130 0.456197
C21   C     C_2   0.256407 0.477904 0.045663 0.457863
C22   C     C_1   0.499658 0.934756 0.502242 -0.200447
C23   C     C_1   0.499101 0.065196 0.502291 -0.207270
C24   C     C_R   0.473224 0.500301 0.653020 0.896334
C25   C     C_R   0.526684 0.501006 0.346930 0.900490
C26   C     C_R   0.445686 0.498949 0.738652 -0.162768
C27   C     C_R   0.552586 0.506623 0.261226 -0.152539
C28   C     C_R   0.504423 0.377865 0.778507 -0.286106
H1    H     H_    0.498709 0.285786 0.105261 0.165553
H2    H     H_    0.505890 0.078981 0.331025 0.177015
H3    H     H_    0.695616 0.989000 0.350491 0.263486
H4    H     H_    0.509295 0.813630 0.679334 0.121778
H5    H     H_    0.463209 0.872207 0.782297 0.124411
H6    H     H_    0.230684 0.025984 0.749930 0.279446
H7    H     H_    0.418933 0.075773 0.686376 0.179089
H8    H     H_    0.262223 0.962882 0.647737 0.255840
H9    H     H_    0.702812 0.583610 0.891721 0.069373
H10   H     H_    0.250013 0.517207 0.106578 0.067444
H11   H     H_    0.528491 0.280493 0.891307 0.166597
H12   H     H_    0.573028 0.288581 0.746020 0.166036
H13   H     H_    0.462152 0.281561 0.250112 0.162070
H14   H     H_    0.243632 0.748044 0.972450 0.040772
H15   H     H_    0.649017 0.808590 0.037250 0.029166
H16   H     H_    0.452816 0.812301 0.334228 0.132451
H17   H     H_    0.467126 0.875356 0.231918 0.121738
H18   H     H_    0.677317 0.060168 0.252169 0.276130
N1    N     N_1   0.926360 0.500000 0.499990 -0.022244
N2    N     N_1   0.073640 0.500000 0.500010 -0.021855
O1    O     O_R   0.363150 0.714660 0.500000 -0.615015
O2    O     O_2   0.782579 0.870730 0.121635 -0.510809
O3    O     O_3   0.671765 0.754750 0.264290 -0.570918
O4    O     O_3   0.288745 0.729037 0.738805 -0.564334
O5    O     O_2   0.851692 0.549840 0.973773 -0.487958
O6    O     O_2   0.134661 0.416308 0.024868 -0.478095
O7    O     O_R   0.636850 0.285340 0.500000 -0.616852
O8    O     O_R   0.636850 0.714660 0.500000 -0.609178
O9    O     O_R   0.363150 0.285340 0.500000 -0.617892
O10   O     O_R   0.346950 0.500000 0.615800 -0.581837
O11   O     O_R   0.653050 0.500000 0.384200 -0.583924
O12   O     O_R   0.620700 0.500000 0.615800 -0.627227
O13   O     O_R   0.379300 0.500000 0.384200 -0.630159
O14   O     O_2   0.137207 0.812763 0.879497 -0.508883
Zn1   Zn    Zn3+2 0.317220 0.500000 0.500010 1.010434
Zn2   Zn    Zn3+2 0.682780 0.500000 0.499990 1.012686

loop_
_geom_bond_atom_site_label_1
_geom_bond_atom_site_label_2
_ccdc_geom_bond_type
C16   H17   S    
C10   C27   A    
C2    C4    A    
O8    Zn2   S    
C5    C11   S    
C2    C27   A    
O1    Zn1   S    
C25   C27   S    
C16   H16   S    
C26   C28   A    
N1    N2    T    
C16   O3    S    
O12   Zn2   S    
C14   H14   S    
O7    Zn2   S    
C18   O4    S    
C15   H15   S    
C1    C22   S    
C25   O13   A    
C6    C13   S    
C20   H9    S    
C11   C13   D    
C12   C23   S    
O11   Zn2   S    
C9    O4    S    
C17   H2    S    
C12   O9    A    
C24   O10   A    
C3    C28   A    
C1    O8    A    
C24   C26   S    
C9    C26   A    
O9    Zn1   S    
C8    C15   S    
C5    C7    A    
C19   H8    S    
C21   O6    D    
C17   H3    S    
C18   H5    S    
C12   O7    A    
C18   H4    S    
C8    C10   A    
C10   O3    S    
C2    H13   S    
C3    H11   S    
C14   O14   D    
C7    C9    A    
N1    Zn2   S    
C17   H18   S    
C4    C6    A    
C18   C19   S    
C15   O2    D    
C19   H7    S    
O10   Zn1   S    
O13   Zn1   S    
C28   H12   S    
C22   C23   T    
C16   C17   S    
N2    Zn1   S    
C6    C8    A    
C24   O12   A    
C25   O11   A    
C13   C20   S    
C1    O1    A    
C11   C21   S    
C7    C14   S    
C21   H10   S    
C4    H1    S    
C20   O5    D    
C3    C5    A    
C19   H6    S    
