data_mof_unit_44721.cif
_audit_creation_date              2012-12-10T18:58:45-0500
_audit_creation_method            fapswitch 2.2
_symmetry_space_group_name_H-M    P1
_symmetry_Int_Tables_number       1
_space_group_crystal_system       triclinic
_cell_length_a                    12.98565
_cell_length_b                    10.839936
_cell_length_c                    9.581233
_cell_angle_alpha                 91.740679
_cell_angle_beta                  96.11475
_cell_angle_gamma                 91.37337
_cell_volume                      1339.89467835

loop_
_atom_site_label
_atom_site_type_symbol
_atom_type_description
_atom_site_fract_x
_atom_site_fract_y
_atom_site_fract_z
_atom_type_partial_charge
C1    C     C_R   0.494023 0.262155 0.497291 0.814714
C2    C     C_R   0.027520 0.480316 0.561497 0.092967
C3    C     C_R   0.973649 0.528071 0.439599 0.133926
C4    C     C_R   0.866480 0.537781 0.432729 -0.221982
C5    C     C_R   0.866431 0.450414 0.662537 -0.138765
C6    C     C_R   0.973690 0.442882 0.672763 -0.181591
C7    C     C_R   0.479063 0.066668 0.618818 0.006240
C8    C     C_R   0.477360 0.128436 0.493193 -0.205694
C9    C     C_R   0.451410 0.056328 0.368082 0.464911
C10   C     C_R   0.461962 0.928101 0.372840 -0.271446
C11   C     C_R   0.477035 0.869409 0.502257 -0.222951
C12   C     C_R   0.300768 0.500783 0.473862 0.811910
C13   C     C_R   0.466956 0.940999 0.624732 0.035570
C14   C     C_3   0.518464 0.944161 0.774196 0.293724
C15   C     C_3   0.541322 0.081493 0.757628 -0.396520
C16   C     C_R   0.570019 0.571927 0.085974 0.098732
C17   C     C_R   0.423197 0.440678 0.058667 0.479802
C18   C     C_R   0.423863 0.441146 0.911129 -0.084383
C19   C     C_R   0.570219 0.571283 0.938895 0.092179
C20   C     C_3   0.685264 0.563754 0.949825 0.256914
C21   C     C_3   0.685228 0.566304 0.108309 -0.483459
C22   C     C_R   0.495054 0.737452 0.501586 0.833021
C23   C     C_R   0.699450 0.499840 0.526400 0.822457
C24   C     C_R   0.812399 0.497131 0.541974 -0.077507
C25   C     C_R   0.188374 0.506375 0.459270 -0.081934
C26   C     C_R   0.027546 0.564082 0.326719 0.388340
C27   C     C_R   0.135331 0.552092 0.337472 -0.287421
C28   C     C_R   0.134349 0.470224 0.570457 -0.277698
Cu1   Cu    Cu3+1 0.499990 0.499980 0.640670 0.933544
Cu2   Cu    Cu3+1 0.500010 0.500020 0.359330 0.955756
H1    H     H_    0.824848 0.577075 0.342373 0.191366
H2    H     H_    0.588699 0.887716 0.793401 0.089323
H3    H     H_    0.504872 0.144232 0.831011 0.232065
H4    H     H_    0.624373 0.102770 0.747719 0.143761
H5    H     H_    0.363904 0.390387 0.844304 0.160098
H6    H     H_    0.712184 0.475535 0.906658 0.140265
H7    H     H_    0.712220 0.478550 0.154868 0.194720
H8    H     H_    0.720287 0.652288 0.161187 0.208287
H9    H     H_    0.825809 0.416939 0.747205 0.145904
H10   H     H_    0.014315 0.406008 0.766457 0.145709
H11   H     H_    0.177912 0.580709 0.252092 0.164008
H12   H     H_    0.175468 0.433722 0.664133 0.159562
H13   H     H_    0.456731 0.875200 0.274479 0.182461
N1    N     N_R   0.500660 0.500930 0.148010 -0.223805
N2    N     N_R   0.500660 0.500890 0.852110 -0.243096
O1    O     O_R   0.500000 0.319640 0.618810 -0.584213
O2    O     O_R   0.500010 0.319680 0.381230 -0.568618
O3    O     O_R   0.348990 0.499960 0.599490 -0.602701
O4    O     O_R   0.349000 0.500000 0.361910 -0.587444
O5    O     O_R   0.499990 0.680320 0.618770 -0.592867
O6    O     O_R   0.500000 0.680360 0.381190 -0.579078
O7    O     O_R   0.651000 0.500000 0.638090 -0.561672
O8    O     O_R   0.651010 0.500040 0.400510 -0.587469
O9    O     O_3   0.342979 0.377200 0.107587 -0.769796
H14   H     H_    0.369094 0.346944 0.199649 0.375174
O10   O     O_3   0.733885 0.668319 0.899207 -0.692507
H15   H     H_    0.702932 0.743596 0.936994 0.320155
O11   O     O_3   0.973939 0.610159 0.207915 -0.742337
H16   H     H_    0.023527 0.630651 0.139624 0.328206
O12   O     O_3   0.420192 0.107396 0.240574 -0.590198
C29   C     C_3   0.310015 0.108154 0.220510 0.073098
H17   H     H_    0.288173 0.160702 0.125022 0.219513
H18   H     H_    0.278016 0.157401 0.309539 0.115915
C30   C     C_3   0.258373 0.978877 0.193625 -0.410244
H19   H     H_    0.300141 0.925374 0.118091 0.243943
H20   H     H_    0.260887 0.928950 0.293389 0.212376
C31   C     C_3   0.145000 0.986446 0.134062 -0.875200
H21   H     H_    0.101262 0.039993 0.207726 0.261206
H22   H     H_    0.109934 0.891871 0.118862 0.262904
H23   H     H_    0.138786 0.031243 0.030867 0.255344
O13   O     O_3   0.447509 0.935045 0.876611 -0.585930
C32   C     C_3   0.404703 0.815030 0.884232 0.067371
H24   H     H_    0.407766 0.793094 0.997046 0.146609
H25   H     H_    0.448500 0.742994 0.835286 0.168675
C33   C     C_3   0.291652 0.810966 0.819006 -0.335050
H26   H     H_    0.251395 0.892928 0.856618 0.236114
H27   H     H_    0.288963 0.813747 0.702838 0.213671
C34   C     C_3   0.234125 0.694615 0.857563 -0.894730
H28   H     H_    0.271737 0.611375 0.819180 0.272649
H29   H     H_    0.152826 0.694492 0.807968 0.264654
H30   H     H_    0.233439 0.691249 0.973275 0.248496

loop_
_geom_bond_atom_site_label_1
_geom_bond_atom_site_label_2
_ccdc_geom_bond_type
Cu2   O6    S    
C16   C21   S    
C1    C8    S    
C14   O13   S    
C19   C20   S    
C20   O10   S    
C12   O4    A    
C7    C8    A    
C25   C28   A    
C26   C27   A    
C5    C6    A    
C4    C24   A    
C34   H29   S    
C1    O1    A    
O10   H15   S    
C29   H18   S    
C21   H8    S    
C8    C9    A    
C23   C24   S    
C9    C10   A    
C16   N1    A    
C15   H4    S    
C12   O3    A    
C22   O5    A    
C7    C15   S    
C13   C14   S    
Cu2   N1    S    
C2    C6    A    
C32   C33   S    
C23   O8    A    
Cu1   O5    S    
Cu2   O8    S    
Cu1   O3    S    
C31   H21   S    
C30   C31   S    
Cu2   O2    S    
C32   H25   S    
C34   H28   S    
C1    O2    A    
O11   H16   S    
Cu1   N2    S    
O12   C29   S    
C31   H22   S    
C30   H20   S    
C29   C30   S    
C33   H26   S    
Cu1   Cu2   S    
C33   H27   S    
C27   H11   S    
C17   C18   A    
C26   O11   S    
Cu2   O4    S    
C5    H9    S    
C6    H10   S    
C3    C4    A    
C18   N2    A    
C18   H5    S    
O9    H14   S    
C10   H13   S    
C3    C26   A    
C14   H2    S    
C32   H24   S    
C19   N2    A    
C25   C27   A    
Cu1   O1    S    
C11   C22   S    
C12   C25   S    
C9    O12   S    
C30   H19   S    
C31   H23   S    
C2    C3    A    
C17   N1    A    
O13   C32   S    
C11   C13   A    
C34   H30   S    
C23   O7    A    
C5    C24   A    
C16   C19   A    
C28   H12   S    
C29   H17   S    
C33   C34   S    
C4    H1    S    
C10   C11   A    
C20   H6    S    
C7    C13   A    
C21   H7    S    
C20   C21   S    
C14   C15   S    
C2    C28   A    
C17   O9    S    
C15   H3    S    
C22   O6    A    
Cu1   O7    S    
