data_mof_unit_51021.cif
_audit_creation_date              2012-12-10T17:18:55-0500
_audit_creation_method            fapswitch 2.2
_symmetry_space_group_name_H-M    P1
_symmetry_Int_Tables_number       1
_space_group_crystal_system       triclinic
_cell_length_a                    10.287199
_cell_length_b                    10.773988
_cell_length_c                    13.458098
_cell_angle_alpha                 91.512145
_cell_angle_beta                  99.318134
_cell_angle_gamma                 95.336657
_cell_volume                      1464.24947912

loop_
_atom_site_label
_atom_site_type_symbol
_atom_type_description
_atom_site_fract_x
_atom_site_fract_y
_atom_site_fract_z
_atom_type_partial_charge
C1    C     C_R   0.054258 0.732684 0.497692 0.945764
C2    C     C_2   0.026117 0.069047 0.541722 -0.143636
C3    C     C_2   0.429463 0.512386 0.505478 -0.110255
C4    C     C_2   0.570369 0.489990 0.492120 -0.106056
C5    C     C_R   0.092440 0.514903 0.686807 0.859595
C6    C     C_R   0.907560 0.485316 0.313225 0.867517
C7    C     C_R   0.140651 0.530163 0.796391 -0.117926
C8    C     C_R   0.859029 0.470390 0.203731 -0.121220
C9    C     C_R   0.150205 0.627714 0.962307 -0.171616
C10   C     C_R   0.848335 0.372457 0.037919 -0.171811
C11   C     C_R   0.077625 0.595258 0.865723 0.073703
C12   C     C_R   0.948379 0.267695 0.509011 0.945282
C13   C     C_R   0.921504 0.405034 0.134263 0.072400
C14   C     C_R   0.262028 0.485184 0.829600 -0.266921
C15   C     C_R   0.737563 0.515537 0.170914 -0.266119
C16   C     C_R   0.332260 0.513920 0.926303 0.058684
C17   C     C_R   0.666312 0.486034 0.074684 0.058121
C18   C     C_R   0.279390 0.594446 0.990583 0.034828
C19   C     C_R   0.718894 0.405424 0.010227 0.034678
C20   C     C_R   0.458984 0.473021 0.956543 0.022738
C21   C     C_R   0.539152 0.526478 0.044940 0.022353
C22   C     C_3   0.346199 0.721239 0.241186 0.085496
C23   C     C_R   0.489916 0.618599 0.101242 -0.361530
C24   C     C_3   0.251756 0.784607 0.296627 -0.799368
C25   C     C_3   0.649449 0.278697 0.759555 0.079515
C26   C     C_3   0.745504 0.219582 0.703135 -0.788813
C27   C     C_3   0.060421 0.365388 0.164825 -0.398227
C28   C     C_3   0.121328 0.303286 0.081320 -0.384385
C29   C     C_3   0.264683 0.279527 0.118794 -0.865392
C30   C     C_3   0.938808 0.634931 0.834824 -0.398581
C31   C     C_3   0.877044 0.696018 0.918342 -0.385720
C32   C     C_3   0.733452 0.718907 0.880762 -0.864456
C33   C     C_3   0.669478 0.664761 0.600600 -0.208552
C34   C     C_R   0.507777 0.380506 0.900480 -0.362034
C35   C     C_3   0.629999 0.774467 0.535135 -0.364971
C36   C     C_3   0.624016 0.890898 0.600521 -0.957914
C37   C     C_3   0.330394 0.334682 0.400034 -0.203521
C38   C     C_3   0.375458 0.227224 0.466019 -0.355379
C39   C     C_3   0.354680 0.103799 0.404867 -0.956488
C40   C     C_R   0.357803 0.645342 0.079910 0.460421
C41   C     C_R   0.639979 0.354170 0.921274 0.462676
C42   C     C_2   0.089613 0.865768 0.509319 -0.390517
C43   C     C_2   0.922984 0.135996 0.523589 -0.394377
C44   C     C_2   0.004536 0.936126 0.542809 -0.154908
H1    H     H_    0.694464 0.565794 0.225453 0.163711
H2    H     H_    0.182181 0.906458 0.489840 0.158220
H3    H     H_    0.585143 0.415802 0.440692 0.157126
H4    H     H_    0.414507 0.588796 0.554778 0.161179
H5    H     H_    0.447090 0.768789 0.267082 0.145515
H6    H     H_    0.342945 0.621410 0.261724 0.133490
H7    H     H_    0.152062 0.731853 0.281577 0.251090
H8    H     H_    0.290395 0.788234 0.378577 0.213864
H9    H     H_    0.243891 0.881289 0.271442 0.259963
H10   H     H_    0.648625 0.378402 0.739037 0.132814
H11   H     H_    0.549805 0.228111 0.734476 0.147078
H12   H     H_    0.305909 0.435572 0.775129 0.162813
H13   H     H_    0.757603 0.123361 0.727980 0.257661
H14   H     H_    0.705656 0.215633 0.621373 0.211848
H15   H     H_    0.843464 0.275530 0.717684 0.252760
H16   H     H_    0.325329 0.368347 0.145688 0.253331
H17   H     H_    0.269496 0.213748 0.181135 0.261376
H18   H     H_    0.306865 0.237891 0.056229 0.266876
H19   H     H_    0.063899 0.212274 0.056055 0.231684
H20   H     H_    0.119441 0.364452 0.016094 0.239694
H21   H     H_    0.127441 0.450058 0.193784 0.223923
H22   H     H_    0.057035 0.298547 0.225931 0.207402
H23   H     H_    0.109053 0.683391 0.015039 0.186419
H24   H     H_    0.728280 0.785163 0.818767 0.261570
H25   H     H_    0.673507 0.629883 0.853405 0.253198
H26   H     H_    0.690708 0.759627 0.943409 0.267053
H27   H     H_    0.879152 0.634481 0.983346 0.240157
H28   H     H_    0.933782 0.787231 0.943988 0.231608
H29   H     H_    0.942835 0.702417 0.774235 0.205322
H30   H     H_    0.871998 0.550396 0.805183 0.225052
H31   H     H_    0.545258 0.874619 0.647583 0.275679
H32   H     H_    0.720495 0.915575 0.650366 0.258728
H33   H     H_    0.601580 0.970311 0.551845 0.259192
H34   H     H_    0.889181 0.316802 0.984990 0.186528
H35   H     H_    0.703150 0.794873 0.484036 0.235526
H36   H     H_    0.531987 0.751519 0.487078 0.209656
H37   H     H_    0.602421 0.644941 0.656419 0.145776
H38   H     H_    0.768858 0.691807 0.644786 0.197604
H39   H     H_    0.248071 0.081021 0.373798 0.266716
H40   H     H_    0.412542 0.109288 0.341958 0.273653
H41   H     H_    0.388345 0.028001 0.454018 0.257711
H42   H     H_    0.481656 0.244699 0.499251 0.205048
H43   H     H_    0.319123 0.219592 0.529509 0.225126
H44   H     H_    0.229910 0.305832 0.358269 0.207942
H45   H     H_    0.553874 0.674586 0.160056 0.146778
H46   H     H_    0.394418 0.354393 0.342157 0.138081
H47   H     H_    0.443452 0.324259 0.841968 0.146135
H48   H     H_    0.127138 0.110833 0.547526 0.186452
H49   H     H_    0.912134 0.896248 0.563126 0.191108
H50   H     H_    0.821919 0.093238 0.517325 0.158217
N1    N     N_2   0.322180 0.446120 0.460900 -0.095782
N2    N     N_2   0.677820 0.553880 0.539100 -0.092883
O1    O     O_R   0.935190 0.693030 0.507870 -0.615805
O2    O     O_3   0.689327 0.265781 0.863997 -0.622496
O3    O     O_R   0.064810 0.306970 0.492130 -0.611369
O4    O     O_R   0.142080 0.658430 0.482770 -0.614566
O5    O     O_R   0.857920 0.341570 0.517230 -0.615836
O6    O     O_R   0.969700 0.527180 0.651960 -0.630965
O7    O     O_R   0.030300 0.472820 0.348040 -0.627951
O8    O     O_R   0.176600 0.492580 0.626860 -0.609207
O9    O     O_R   0.823400 0.507420 0.373140 -0.606238
O10   O     O_3   0.308504 0.734477 0.136555 -0.622507
Zn1   Zn    Zn3+2 0.861850 0.523100 0.516760 0.908007
Zn2   Zn    Zn3+2 0.138150 0.476900 0.483240 0.909070

loop_
_geom_bond_atom_site_label_1
_geom_bond_atom_site_label_2
_ccdc_geom_bond_type
O5    Zn1   S    
C14   H12   S    
C24   H8    S    
C8    C13   A    
C3    H4    S    
C37   H44   S    
C35   C36   S    
C10   H34   S    
C7    C11   A    
O3    Zn2   S    
O9    Zn1   S    
C37   H46   S    
C38   H42   S    
C28   C29   S    
C39   H40   S    
C12   C43   S    
C36   H33   S    
C30   C31   S    
C30   H30   S    
C23   C40   A    
C35   H36   S    
C43   H50   S    
C37   N1    S    
C42   H2    S    
C18   C40   A    
C34   H47   S    
C12   O3    A    
C44   H49   S    
C36   H32   S    
C17   C19   A    
C5    O6    A    
C7    C14   A    
C11   C30   S    
C2    C44   S    
C23   H45   S    
O7    Zn2   S    
C26   H15   S    
C10   C19   A    
C22   H6    S    
C20   C34   A    
C24   H7    S    
C31   H27   S    
C5    O8    A    
C4    N2    D    
C34   C41   A    
C42   C44   D    
C1    O4    A    
C29   H17   S    
O4    Zn2   S    
C25   H10   S    
C1    O1    A    
C5    C7    S    
C30   H29   S    
C6    C8    S    
C24   H9    S    
C22   O10   S    
C17   C21   A    
C9    H23   S    
C37   C38   S    
C27   H21   S    
C36   H31   S    
C26   H14   S    
C9    C18   A    
C31   C32   S    
C29   H16   S    
C2    C43   D    
C16   C20   A    
O6    Zn1   S    
C6    O7    A    
C2    H48   S    
C9    C11   A    
C22   H5    S    
C28   H20   S    
C31   H28   S    
N2    Zn1   S    
C8    C15   A    
C21   C23   A    
C14   C16   A    
C15   H1    S    
C3    C4    S    
C33   N2    S    
O8    Zn2   S    
C40   O10   S    
C33   H38   S    
C15   C17   A    
C29   H18   S    
C25   H11   S    
C10   C13   A    
C32   H26   S    
C32   H25   S    
C32   H24   S    
C38   H43   S    
C25   C26   S    
C39   H39   S    
C12   O5    A    
C27   H22   S    
C38   C39   S    
C35   H35   S    
C33   C35   S    
C6    O9    A    
C22   C24   S    
C26   H13   S    
N1    Zn2   S    
O1    Zn1   S    
C28   H19   S    
C1    C42   S    
C20   C21   A    
C16   C18   A    
C25   O2    S    
C27   C28   S    
C39   H41   S    
C41   O2    S    
C13   C27   S    
C3    N1    D    
C33   H37   S    
C19   C41   A    
C4    H3    S    
