data_mof_unit_35937.cif
_audit_creation_date              2012-12-10T17:43:17-0500
_audit_creation_method            fapswitch 2.2
_symmetry_space_group_name_H-M    P1
_symmetry_Int_Tables_number       1
_space_group_crystal_system       triclinic
_cell_length_a                    14.944711
_cell_length_b                    13.703061
_cell_length_c                    10.815054
_cell_angle_alpha                 90.00066
_cell_angle_beta                  86.646505
_cell_angle_gamma                 90.051301
_cell_volume                      2211.00295099

loop_
_atom_site_label
_atom_site_type_symbol
_atom_type_description
_atom_site_fract_x
_atom_site_fract_y
_atom_site_fract_z
_atom_type_partial_charge
C1    C     C_R   0.328464 0.499715 0.502671 0.743153
C2    C     C_R   0.671532 0.499813 0.497123 0.743391
C3    C     C_R   0.953137 0.463513 0.498587 -0.017018
C4    C     C_R   0.046744 0.463382 0.500879 -0.017098
C5    C     C_R   0.912566 0.463278 0.384204 0.080601
C6    C     C_R   0.087355 0.461774 0.615192 0.081018
C7    C     C_R   0.939742 0.425727 0.716958 0.226381
C8    C     C_R   0.059989 0.427532 0.282072 0.229435
C9    C     C_R   0.034716 0.426656 0.719995 -0.155602
C10   C     C_R   0.965052 0.428869 0.278980 -0.154676
C11   C     C_R   0.442109 0.792643 0.579211 0.112982
C12   C     C_R   0.559439 0.207341 0.422995 0.120942
C13   C     C_R   0.557937 0.792749 0.420852 0.114041
C14   C     C_R   0.440643 0.207220 0.577110 0.121273
C15   C     C_R   0.561905 0.896146 0.420533 -0.013001
C16   C     C_R   0.439904 0.103788 0.582107 -0.010946
C17   C     C_R   0.438220 0.896035 0.579635 -0.013152
C18   C     C_R   0.560282 0.103904 0.418111 -0.011240
C19   C     C_R   0.500066 0.948160 0.500083 0.045419
C20   C     C_R   0.500076 0.051797 0.500087 0.046150
C21   C     C_R   0.624037 0.948251 0.340840 -0.069696
C22   C     C_R   0.379181 0.051587 0.663857 -0.078520
C23   C     C_R   0.376214 0.948032 0.659511 -0.070063
C24   C     C_R   0.621164 0.051809 0.336583 -0.079062
C25   C     C_R   0.498361 0.500027 0.259382 0.808267
C26   C     C_R   0.501677 0.500028 0.740620 0.808508
C27   C     C_3   0.457894 0.580303 0.042346 -0.038452
C28   C     C_3   0.542172 0.420079 0.957637 -0.060686
C29   C     C_3   0.544155 0.579165 0.957576 -0.041068
C30   C     C_3   0.455983 0.421225 0.042473 -0.063798
C31   C     C_3   0.416072 0.501319 0.961167 -0.288308
C32   C     C_3   0.584037 0.499015 0.038872 -0.286292
C33   C     C_3   0.503193 0.500165 0.876782 -0.027630
C34   C     C_3   0.496902 0.500170 0.123230 -0.027557
C35   C     C_R   0.820251 0.487568 0.382794 -0.019069
C36   C     C_R   0.179810 0.485601 0.616803 -0.018265
C37   C     C_R   0.769210 0.496681 0.496111 -0.195117
C38   C     C_R   0.230771 0.496288 0.503617 -0.194949
C39   C     C_R   0.809694 0.489913 0.609586 -0.031078
C40   C     C_R   0.190200 0.490775 0.390075 -0.032268
C41   C     C_R   0.900778 0.463735 0.610850 0.047742
C42   C     C_R   0.099073 0.464621 0.388593 0.047836
Cu1   Cu    Cu3+1 0.500000 0.597420 0.500000 1.019635
Cu2   Cu    Cu3+1 0.500000 0.402580 0.500000 1.030571
H1    H     H_    0.345886 0.502154 0.933759 0.197584
H2    H     H_    0.654170 0.497598 0.066532 0.196757
H3    H     H_    0.399769 0.749459 0.642202 0.166234
H4    H     H_    0.606342 0.250574 0.366645 0.173588
H5    H     H_    0.600269 0.749645 0.357851 0.165674
H6    H     H_    0.393722 0.250343 0.633470 0.172924
N1    N     N_R   0.500000 0.743810 0.500000 -0.205681
N2    N     N_R   0.500000 0.256190 0.500000 -0.208411
O1    O     O_R   0.370260 0.582280 0.500030 -0.564309
O2    O     O_R   0.629740 0.417720 0.499970 -0.564712
O3    O     O_R   0.629740 0.582280 0.499970 -0.564365
O4    O     O_R   0.370260 0.417720 0.500030 -0.564962
O5    O     O_R   0.499980 0.582260 0.316850 -0.566250
O6    O     O_R   0.500020 0.417740 0.683150 -0.552777
O7    O     O_R   0.500020 0.582260 0.683150 -0.565771
O8    O     O_R   0.499980 0.417740 0.316850 -0.551968
C43   C     C_2   0.408068 0.672114 0.077841 0.401702
H7    H     H_    0.386380 0.720026 0.005600 0.084540
O9    O     O_2   0.391332 0.693605 0.186095 -0.501845
C44   C     C_2   0.591990 0.328527 0.921344 0.467299
H8    H     H_    0.616673 0.282171 0.992916 0.152656
O10   O     O_2   0.605323 0.305493 0.813013 -0.477680
C45   C     C_2   0.595889 0.669766 0.921778 0.402066
H9    H     H_    0.620095 0.716261 0.993827 0.086847
O11   O     O_2   0.611207 0.691941 0.813446 -0.501495
C46   C     C_2   0.404098 0.330994 0.079042 0.464652
H10   H     H_    0.375739 0.286979 0.007914 0.155740
O12   O     O_2   0.393287 0.306364 0.187150 -0.478218
C47   C     C_2   0.778351 0.517601 0.267292 0.473723
H11   H     H_    0.707046 0.508039 0.258999 0.017446
O13   O     O_2   0.822112 0.558464 0.183579 -0.529031
C48   C     C_2   0.222092 0.513357 0.732813 0.472093
H12   H     H_    0.292979 0.501036 0.741534 0.018851
O14   O     O_2   0.179211 0.555141 0.816520 -0.528947
C49   C     C_2   0.759509 0.524975 0.723309 0.562650
H13   H     H_    0.690354 0.503704 0.743171 0.072638
O15   O     O_2   0.794394 0.582046 0.792598 -0.509263
C50   C     C_2   0.240458 0.526517 0.276636 0.564399
H14   H     H_    0.309845 0.506132 0.257176 0.070764
O16   O     O_2   0.205345 0.583135 0.207089 -0.507382
S1    S     S_3+6 0.871301 0.351450 0.821923 0.021113
O17   O     O_2   0.796376 0.307898 0.753239 -0.219946
O18   O     O_2   0.923044 0.268788 0.874571 -0.238196
O19   O     O_3   0.826225 0.419435 0.938884 -0.505353
H15   H     H_    0.869345 0.473370 0.948808 0.352864
S2    S     S_3+6 0.128024 0.353555 0.176522 0.018620
O20   O     O_2   0.203270 0.310046 0.244439 -0.221339
O21   O     O_2   0.075988 0.270854 0.124249 -0.240174
O22   O     O_3   0.172480 0.421865 0.059383 -0.507246
H16   H     H_    0.128742 0.475076 0.049164 0.353953
C51   C     C_2   0.077592 0.377119 0.822514 0.588444
H17   H     H_    0.047523 0.382300 0.915184 0.097865
O23   O     O_2   0.144356 0.326738 0.803284 -0.493497
C52   C     C_2   0.922000 0.380261 0.175880 0.589762
H18   H     H_    0.952399 0.385629 0.083392 0.093261
O24   O     O_2   0.854715 0.330448 0.194397 -0.491355
C53   C     C_2   0.691870 0.895959 0.259131 0.324208
H19   H     H_    0.703244 0.917638 0.162976 0.100743
O25   O     O_2   0.738688 0.832015 0.300089 -0.493454
C54   C     C_2   0.316468 0.103735 0.753140 0.369020
H20   H     H_    0.246567 0.082047 0.763332 0.128536
O26   O     O_2   0.343302 0.167578 0.820436 -0.535018
C55   C     C_2   0.308456 0.895627 0.741355 0.324710
H21   H     H_    0.297270 0.917205 0.837565 0.100598
O27   O     O_2   0.261497 0.831690 0.700461 -0.492913
C56   C     C_2   0.684270 0.104054 0.247797 0.369393
H22   H     H_    0.754154 0.082378 0.238094 0.128241
O28   O     O_2   0.657816 0.167953 0.180363 -0.533331

loop_
_geom_bond_atom_site_label_1
_geom_bond_atom_site_label_2
_ccdc_geom_bond_type
O22   H16   S    
C27   C29   S    
C55   O27   D    
C47   H11   S    
C11   H3    S    
C19   C20   A    
C12   H4    S    
C6    C9    A    
C54   O26   D    
C39   C41   A    
C7    S1    S    
S1    O17   D    
C15   C19   A    
C53   H19   S    
C18   C24   A    
C35   C37   A    
C1    O4    A    
C48   O14   D    
C29   C32   S    
C2    O3    A    
C3    C41   A    
C30   C31   S    
C29   C33   S    
C22   C54   S    
C10   C52   S    
C43   O9    D    
C1    O1    A    
C56   H22   S    
C27   C43   S    
C12   N2    A    
C13   N1    A    
Cu1   O1    S    
C14   N2    A    
C51   H17   S    
Cu2   O6    S    
C55   H21   S    
C31   C33   S    
C46   H10   S    
C25   O8    A    
C36   C48   S    
C26   O7    A    
C9    C51   S    
Cu1   O7    S    
C25   C34   S    
C21   C53   S    
Cu2   N2    S    
C40   C42   A    
C53   O25   D    
C29   C45   S    
C47   O13   D    
C35   C47   S    
C25   O5    A    
C54   H20   S    
C30   C46   S    
S1    O18   D    
C27   C34   S    
C30   C34   S    
C27   C31   S    
C45   H9    S    
C40   C50   S    
C28   C32   S    
C24   C56   S    
C48   H12   S    
C4    C6    A    
C2    O2    A    
C49   O15   D    
C45   O11   D    
C39   C49   S    
Cu1   Cu2   S    
Cu2   O4    S    
C26   C33   S    
S2    O21   D    
C16   C20   A    
C23   C55   S    
C17   C23   A    
C26   O6    A    
C44   O10   D    
C1    C38   S    
C13   H5    S    
C28   C44   S    
Cu1   O3    S    
C28   C33   S    
C52   H18   S    
C52   O24   D    
C13   C15   A    
C14   C16   A    
C8    S2    S    
C3    C4    A    
S2    O22   S    
S1    O19   S    
C7    C9    A    
C11   C17   A    
C16   C22   A    
C32   H2    S    
C8    C42   A    
C3    C5    A    
C51   O23   D    
C50   O16   D    
C44   H8    S    
C28   C30   S    
C5    C10   A    
C37   C39   A    
C38   C40   A    
C2    C37   S    
Cu1   N1    S    
S2    O20   D    
C14   H6    S    
C4    C42   A    
Cu2   O8    S    
C5    C35   A    
C36   C38   A    
C17   C19   A    
C6    C36   A    
C18   C20   A    
C7    C41   A    
C43   H7    S    
C56   O28   D    
C11   N1    A    
Cu1   O5    S    
C49   H13   S    
Cu2   O2    S    
C15   C21   A    
O19   H15   S    
C8    C10   A    
C50   H14   S    
C31   H1    S    
C21   C24   A    
C12   C18   A    
C22   C23   A    
C46   O12   D    
C32   C34   S    
