data_mof_unit_13422.cif
_audit_creation_date              2012-12-11T15:37:28-0500
_audit_creation_method            fapswitch 2.2
_symmetry_space_group_name_H-M    P1
_symmetry_Int_Tables_number       1
_space_group_crystal_system       triclinic
_cell_length_a                    17.492435
_cell_length_b                    24.757101
_cell_length_c                    14.769294
_cell_angle_alpha                 90.006391
_cell_angle_beta                  125.604165
_cell_angle_gamma                 89.861717
_cell_volume                      5200.31609181

loop_
_atom_site_label
_atom_site_type_symbol
_atom_type_description
_atom_site_fract_x
_atom_site_fract_y
_atom_site_fract_z
_atom_type_partial_charge
C1    C     C_R   0.813848 0.630163 0.911445 0.205953
C2    C     C_3   0.603334 0.499642 0.554330 -0.108581
C3    C     C_3   0.039087 0.045960 0.478848 -0.260267
C4    C     C_2   0.945988 0.355240 0.209115 0.508847
C5    C     C_2   0.002489 0.673394 0.796751 0.503684
C6    C     C_2   0.989136 0.327947 0.790830 0.562130
C7    C     C_2   0.962847 0.655383 0.208329 0.533630
C8    C     C_2   0.445979 0.855248 0.209116 0.508881
C9    C     C_2   0.502483 0.173394 0.796751 0.503691
C10   C     C_2   0.489145 0.827950 0.790826 0.562133
C11   C     C_2   0.462844 0.155383 0.208329 0.533642
C12   C     C_2   0.781369 0.413017 0.642221 0.590381
C13   C     C_3   0.917819 0.000873 0.442221 -0.108133
C14   C     C_2   0.277637 0.596645 0.349923 0.584206
C15   C     C_2   0.310984 0.406230 0.290992 0.535059
C16   C     C_2   0.777153 0.583146 0.632412 0.655644
C17   C     C_2   0.281372 0.913017 0.642223 0.590369
C18   C     C_2   0.777638 0.096649 0.349911 0.584196
C19   C     C_2   0.810926 0.906202 0.291117 0.535119
C20   C     C_2   0.277148 0.083145 0.632406 0.655644
C21   C     C_2   0.455455 0.406144 0.554234 0.608294
C22   C     C_2   0.565194 0.597632 0.450593 0.574652
C23   C     C_2   0.955466 0.906148 0.554266 0.608244
C24   C     C_3   0.103334 0.999638 0.554329 -0.108675
C25   C     C_2   0.065188 0.097615 0.450553 0.574700
C26   C     C_R   0.687525 0.318651 0.001085 0.277861
C27   C     C_R   0.263735 0.718130 0.001621 0.240118
C28   C     C_R   0.241528 0.282816 0.990954 0.262321
C29   C     C_R   0.694425 0.677659 0.014609 0.283373
C30   C     C_R   0.187522 0.818650 0.001081 0.277861
C31   C     C_R   0.763733 0.218129 0.001623 0.240112
C32   C     C_R   0.741563 0.782818 0.991002 0.262317
C33   C     C_R   0.143599 0.346229 0.089234 0.257056
C34   C     C_R   0.194447 0.177657 0.014656 0.283404
C35   C     C_R   0.141109 0.771448 0.991362 -0.208166
C36   C     C_R   0.809167 0.264918 0.010104 -0.174954
C37   C     C_R   0.795229 0.739831 0.000268 -0.200376
C38   C     C_R   0.141338 0.221043 0.007797 -0.142193
C39   C     C_R   0.641109 0.271450 0.991363 -0.208165
C40   C     C_R   0.309168 0.764919 0.010105 -0.174944
C41   C     C_R   0.295199 0.239832 0.000223 -0.200400
C42   C     C_R   0.641319 0.721048 0.007744 -0.142142
C43   C     C_R   0.180226 0.721776 0.993164 -0.023769
C44   C     C_R   0.156502 0.649948 0.090030 0.182525
C45   C     C_R   0.771070 0.314769 0.009273 -0.033980
C46   C     C_R   0.770968 0.687783 0.010481 0.041391
C47   C     C_R   0.164982 0.273006 0.995574 0.038849
C48   C     C_R   0.680223 0.221776 0.993164 -0.023765
C49   C     C_R   0.271070 0.814770 0.009272 -0.033977
C50   C     C_R   0.270966 0.187784 0.010479 0.041393
C51   C     C_R   0.664992 0.773010 0.995569 0.038861
C52   C     C_R   0.113473 0.450831 0.635519 -0.092564
C53   C     C_R   0.120435 0.548518 0.546800 -0.078565
C54   C     C_R   0.117294 0.450825 0.544437 -0.110753
C55   C     C_R   0.810416 0.373852 0.910471 0.212187
C56   C     C_R   0.116470 0.548479 0.637916 -0.109358
C57   C     C_R   0.613474 0.950832 0.635519 -0.092570
C58   C     C_R   0.620435 0.048519 0.546799 -0.078563
C59   C     C_R   0.617298 0.950827 0.544438 -0.110762
C60   C     C_R   0.616468 0.048480 0.637914 -0.109356
C61   C     C_R   0.110464 0.499779 0.492339 0.113996
C62   C     C_R   0.101643 0.499773 0.674020 0.115542
C63   C     C_R   0.610467 0.999780 0.492340 0.113990
C64   C     C_R   0.601642 0.999774 0.674018 0.115538
C65   C     C_R   0.905932 0.375374 0.095991 -0.047538
C66   C     C_R   0.313850 0.130166 0.911444 0.205964
C67   C     C_R   0.066264 0.646509 0.905103 -0.079408
C68   C     C_R   0.054038 0.349296 0.905153 -0.128811
C69   C     C_R   0.912082 0.630115 0.097560 -0.086254
C70   C     C_R   0.405930 0.875375 0.095990 -0.047531
C71   C     C_R   0.566261 0.146509 0.905103 -0.079411
C72   C     C_R   0.554046 0.849300 0.905149 -0.128838
C73   C     C_R   0.412081 0.130116 0.097559 -0.086242
C74   C     C_R   0.054273 0.544699 0.308619 -0.052896
C75   C     C_R   0.024921 0.455020 0.757031 -0.066767
C76   C     C_R   0.020764 0.545256 0.751913 0.035507
C77   C     C_R   0.643603 0.846229 0.089231 0.257194
C78   C     C_R   0.058575 0.455381 0.310102 -0.150612
C79   C     C_R   0.554276 0.044699 0.308619 -0.052894
C80   C     C_R   0.524921 0.955020 0.757029 -0.066775
C81   C     C_R   0.520764 0.045257 0.751912 0.035527
C82   C     C_R   0.558578 0.955381 0.310103 -0.150658
C83   C     C_R   0.754739 0.455646 0.688497 -0.089573
C84   C     C_R   0.261120 0.543390 0.302014 -0.068563
C85   C     C_R   0.264922 0.454677 0.295057 -0.026385
C86   C     C_R   0.753297 0.543756 0.687164 -0.164581
C87   C     C_R   0.254740 0.955645 0.688497 -0.089568
C88   C     C_R   0.656499 0.149949 0.090030 0.182507
C89   C     C_R   0.761123 0.043393 0.302008 -0.068549
C90   C     C_R   0.764914 0.954682 0.295072 -0.026411
C91   C     C_R   0.253296 0.043755 0.687163 -0.164551
C92   C     C_R   0.823655 0.644745 0.007853 0.013744
C93   C     C_R   0.114542 0.317980 0.995605 0.000763
C94   C     C_R   0.138941 0.672915 0.995614 -0.034150
C95   C     C_R   0.817501 0.361326 0.006020 -0.021151
C96   C     C_R   0.323656 0.144747 0.007850 0.013727
C97   C     C_R   0.614556 0.817985 0.995599 0.000703
C98   C     C_R   0.638936 0.172916 0.995614 -0.034147
C99   C     C_R   0.310415 0.873853 0.910471 0.212181
C100  C     C_R   0.317499 0.861327 0.006019 -0.021159
C101  C     C_R   0.074637 0.499977 0.374410 0.043788
C102  C     C_R   0.054909 0.500140 0.730532 0.026708
C103  C     C_R   0.574641 0.999978 0.374412 0.043795
C104  C     C_R   0.554908 0.000141 0.730530 0.026687
C105  C     C_R   0.706314 0.499444 0.624141 0.214723
C106  C     C_R   0.314843 0.498910 0.360066 0.039185
C107  C     C_R   0.206314 0.999442 0.624140 0.214715
C108  C     C_R   0.814843 0.998914 0.360069 0.039127
C109  C     C_3   0.537424 0.457153 0.467231 0.153455
C110  C     C_3   0.417819 0.500876 0.442215 -0.108157
C111  C     C_3   0.483629 0.543477 0.530280 0.111112
C112  C     C_3   0.473238 0.503912 0.390487 0.232795
C113  C     C_3   0.549015 0.497069 0.607163 0.257212
C114  C     C_3   0.037424 0.957144 0.467247 0.153569
C115  C     C_3   0.983630 0.043479 0.530268 0.111086
C116  C     C_3   0.973234 0.003897 0.390488 0.232873
C117  C     C_3   0.049018 0.997075 0.607165 0.257243
C118  C     C_3   0.482479 0.455086 0.519384 -0.267313
C119  C     C_3   0.539090 0.545970 0.478865 -0.260212
C120  C     C_3   0.982481 0.955087 0.519402 -0.267259
H1    H     H_    0.077125 0.584581 0.340829 0.127681
H2    H     H_    0.873380 0.262730 0.014890 0.176348
H3    H     H_    0.854434 0.746580 0.996243 0.167926
H4    H     H_    0.082274 0.214543 0.012092 0.177089
H5    H     H_    0.576513 0.273153 0.985642 0.177549
H6    H     H_    0.373381 0.762733 0.014891 0.176349
H7    H     H_    0.354387 0.246583 0.996162 0.167945
H8    H     H_    0.582235 0.714549 0.012002 0.177088
H9    H     H_    0.109271 0.412207 0.666330 0.134109
H10   H     H_    0.121554 0.587123 0.513512 0.147967
H11   H     H_    0.115066 0.412239 0.508785 0.141311
H12   H     H_    0.044689 0.414441 0.755074 0.087125
H13   H     H_    0.115146 0.587002 0.671408 0.127691
H14   H     H_    0.609273 0.912209 0.666331 0.134099
H15   H     H_    0.621553 0.087124 0.513510 0.147963
H16   H     H_    0.615071 0.912241 0.508788 0.141309
H17   H     H_    0.615141 0.087003 0.671404 0.127690
H18   H     H_    0.905072 0.358362 0.242699 0.048480
H19   H     H_    0.028097 0.705998 0.772037 0.061514
H20   H     H_    0.942670 0.354310 0.722054 0.005648
H21   H     H_    0.037800 0.661854 0.255266 0.068044
H22   H     H_    0.405061 0.858377 0.242694 0.048482
H23   H     H_    0.030204 0.586191 0.737509 0.096599
H24   H     H_    0.528088 0.206000 0.772037 0.061512
H25   H     H_    0.442668 0.854312 0.722053 0.005657
H26   H     H_    0.537798 0.161854 0.255269 0.068039
H27   H     H_    0.809294 0.375374 0.685924 0.007575
H28   H     H_    0.329736 0.622514 0.354464 0.040983
H29   H     H_    0.339742 0.376129 0.355837 0.028601
H30   H     H_    0.762010 0.625424 0.629413 0.091311
H31   H     H_    0.309293 0.875373 0.685924 0.007577
H32   H     H_    0.829727 0.122520 0.354437 0.040986
H33   H     H_    0.839545 0.876126 0.355942 0.028642
H34   H     H_    0.089213 0.416417 0.343831 0.164027
H35   H     H_    0.261994 0.125422 0.629393 0.091291
H36   H     H_    0.483331 0.366839 0.555196 0.057592
H37   H     H_    0.556105 0.635848 0.479119 0.051888
H38   H     H_    0.983305 0.866838 0.555178 0.057594
H39   H     H_    0.056097 0.135835 0.479059 0.051861
H40   H     H_    0.577129 0.084582 0.340829 0.127673
H41   H     H_    0.544688 0.914442 0.755070 0.087113
H42   H     H_    0.530204 0.086192 0.737510 0.096599
H43   H     H_    0.589218 0.916418 0.343833 0.164014
H44   H     H_    0.076513 0.773151 0.985639 0.177546
I1    I     I_    0.708529 0.664922 0.756039 -0.360614
I2    I     I_    0.459191 0.607993 0.608513 -0.188111
I3    I     I_    0.418265 0.513548 0.217577 -0.127353
I4    I     I_    0.610394 0.490458 0.782065 -0.222927
I5    I     I_    0.061309 0.886818 0.401829 -0.151734
I6    I     I_    0.959201 0.108005 0.608485 -0.188114
I7    I     I_    0.918242 0.013501 0.217570 -0.127407
I8    I     I_    0.110400 0.990479 0.782070 -0.222894
I9    I     I_    0.631474 0.393252 0.007325 -0.182098
I10   I     I_    0.323620 0.643643 0.000200 -0.277133
I11   I     I_    0.279977 0.360685 0.969045 -0.234055
I12   I     I_    0.178384 0.303842 0.233606 -0.269587
I13   I     I_    0.656970 0.598720 0.030679 -0.134782
I14   I     I_    0.131463 0.893251 0.007305 -0.182095
I15   I     I_    0.823619 0.143640 0.000213 -0.277172
I16   I     I_    0.780060 0.860689 0.969181 -0.234020
I17   I     I_    0.157032 0.098718 0.030788 -0.134786
I18   I     I_    0.175099 0.703480 0.214171 -0.356594
I19   I     I_    0.700066 0.340564 0.754291 -0.420592
I20   I     I_    0.208539 0.164927 0.756038 -0.360590
I21   I     I_    0.678307 0.803818 0.233535 -0.269551
I22   I     I_    0.675084 0.203482 0.214163 -0.356597
I23   I     I_    0.200063 0.840565 0.754291 -0.420585
I24   I     I_    0.561294 0.386832 0.401784 -0.151873
N1    N     N_R   0.892620 0.603790 0.941800 -0.072014
N2    N     N_R   0.047790 0.602400 0.942090 -0.058547
N3    N     N_R   0.047790 0.397600 0.942090 -0.089890
N4    N     N_R   0.952210 0.602400 0.057910 -0.093077
N5    N     N_R   0.452210 0.897600 0.057910 -0.064415
N6    N     N_R   0.547790 0.102400 0.942090 -0.058547
N7    N     N_R   0.547790 0.897600 0.942090 -0.089907
N8    N     N_R   0.452210 0.102400 0.057910 -0.093075
N9    N     N_R   0.026300 0.529110 0.206760 -0.055488
N10   N     N_R   0.973700 0.470890 0.793240 -0.070819
N11   N     N_R   0.973700 0.529110 0.793240 -0.042128
N12   N     N_R   0.107380 0.396210 0.058200 -0.060953
N13   N     N_R   0.026300 0.470890 0.206760 -0.049048
N14   N     N_R   0.526300 0.029110 0.206760 -0.055483
N15   N     N_R   0.473700 0.970890 0.793240 -0.070815
N16   N     N_R   0.473700 0.029110 0.793240 -0.042123
N17   N     N_R   0.526300 0.970890 0.206760 -0.049048
N18   N     N_R   0.818530 0.472270 0.792960 -0.076826
N19   N     N_R   0.181470 0.527730 0.207040 -0.063796
N20   N     N_R   0.181470 0.472270 0.207040 -0.055340
N21   N     N_R   0.818530 0.527730 0.792960 -0.055786
N22   N     N_R   0.318530 0.972270 0.792960 -0.076825
N23   N     N_R   0.107380 0.603790 0.058200 -0.078522
N24   N     N_R   0.681470 0.027730 0.207040 -0.063799
N25   N     N_R   0.681470 0.972270 0.207040 -0.055375
N26   N     N_R   0.318530 0.027730 0.792960 -0.055783
N27   N     N_R   0.892620 0.396210 0.941800 -0.096759
N28   N     N_R   0.392620 0.103790 0.941800 -0.072012
N29   N     N_R   0.607380 0.896210 0.058200 -0.061003
N30   N     N_R   0.607380 0.103790 0.058200 -0.078523
N31   N     N_R   0.392620 0.896210 0.941800 -0.096753
N32   N     N_R   0.952210 0.397600 0.057910 -0.064414
Ni1   Ni    Ni4+2 0.934150 0.565840 0.869060 0.287846
Ni2   Ni    Ni4+2 0.065850 0.434160 0.130940 0.275188
Ni3   Ni    Ni4+2 0.065850 0.565840 0.130940 0.248446
Ni4   Ni    Ni4+2 0.934150 0.434160 0.869060 0.221016
Ni5   Ni    Ni4+2 0.434150 0.065840 0.869060 0.287853
Ni6   Ni    Ni4+2 0.565850 0.934160 0.130940 0.275135
Ni7   Ni    Ni4+2 0.565850 0.065840 0.130940 0.248436
Ni8   Ni    Ni4+2 0.434150 0.934160 0.869060 0.221007
O1    O     O_2   0.020621 0.331110 0.261879 -0.548727
O2    O     O_2   0.236939 0.611061 0.390468 -0.559517
O3    O     O_2   0.319727 0.400188 0.215505 -0.521705
O4    O     O_2   0.808859 0.567781 0.581784 -0.507211
O5    O     O_2   0.277527 0.920736 0.557957 -0.512992
O6    O     O_2   0.736949 0.111063 0.390467 -0.559505
O7    O     O_2   0.819781 0.900107 0.215755 -0.521830
O8    O     O_2   0.308864 0.067780 0.581789 -0.507217
O9    O     O_2   0.403444 0.410468 0.583692 -0.522552
O10   O     O_2   0.597699 0.596994 0.396561 -0.481743
O11   O     O_2   0.903497 0.910477 0.583780 -0.522570
O12   O     O_2   0.920164 0.660963 0.735793 -0.586474
O13   O     O_2   0.097692 0.096965 0.396521 -0.481746
O14   O     O_2   0.987593 0.279821 0.771795 -0.519007
O15   O     O_2   0.921103 0.670190 0.247409 -0.531579
O16   O     O_2   0.520609 0.831117 0.261889 -0.548749
O17   O     O_2   0.420160 0.160960 0.735792 -0.586466
O18   O     O_2   0.487616 0.779826 0.771787 -0.519023
O19   O     O_2   0.421098 0.170190 0.247406 -0.531602
O20   O     O_2   0.777519 0.420736 0.557951 -0.512985

loop_
_geom_bond_atom_site_label_1
_geom_bond_atom_site_label_2
_ccdc_geom_bond_type
C51   C97   S    
C114  I5    S    
C21   O9    D    
N15   N16   A    
C2    C109  S    
C24   C114  S    
C39   H5    S    
C5    O12   D    
C29   C42   A    
N21   Ni1   S    
C81   H42   S    
C41   H7    S    
N28   Ni5   S    
C36   H2    S    
C117  I8    S    
C86   N21   A    
C14   C84   S    
C5    C67   S    
C77   N29   A    
N27   Ni4   S    
C110  C118  S    
C72   N7    A    
N32   Ni2   S    
C56   H13   S    
C67   N2    A    
N6    N30   A    
N19   Ni3   S    
C54   H11   S    
C24   C117  S    
N7    Ni8   S    
C80   C104  A    
C52   H9    S    
N6    Ni5   S    
C20   H35   S    
N5    Ni6   S    
C83   N18   A    
C3    C116  S    
C13   C108  S    
C55   N27   A    
C4    C65   S    
N8    N28   A    
C2    C113  S    
N1    Ni1   S    
C26   C39   A    
C57   C59   A    
C80   N15   A    
C46   C92   S    
C82   H43   S    
C8    O16   D    
C58   C60   A    
C40   C49   A    
C23   H38   S    
C14   H28   S    
C59   H16   S    
C12   O20   D    
C43   C94   S    
C77   I21   S    
C27   I10   S    
C34   I17   S    
C111  C119  S    
C33   I12   S    
N26   Ni5   S    
C110  C111  S    
N25   Ni6   S    
C26   C45   A    
C37   H3    S    
N24   Ni7   S    
C53   C61   A    
N18   Ni4   S    
C20   O8    D    
N14   N17   A    
C25   H39   S    
C67   C94   A    
C84   C106  A    
C82   C103  A    
C78   N13   A    
N9    N13   A    
N10   N11   A    
N11   Ni1   S    
N31   Ni8   S    
C81   N16   A    
C69   C92   A    
C35   C43   A    
C42   H8    S    
C60   H17   S    
C15   C85   S    
C53   C56   A    
C88   I22   S    
C66   N28   A    
N8    Ni7   S    
C40   H6    S    
C29   I13   S    
C78   C101  A    
C16   C86   S    
C112  C119  S    
C79   C103  A    
C3    C24   S    
C17   H31   S    
N13   Ni2   S    
C113  I4    S    
C115  I6    S    
C18   H32   S    
C69   N4    A    
C99   I23   S    
N15   Ni8   S    
C20   C91   S    
C9    H24   S    
C52   C54   A    
C109  C118  S    
C5    H19   S    
C89   N24   A    
C110  C112  S    
C72   C97   A    
C8    H22   S    
C109  I24   S    
C76   C102  A    
C22   C119  S    
C71   C98   A    
C34   C50   A    
N19   N20   A    
C13   C116  S    
C91   C107  A    
C3    C25   S    
N29   Ni6   S    
N18   N21   A    
N3    N12   A    
C55   C95   A    
C11   C73   S    
C109  C112  S    
C23   C120  S    
C24   C107  S    
C78   H34   S    
C71   N6    A    
C53   H10   S    
C68   N3    A    
C115  C117  S    
N22   N26   A    
C112  I3    S    
C4    H18   S    
C16   O4    D    
C61   C101  S    
C83   C105  A    
C12   C83   S    
C31   I15   S    
N1    N4    A    
N10   Ni4   S    
N2    N23   A    
C3    C115  S    
C32   C51   A    
C21   C118  S    
C38   H4    S    
C75   C102  A    
C23   O11   D    
C99   C100  A    
C74   N9    A    
C1    I1    S    
C27   C40   A    
C79   N14   A    
N23   Ni3   S    
C30   I14   S    
C36   C45   A    
C111  C113  S    
C111  I2    S    
C32   C37   A    
C9    C71   S    
C77   C97   A    
C38   C47   A    
C13   C115  S    
C74   C101  A    
C10   O18   D    
C30   C35   A    
C28   C47   A    
C63   C103  S    
C54   C61   A    
C30   C49   A    
C99   N31   A    
C1    C92   A    
C17   O5    D    
C31   C48   A    
N17   Ni6   S    
C19   H33   S    
C87   N22   A    
C56   C62   A    
C57   H14   S    
C117  C120  S    
C86   C105  A    
C19   O7    D    
C85   C106  A    
C45   C95   S    
C44   I18   S    
C41   C50   A    
C15   H29   S    
C13   C120  S    
C9    O17   D    
C75   H12   S    
C12   H27   S    
C57   C64   A    
C66   C96   A    
C106  C110  S    
C75   N10   A    
C32   I16   S    
C58   C63   A    
C64   C104  S    
C66   I20   S    
C79   H40   S    
C7    H21   S    
C47   C93   S    
C15   O3    D    
C34   C38   A    
C18   C89   S    
N22   Ni8   S    
N5    N31   A    
C68   C93   A    
N4    Ni3   S    
N9    Ni3   S    
C76   N11   A    
C33   C93   A    
C7    C69   S    
C65   N32   A    
C114  C116  S    
C2    C119  S    
C18   O6    D    
C11   H26   S    
N14   Ni7   S    
C44   C94   A    
C22   H37   S    
C25   O13   D    
C58   H15   S    
C91   N26   A    
C48   C98   S    
C42   C51   A    
C2    C105  S    
C8    C70   S    
C35   H44   S    
C26   I9    S    
C29   C46   A    
C60   C64   A    
C44   N23   A    
N12   Ni2   S    
C4    O1    D    
C70   C100  A    
C37   C46   A    
C11   O19   D    
C19   C90   S    
C52   C62   A    
N27   N32   A    
C49   C100  S    
C84   N19   A    
C50   C96   S    
C70   N5    A    
C89   C108  A    
C6    C68   S    
C21   H36   S    
C88   N30   A    
C59   C63   A    
C82   N17   A    
C28   I11   S    
C6    H20   S    
C88   C98   A    
C80   H41   S    
C14   O2    D    
N7    N29   A    
C17   C87   S    
C33   N12   A    
C10   H25   S    
C90   C108  A    
C113  C118  S    
C76   H23   S    
C27   C43   A    
C65   C95   A    
C74   H1    S    
C87   C107  A    
N24   N25   A    
C116  I7    S    
C73   N8    A    
C7    O15   D    
C55   I19   S    
C31   C36   A    
C6    O14   D    
C16   H30   S    
N30   Ni7   S    
C73   C96   A    
C62   C102  S    
N16   Ni5   S    
N20   Ni2   S    
N3    Ni4   S    
N2    Ni1   S    
C90   N25   A    
C114  C120  S    
C28   C41   A    
C85   N20   A    
C1    N1    A    
C39   C48   A    
C22   O10   D    
C81   C104  A    
C10   C72   S    
