data_mof_unit_29160.cif
_audit_creation_date              2012-12-11T14:51:48-0500
_audit_creation_method            fapswitch 2.2
_symmetry_space_group_name_H-M    P1
_symmetry_Int_Tables_number       1
_space_group_crystal_system       triclinic
_cell_length_a                    6.930197
_cell_length_b                    16.702238
_cell_length_c                    16.923291
_cell_angle_alpha                 101.396244
_cell_angle_beta                  88.548373
_cell_angle_gamma                 91.748709
_cell_volume                      1918.97996487

loop_
_atom_site_label
_atom_site_type_symbol
_atom_type_description
_atom_site_fract_x
_atom_site_fract_y
_atom_site_fract_z
_atom_type_partial_charge
O1    O     O_R   0.506340 0.439070 0.579550 -0.540758
O2    O     O_R   0.170010 0.404890 0.412100 -0.526659
O3    O     O_R   0.005010 0.560930 0.420450 -0.548441
C1    C     C_R   0.339838 0.381354 0.383423 0.726799
O4    O     O_R   0.176280 0.429360 0.578400 -0.529722
O5    O     O_R   0.011320 0.585570 0.587940 -0.526848
C2    C     C_R   0.341163 0.412912 0.604925 0.752344
O6    O     O_R   0.500030 0.414430 0.412060 -0.548496
O7    O     O_3   0.340950 0.551220 0.502940 -0.376392
V1    V     V_3+5 0.064020 0.490500 0.499460 1.477600
O8    O     O_R   0.681910 0.595110 0.587900 -0.548021
C3    C     C_R   0.851133 0.618273 0.616706 0.736701
O9    O     O_R   0.675640 0.570640 0.421600 -0.544922
C4    C     C_R   0.848869 0.586158 0.394724 0.678821
V2    V     V_3+5 0.564670 0.509500 0.500540 1.420446
O10   O     O_3   0.837610 0.448780 0.497060 -0.363147
C5    C     C_R   0.886072 0.861620 0.166718 -0.068251
C6    C     C_R   0.879612 0.638412 0.333409 -0.065369
C7    C     C_R   0.100563 0.686985 0.236818 -0.203073
C8    C     C_R   0.055039 0.633309 0.288574 -0.164847
C9    C     C_R   0.747821 0.697791 0.323669 -0.248261
C10   C     C_R   0.793710 0.752604 0.271843 0.159921
C11   C     C_R   0.971980 0.747471 0.228330 0.160462
C12   C     C_R   0.017868 0.802264 0.176495 -0.249154
C13   C     C_R   0.710653 0.866752 0.211559 -0.163240
C14   C     C_R   0.665136 0.813097 0.263347 -0.201418
H1    H     H_    0.152546 0.796998 0.142073 0.122056
H2    H     H_    0.605992 0.912039 0.205831 0.125820
H3    H     H_    0.237427 0.681586 0.204009 0.119714
H4    H     H_    0.528277 0.818508 0.296159 0.120567
H5    H     H_    0.159718 0.588022 0.294278 0.123944
H6    H     H_    0.613152 0.703048 0.358095 0.121934
C15   C     C_3   0.792477 0.813441 0.735571 0.557860
C16   C     C_3   0.962184 0.772731 0.683511 -0.279964
H7    H     H_    0.023974 0.791363 0.628525 0.124255
C17   C     C_3   0.864608 0.688702 0.687143 -0.124216
C18   C     C_3   0.693075 0.730008 0.738339 -0.255733
C19   C     C_3   0.803909 0.727209 0.816534 -0.280375
C20   C     C_3   0.973617 0.686500 0.764475 0.557435
C21   C     C_3   0.073018 0.769933 0.761707 -0.254771
C22   C     C_3   0.901485 0.811238 0.812903 -0.125465
H8    H     H_    0.538247 0.713445 0.727894 0.135207
H9    H     H_    0.742122 0.708576 0.871520 0.123179
H10   H     H_    0.227846 0.786499 0.772150 0.135905
C23   C     C_3   0.555773 0.280589 0.275896 -0.117168
C24   C     C_3   0.486441 0.190733 0.272474 -0.204278
H11   H     H_    0.572155 0.142537 0.290706 0.107478
H12   H     H_    0.699550 0.306214 0.296828 0.123994
C25   C     C_3   0.408029 0.188513 0.187720 -0.013761
C26   C     C_3   0.477261 0.277419 0.190332 -0.133449
C27   C     C_3   0.279649 0.307945 0.228061 -0.169960
C28   C     C_3   0.209730 0.218173 0.224586 -0.169588
C29   C     C_3   0.289912 0.221762 0.309392 0.039734
C30   C     C_3   0.357751 0.310629 0.313024 -0.014510
H13   H     H_    0.556119 0.300155 0.140913 0.102009
H14   H     H_    0.193588 0.356086 0.209943 0.104342
H15   H     H_    0.065849 0.192442 0.203879 0.116627
C31   C     C_R   0.432770 0.141277 0.834346 -0.073878
C32   C     C_R   0.333701 0.358505 0.665333 -0.063871
C33   C     C_R   0.143042 0.296735 0.762643 -0.203765
C34   C     C_R   0.161398 0.351567 0.710009 -0.136647
C35   C     C_R   0.489215 0.309414 0.675524 -0.222956
C36   C     C_R   0.470573 0.253135 0.727871 0.156270
C37   C     C_R   0.295800 0.246495 0.771635 0.159992
C38   C     C_R   0.277187 0.190275 0.824032 -0.237506
C39   C     C_R   0.605024 0.148133 0.789610 -0.151742
C40   C     C_R   0.623321 0.202883 0.736875 -0.199520
H16   H     H_    0.144005 0.186314 0.858217 0.122354
H17   H     H_    0.727431 0.111127 0.795652 0.145166
H18   H     H_    0.008524 0.293340 0.796009 0.120491
H19   H     H_    0.757820 0.206251 0.703490 0.132183
H20   H     H_    0.038995 0.388596 0.704022 0.139802
H21   H     H_    0.622384 0.313396 0.641336 0.131120
O11   O     O_R   0.266070 0.085680 0.087850 -0.542651
O12   O     O_R   0.590090 0.070660 0.921580 -0.540525
O13   O     O_R   0.754780 0.914400 0.912080 -0.522743
C41   C     C_R   0.425268 0.087036 0.894915 0.724737
O14   O     O_R   0.596110 0.095130 0.087880 -0.543306
O15   O     O_R   0.760850 0.939050 0.079570 -0.544107
C42   C     C_R   0.426269 0.118500 0.116731 0.676635
O16   O     O_R   0.260010 0.061030 0.920360 -0.536301
O17   O     O_3   0.425070 0.948840 0.997010 -0.367284
V3    V     V_3+5 0.702100 0.009490 0.000550 1.424452
O18   O     O_R   0.090200 0.929250 0.078500 -0.542844
C43   C     C_R   0.916913 0.913822 0.105369 0.686216
O19   O     O_R   0.084180 0.904770 0.912200 -0.545357
C44   C     C_R   0.914964 0.881662 0.883346 0.746811
V4    V     V_3+5 0.201420 0.990350 0.999580 1.410273
O20   O     O_3   0.928580 0.051150 0.002990 -0.372308
O21   O     O_3   0.065400 0.615281 0.775285 -0.557406
C45   C     C_3   0.167641 0.632170 0.847812 -0.272512
H22   H     H_    0.071179 0.655090 0.900462 0.130417
H23   H     H_    0.289649 0.676244 0.844478 0.135704
H24   H     H_    0.229993 0.574589 0.857559 0.167234
C46   C     C_2   0.183868 0.187370 0.373841 0.322057
H25   H     H_    0.140281 0.123274 0.362444 0.043026
O22   O     O_2   0.146275 0.230637 0.439007 -0.529853
O23   O     O_3   0.700692 0.884662 0.724762 -0.555801
C47   C     C_3   0.598516 0.867783 0.652219 -0.260633
H26   H     H_    0.476533 0.823689 0.655519 0.132886
H27   H     H_    0.695033 0.844895 0.599579 0.129392
H28   H     H_    0.536137 0.925363 0.642483 0.171401

loop_
_geom_bond_atom_site_label_1
_geom_bond_atom_site_label_2
_ccdc_geom_bond_type
C29   C46   S    
C6    C9    A    
C4    C6    S    
O2    C1    A    
C7    C8    A    
C12   H1    S    
C1    O6    A    
C29   C30   S    
C13   H2    S    
C24   C25   S    
C35   C36   A    
C5    C43   S    
C17   C18   S    
C27   H14   S    
O5    C3    A    
C19   C20   S    
O14   C42   A    
C39   H17   S    
O4    V1    S    
V2    O10   S    
O23   C47   S    
C16   H7    S    
C18   H8    S    
C31   C41   S    
O8    V2    S    
O14   V3    S    
C31   C39   A    
C15   O23   S    
C11   C12   A    
C35   H21   S    
O1    V2    S    
C41   O16   A    
C3    C17   S    
O7    V1    S    
C20   O21   S    
C6    C8    A    
C25   C28   S    
C39   C40   A    
O11   C42   A    
O9    C4    A    
V3    O20   S    
O13   V3    S    
C2    C32   S    
C26   C27   S    
C22   C44   S    
C9    H6    S    
C36   C40   A    
C32   C34   A    
C5    C12   A    
O19   V4    S    
C27   C28   S    
O18   C43   A    
C19   C22   S    
C45   H22   S    
O4    C2    A    
O19   C44   A    
C13   C14   A    
C23   C24   S    
C15   C18   S    
C33   C34   A    
C7    C11   A    
C18   C19   S    
C45   H23   S    
C31   C38   A    
C47   H26   S    
C33   H18   S    
C38   H16   S    
C15   C16   S    
O12   C41   A    
O13   C44   A    
O3    C4    A    
C34   H20   S    
C21   C22   S    
C47   H27   S    
C23   C30   S    
C25   C26   S    
O6    V2    S    
O9    V2    S    
C16   C21   S    
O2    V1    S    
O15   C43   A    
C28   C29   S    
C23   H12   S    
C24   H11   S    
C32   C35   A    
C1    C30   S    
O1    C2    A    
C17   C20   S    
O18   V4    S    
O5    V1    S    
O8    C3    A    
C46   O22   D    
C14   H4    S    
C26   H13   S    
C25   C42   S    
C33   C37   A    
C27   C30   S    
C5    C13   A    
C37   C38   A    
O7    V2    S    
C15   C22   S    
C19   H9    S    
O3    V1    S    
V1    O10   S    
C45   H24   S    
O15   V3    S    
O12   V3    S    
O21   C45   S    
C23   C26   S    
O17   V4    S    
C24   C29   S    
C16   C17   S    
C40   H19   S    
O16   V4    S    
C28   H15   S    
C36   C37   A    
C20   C21   S    
C21   H10   S    
C47   H28   S    
V4    O20   S    
O17   V3    S    
C10   C14   A    
C46   H25   S    
C10   C11   A    
O11   V4    S    
C9    C10   A    
C8    H5    S    
C7    H3    S    
