data_mof_unit_59797.cif
_audit_creation_date              2013-03-05T15:55:21-0500
_audit_creation_method            fapswitch 2.2
_symmetry_space_group_name_H-M    P1
_symmetry_Int_Tables_number       1
_space_group_crystal_system       triclinic
_cell_length_a                    27.70894
_cell_length_b                    10.706308
_cell_length_c                    9.89015
_cell_angle_alpha                 89.900679
_cell_angle_beta                  90.142536
_cell_angle_gamma                 92.217346
_cell_volume                      2931.80645457

loop_
_atom_site_label
_atom_site_type_symbol
_atom_site_description
_atom_site_fract_x
_atom_site_fract_y
_atom_site_fract_z
_atom_type_partial_charge
O1    O     O_R   0.500000 0.316780 0.614690 -0.650906
O2    O     O_R   0.500000 0.316750 0.385360 -0.644146
C1    C     C_R   0.503610 0.260278 0.501247 0.895163
O3    O     O_R   0.428760 0.500030 0.614650 -0.649940
O4    O     O_R   0.428750 0.500010 0.385320 -0.605460
C2    C     C_R   0.406067 0.501757 0.499880 0.938956
Zn1   Zn    Zn3+2 0.500000 0.500020 0.653130 0.913286
Zn2   Zn    Zn3+2 0.500000 0.499980 0.346870 0.957314
O5    O     O_R   0.500000 0.683250 0.614640 -0.669256
O6    O     O_R   0.500000 0.683220 0.385310 -0.600094
O7    O     O_R   0.571250 0.499990 0.614680 -0.651886
O8    O     O_R   0.571240 0.499970 0.385350 -0.622068
C3    C     C_R   0.495265 0.738962 0.500442 0.899975
C4    C     C_R   0.593908 0.502021 0.500027 0.870085
C5    C     C_R   0.175368 0.377646 0.471751 0.569731
O9    O     O_2   0.198361 0.295571 0.393946 -0.513313
N1    N     N_R   0.201420 0.473314 0.530489 -0.348709
C6    C     C_R   0.180230 0.564653 0.602134 0.518935
C7    C     C_R   0.274262 0.537024 0.403147 0.161659
C8    C     C_R   0.325157 0.549771 0.395675 -0.094615
C9    C     C_R   0.330277 0.440821 0.612679 -0.207643
C10   C     C_R   0.280545 0.431190 0.620168 -0.122873
C11   C     C_R   0.252654 0.478956 0.516650 0.294061
C12   C     C_R   0.101788 0.471529 0.545322 -0.084730
C13   C     C_R   0.124969 0.367623 0.489324 -0.051691
C14   C     C_R   0.096791 0.261496 0.446983 -0.009437
C15   C     C_R   0.129748 0.573688 0.599630 -0.044300
C16   C     C_R   0.353168 0.499178 0.501657 -0.097881
H1    H     H_    0.350933 0.401556 0.694319 0.185147
H2    H     H_    0.263435 0.386906 0.707177 0.158325
C17   C     C_R   0.646612 0.503354 0.501524 -0.094112
C18   C     C_R   0.971540 0.370700 0.505234 0.045452
C19   C     C_R   0.977388 0.591532 0.572372 0.010081
C20   C     C_R   0.949184 0.484429 0.535369 0.071208
C21   C     C_R   0.941825 0.262683 0.481615 -0.189534
C22   C     C_R   0.892007 0.268417 0.479170 -0.108136
C23   C     C_R   0.869942 0.381731 0.500483 -0.024905
C24   C     C_R   0.898285 0.490933 0.528436 -0.046267
C25   C     C_R   0.875724 0.605989 0.549252 -0.113926
C26   C     C_R   0.824750 0.604629 0.551809 0.498053
N2    N     N_R   0.798493 0.497803 0.521298 -0.342341
C27   C     C_R   0.819809 0.387890 0.495133 0.520998
C28   C     C_R   0.719260 0.438677 0.613968 -0.080960
C29   C     C_R   0.669290 0.440026 0.607092 -0.250310
C30   C     C_R   0.674960 0.568468 0.402952 0.169273
C31   C     C_R   0.725109 0.566543 0.411619 -0.121735
C32   C     C_R   0.747131 0.501312 0.515954 0.267273
O10   O     O_2   0.792369 0.284898 0.464004 -0.554366
C33   C     C_R   0.022682 0.368897 0.499414 0.054905
C34   C     C_R   0.050678 0.473894 0.545592 0.081133
C35   C     C_R   0.027811 0.582149 0.590356 0.059340
C36   C     C_R   0.046644 0.265226 0.448698 -0.283959
H3    H     H_    0.648264 0.390122 0.683638 0.169464
H4    H     H_    0.736422 0.388701 0.695136 0.156477
H5    H     H_    0.870795 0.182984 0.460518 0.201142
H6    H     H_    0.955813 0.171035 0.468325 0.163437
H7    H     H_    0.027069 0.184586 0.408505 0.130391
O11   O     O_2   0.208338 0.645086 0.675228 -0.523996
C37   C     C_R   0.106173 0.678448 0.651862 -0.016312
C38   C     C_R   0.954792 0.706822 0.583043 -0.197229
C39   C     C_R   0.904912 0.716314 0.568544 0.011878
O12   O     O_2   0.801206 0.706836 0.589239 -0.566776
C40   C     C_R   0.056023 0.678979 0.650613 -0.289545
H8    H     H_    0.975981 0.793095 0.592619 0.176343
H9    H     H_    0.747185 0.615349 0.336550 0.154624
H10   H     H_    0.039546 0.757953 0.697122 0.140736
H11   H     H_    0.505670 0.111896 0.286334 0.173185
C41   C     C_R   0.517371 0.112521 0.757934 -0.146816
H12   H     H_    0.538968 0.198259 0.767146 0.162447
C42   C     C_R   0.504131 0.051841 0.877884 -0.108818
H13   H     H_    0.513189 0.094206 0.974455 0.138628
C43   C     C_R   0.477901 0.938741 0.873003 -0.118973
H14   H     H_    0.465487 0.894096 0.965560 0.143438
C44   C     C_R   0.469329 0.880723 0.748765 -0.118566
H15   H     H_    0.448494 0.793203 0.748949 0.165788
C45   C     C_R   0.486989 0.936206 0.627329 0.104401
C46   C     C_R   0.504089 0.060443 0.630552 0.112144
C47   C     C_R   0.506489 0.126582 0.505760 -0.113296
C48   C     C_R   0.503059 0.063389 0.382483 -0.218690
H16   H     H_    0.497408 0.888611 0.284716 0.180336
C49   C     C_R   0.496537 0.936231 0.381252 -0.175993
C50   C     C_R   0.489794 0.871704 0.502903 -0.106936
H17   H     H_    0.551620 0.645299 0.130412 0.181350
C51   C     C_R   0.437637 0.332602 0.140045 -0.152106
H18   H     H_    0.434711 0.329354 0.247246 0.215053
C52   C     C_R   0.407651 0.247880 0.070058 -0.311929
H19   H     H_    0.384208 0.183389 0.126355 0.167265
C53   C     C_R   0.407638 0.246248 0.929544 -0.005095
C54   C     C_R   0.437828 0.331805 0.859578 -0.147308
H20   H     H_    0.435668 0.329618 0.752394 0.234361
C55   C     C_R   0.469407 0.416897 0.927602 0.097086
C56   C     C_R   0.469398 0.417090 0.072136 0.165389
N3    N     N_R   0.499540 0.498800 0.142780 -0.138721
C57   C     C_R   0.528620 0.580544 0.073344 -0.091652
C58   C     C_R   0.529056 0.581628 0.929910 -0.001558
N4    N     N_R   0.499520 0.498720 0.857170 -0.170908
N5    N     N_2   0.244066 0.583202 0.299033 -0.326707
H21   H     H_    0.253895 0.558157 0.202688 0.222120
C59   C     C_3   0.233527 0.714058 0.310407 -0.675902
H22   H     H_    0.206878 0.738411 0.231572 0.238353
H23   H     H_    0.266846 0.773562 0.296001 0.242843
H24   H     H_    0.217799 0.733958 0.410735 0.293815
C60   C     C_2   0.131259 0.795264 0.698933 0.529936
H25   H     H_    0.119424 0.839855 0.790922 0.034659
O13   O     O_2   0.162464 0.847845 0.630204 -0.481951
N6    N     N_2   0.654482 0.638043 0.295951 -0.304988
H26   H     H_    0.630906 0.587834 0.234267 0.251697
C61   C     C_3   0.638114 0.759747 0.333930 -0.703525
H27   H     H_    0.626031 0.809949 0.242268 0.254792
H28   H     H_    0.668069 0.815990 0.381688 0.257636
H29   H     H_    0.607328 0.750420 0.405418 0.219899
C62   C     C_2   0.885707 0.844084 0.562926 0.464335
H30   H     H_    0.854807 0.863645 0.500048 0.116178
O14   O     O_2   0.905255 0.930302 0.625678 -0.583757
C63   C     C_2   0.375954 0.154047 0.857122 0.400355
H31   H     H_    0.352053 0.090683 0.913760 0.084889
O15   O     O_2   0.376368 0.146822 0.733902 -0.569499
C64   C     C_2   0.562050 0.674254 0.862156 0.407004
H32   H     H_    0.567894 0.673167 0.755162 0.149642
O16   O     O_2   0.583933 0.755313 0.927092 -0.600348
C65   C     C_2   0.117059 0.140211 0.409051 0.516644
H33   H     H_    0.100529 0.085276 0.327917 0.029344
O17   O     O_2   0.149800 0.096225 0.474322 -0.476350
C66   C     C_2   0.347644 0.622672 0.282668 0.424345
H34   H     H_    0.333561 0.612980 0.180726 0.057205
O18   O     O_2   0.380741 0.698883 0.303536 -0.557659

loop_
_geom_bond_atom_site_label_1
_geom_bond_atom_site_label_2
_geom_bond_distance
_ccdc_geom_bond_type
N3    C57   1.353850 A    
N2    C27   1.362425 A    
C58   N4    1.385038 A    
C12   C15   1.421055 A    
C4    C17   1.459928 S    
C62   O14   1.221583 D    
C49   C50   1.395714 A    
C7    N5    1.425042 S    
C46   C47   1.422264 A    
Zn1   O7    2.011493 S    
Zn1   N4    2.018082 S    
N1    C11   1.425482 S    
C44   C45   1.418708 A    
C22   C23   1.396050 A    
C51   C52   1.390400 A    
O4    C2    1.297556 A    
O7    C4    1.297251 A    
C52   C53   1.389845 A    
C5    C13   1.407654 A    
N6    H26   1.029503 S    
C63   H31   1.085512 S    
C26   O12   1.348285 S    
C61   H27   1.110646 S    
N1    C6    1.360899 A    
C23   C27   1.394125 A    
O5    C3    1.285146 A    
C64   H32   1.071050 S    
C55   N4    1.375897 A    
C29   H3    1.083854 S    
C6    O11   1.348420 S    
C2    C16   1.465112 S    
C21   C22   1.384291 A    
C41   H12   1.080060 S    
C63   O15   1.221366 D    
C42   H13   1.082784 S    
C14   C65   1.483739 S    
C54   C55   1.409159 A    
C40   H10   1.080362 S    
O1    Zn1   1.998968 S    
C9    C10   1.380067 A    
O3    Zn1   2.009413 S    
C62   H30   1.083721 S    
N5    C59   1.446743 S    
N5    H21   1.030464 S    
C45   C46   1.395002 A    
C58   C64   1.482858 S    
C12   C34   1.417416 A    
C25   C39   1.418375 A    
C65   O17   1.220903 D    
C44   H15   1.081408 S    
C6    C15   1.406032 A    
C18   C21   1.412868 A    
H11   C48   1.083944 S    
C12   C13   1.419875 A    
C31   H9    1.083784 S    
C43   C44   1.393491 A    
C17   C29   1.404240 A    
C45   C50   1.415934 A    
C55   C56   1.429468 A    
C48   C49   1.366449 A    
C47   C48   1.396633 A    
C43   H14   1.082632 S    
C8    C16   1.421615 A    
C34   C35   1.414494 A    
C13   C14   1.416817 A    
C30   C31   1.392972 A    
H17   C57   1.082005 S    
C9    H1    1.082309 S    
C3    C50   1.435308 S    
C38   C39   1.396793 A    
O1    C1    1.281543 A    
C18   C20   1.419753 A    
C7    C11   1.406154 A    
C28   C29   1.386740 A    
C23   C24   1.410363 A    
C14   C36   1.391773 A    
C28   H4    1.083124 S    
C59   H22   1.110163 S    
Zn2   O8    2.009410 S    
C33   C36   1.408904 A    
C19   C20   1.410765 A    
N2    C32   1.425981 S    
C35   C40   1.406451 A    
C60   O13   1.220875 D    
C27   O10   1.350513 S    
C51   H18   1.063939 S    
C65   H33   1.085625 S    
O3    C2    1.296708 A    
C26   N2    1.365356 A    
C59   H23   1.110562 S    
C9    C16   1.403119 A    
O8    C4    1.294924 A    
C19   C38   1.409722 A    
C25   C26   1.412233 A    
C30   N6    1.422573 S    
C52   H19   1.083728 S    
C66   O18   1.221132 D    
C41   C46   1.420481 A    
C5    N1    1.360319 A    
C31   C32   1.397213 A    
C10   H2    1.083186 S    
C21   H6    1.077216 S    
C20   C24   1.416243 A    
O2    Zn2   1.997661 S    
Zn2   N3    2.018548 S    
H16   C49   1.083898 S    
O6    C3    1.295810 A    
O4    Zn2   2.011496 S    
C19   C35   1.415382 A    
C37   C40   1.389867 A    
C61   H29   1.110719 S    
C38   H8    1.079303 S    
C37   C60   1.482297 S    
C7    C8    1.413668 A    
O2    C1    1.300342 A    
C22   H5    1.083770 S    
C15   C37   1.418414 A    
C39   C62   1.487761 S    
C24   C25   1.418345 A    
N6    C61   1.446682 S    
C53   C63   1.480027 S    
C56   N3    1.376120 A    
C61   H28   1.111299 S    
C57   C58   1.418689 A    
C64   O16   1.221698 D    
C18   C33   1.419256 A    
C8    C66   1.486388 S    
C36   H7    1.077729 S    
Zn1   O5    1.997663 S    
C59   H24   1.109030 S    
C53   C54   1.399675 A    
Zn2   O6    1.998968 S    
C33   C34   1.416543 A    
C17   C30   1.418618 A    
C60   H25   1.085481 S    
C41   C42   1.394653 A    
C10   C11   1.389901 A    
C42   C43   1.388798 A    
C51   C56   1.408200 A    
C54   H20   1.061851 S    
C1    C47   1.437303 S    
C28   C32   1.395414 A    
C5    O9    1.348446 S    
C66   H34   1.083894 S    
