data_mof_unit_42645.cif
_audit_creation_date              2013-03-05T15:39:55-0500
_audit_creation_method            fapswitch 2.2
_symmetry_space_group_name_H-M    P1
_symmetry_Int_Tables_number       1
_space_group_crystal_system       triclinic
_cell_length_a                    28.056082
_cell_length_b                    18.76554
_cell_length_c                    16.821744
_cell_angle_alpha                 89.907904
_cell_angle_beta                  62.725259
_cell_angle_gamma                 89.864306
_cell_volume                      7871.75035655

loop_
_atom_site_label
_atom_site_type_symbol
_atom_site_description
_atom_site_fract_x
_atom_site_fract_y
_atom_site_fract_z
_atom_type_partial_charge
O1    O     O_R   0.255040 0.869590 0.478480 -0.514106
O2    O     O_R   0.744960 0.130410 0.521520 -0.516669
O3    O     O_R   0.744960 0.869590 0.521520 -0.514252
O4    O     O_R   0.255040 0.130410 0.478480 -0.515965
O5    O     O_R   0.755040 0.369590 0.478480 -0.516951
O6    O     O_R   0.244960 0.630410 0.521520 -0.512132
O7    O     O_R   0.244960 0.369590 0.521520 -0.511067
O8    O     O_R   0.755040 0.630410 0.478480 -0.517410
O9    O     O_R   0.182050 0.796550 0.624440 -0.596205
O10   O     O_R   0.817950 0.203450 0.375560 -0.585046
O11   O     O_R   0.817950 0.796550 0.375560 -0.595218
O12   O     O_R   0.182050 0.203450 0.624440 -0.595363
O13   O     O_R   0.682050 0.296550 0.624440 -0.597033
O14   O     O_R   0.317950 0.703450 0.375560 -0.585109
O15   O     O_R   0.317950 0.296550 0.375560 -0.593733
O16   O     O_R   0.682050 0.703450 0.624440 -0.586156
Cu1   Cu    Cu3+1 0.209920 0.785290 0.495070 1.017454
Cu2   Cu    Cu3+1 0.790080 0.214710 0.504930 1.020931
Cu3   Cu    Cu3+1 0.790080 0.785290 0.504930 1.020796
Cu4   Cu    Cu3+1 0.209920 0.214710 0.495070 1.019319
Cu5   Cu    Cu3+1 0.709920 0.285290 0.495070 1.017206
Cu6   Cu    Cu3+1 0.290080 0.714710 0.504930 1.020656
Cu7   Cu    Cu3+1 0.290080 0.285290 0.504930 1.020946
Cu8   Cu    Cu3+1 0.709920 0.714710 0.495070 1.016208
C1    C     C_R   0.294909 0.728222 0.329634 0.825572
C2    C     C_R   0.705122 0.271835 0.670344 0.793608
C3    C     C_R   0.705115 0.728178 0.670326 0.823175
C4    C     C_R   0.294893 0.271812 0.329666 0.811002
C5    C     C_R   0.794920 0.228243 0.329630 0.826953
C6    C     C_R   0.205101 0.771795 0.670358 0.798829
C7    C     C_R   0.205117 0.228169 0.670326 0.807908
C8    C     C_R   0.794877 0.771840 0.329677 0.798491
O17   O     O_R   0.250530 0.763330 0.367210 -0.576068
O18   O     O_R   0.749470 0.236670 0.632790 -0.591716
O19   O     O_R   0.749470 0.763330 0.632790 -0.575478
O20   O     O_R   0.250530 0.236670 0.367210 -0.576555
O21   O     O_R   0.750530 0.263330 0.367210 -0.575641
O22   O     O_R   0.249470 0.736670 0.632790 -0.588003
O23   O     O_R   0.249470 0.263330 0.632790 -0.577096
O24   O     O_R   0.750530 0.736670 0.367210 -0.588311
O25   O     O_R   0.177260 0.690030 0.513710 -0.615380
O26   O     O_R   0.822740 0.309970 0.486290 -0.605501
O27   O     O_R   0.822740 0.690030 0.486290 -0.609943
O28   O     O_R   0.177260 0.309970 0.513710 -0.610735
O29   O     O_R   0.677260 0.190030 0.513710 -0.613039
O30   O     O_R   0.322740 0.809970 0.486290 -0.613528
O31   O     O_R   0.322740 0.190030 0.486290 -0.611860
O32   O     O_R   0.677260 0.809970 0.513710 -0.612279
C9    C     C_R   0.196122 0.631873 0.529687 0.837671
C10   C     C_R   0.800466 0.369137 0.482195 0.848039
C11   C     C_R   0.803710 0.631910 0.471419 0.836011
C12   C     C_R   0.195799 0.368010 0.530718 0.831897
C13   C     C_R   0.696204 0.132126 0.529335 0.838716
C14   C     C_R   0.301434 0.869136 0.479566 0.846729
C15   C     C_R   0.303848 0.132179 0.470412 0.835857
C16   C     C_R   0.698663 0.869119 0.520138 0.846046
C17   C     C_R   0.037545 0.500531 0.540802 0.043525
C18   C     C_R   0.944120 0.501636 0.515780 0.043309
C19   C     C_R   0.548289 0.004072 0.506780 0.046303
C20   C     C_R   0.452716 0.003886 0.490076 0.046239
C21   C     C_R   0.017356 0.565171 0.524952 0.039820
C22   C     C_R   0.958847 0.438991 0.546462 0.040867
C23   C     C_R   0.974254 0.564516 0.503061 0.037101
C24   C     C_R   0.008251 0.436906 0.551727 0.038907
C25   C     C_R   0.522111 0.068861 0.508966 0.036652
C26   C     C_R   0.474887 0.939617 0.501050 0.039988
C27   C     C_R   0.478587 0.068785 0.488015 0.036510
C28   C     C_R   0.526617 0.939756 0.495135 0.039806
C29   C     C_R   0.109789 0.435053 0.554990 0.007158
C30   C     C_R   0.883539 0.564528 0.469482 0.005593
C31   C     C_R   0.867197 0.439734 0.514370 -0.001489
C32   C     C_R   0.111672 0.565555 0.548375 0.004637
C33   C     C_R   0.625683 0.939303 0.502543 0.001596
C34   C     C_R   0.385917 0.066573 0.460259 0.004088
C35   C     C_R   0.375326 0.938926 0.494959 0.002802
C36   C     C_R   0.614530 0.066794 0.537664 0.004571
C37   C     C_R   0.161937 0.434596 0.551357 -0.199524
C38   C     C_R   0.835524 0.565220 0.460004 -0.194572
C39   C     C_R   0.827591 0.436845 0.482879 -0.201669
C40   C     C_R   0.162614 0.565513 0.549068 -0.198999
C41   C     C_R   0.669642 0.936804 0.524070 -0.201410
C42   C     C_R   0.336408 0.066013 0.455719 -0.193336
C43   C     C_R   0.330758 0.936675 0.474810 -0.201783
C44   C     C_R   0.663783 0.066066 0.543243 -0.193465
C45   C     C_R   0.183743 0.500036 0.560507 0.306829
C46   C     C_R   0.814248 0.499945 0.451535 0.307537
C47   C     C_R   0.685235 0.000300 0.550996 0.304743
C48   C     C_R   0.314842 0.000339 0.448400 0.305084
C49   C     C_R   0.086686 0.500269 0.547509 0.073048
C50   C     C_R   0.898527 0.501785 0.499131 0.076326
C51   C     C_R   0.596085 0.003292 0.516427 0.073265
C52   C     C_R   0.404736 0.003006 0.480975 0.073216
C53   C     C_R   0.608933 0.880305 0.469042 -0.147601
C54   C     C_R   0.418182 0.128222 0.442752 -0.130313
C55   C     C_R   0.392882 0.879679 0.527179 -0.148131
C56   C     C_R   0.582126 0.128441 0.554663 -0.130570
C57   C     C_R   0.078037 0.373163 0.571620 -0.140536
C58   C     C_R   0.917915 0.623776 0.447834 -0.131841
C59   C     C_R   0.877015 0.383135 0.560386 -0.150211
C60   C     C_R   0.082341 0.628595 0.554940 -0.137596
C61   C     C_R   0.558592 0.878644 0.472379 -0.199049
C62   C     C_R   0.461589 0.130473 0.461437 -0.198620
C63   C     C_R   0.443394 0.878231 0.523239 -0.199587
C64   C     C_R   0.538817 0.130587 0.535643 -0.199182
C65   C     C_R   0.029107 0.373810 0.568934 -0.190104
C66   C     C_R   0.961568 0.624338 0.465847 -0.196437
C67   C     C_R   0.922625 0.381642 0.573283 -0.190233
C68   C     C_R   0.038613 0.628950 0.537622 -0.200927
H1    H     H_    0.633754 0.834848 0.437557 0.180855
H2    H     H_    0.411952 0.175048 0.411383 0.176610
H3    H     H_    0.368630 0.833818 0.558283 0.181942
H4    H     H_    0.588046 0.175305 0.586086 0.177510
H5    H     H_    0.088284 0.323652 0.592506 0.178067
H6    H     H_    0.913265 0.669391 0.412765 0.174684
H7    H     H_    0.849289 0.339699 0.589501 0.172073
H8    H     H_    0.089964 0.678545 0.578164 0.182759
H9    H     H_    0.546446 0.830569 0.451070 0.155724
H10   H     H_    0.483707 0.179838 0.449218 0.153504
H11   H     H_    0.456026 0.830040 0.543807 0.155801
H12   H     H_    0.516512 0.179906 0.547740 0.153525
H13   H     H_    0.008782 0.323351 0.579181 0.149956
H14   H     H_    0.986575 0.671342 0.446404 0.152588
H15   H     H_    0.927616 0.335713 0.607435 0.149388
H16   H     H_    0.019409 0.679648 0.540774 0.151937
H17   H     H_    0.249506 0.875464 0.952362 0.156776
H18   H     H_    0.751066 0.125557 0.047074 0.156726
H19   H     H_    0.751431 0.875552 0.044866 0.157425
H20   H     H_    0.248502 0.124402 0.955192 0.157779
H21   H     H_    0.749670 0.375637 0.952227 0.156432
H22   H     H_    0.251118 0.625383 0.047018 0.157208
H23   H     H_    0.251636 0.375371 0.044668 0.157908
H24   H     H_    0.748504 0.624585 0.955191 0.157521
C69   C     C_R   0.223186 0.767491 0.950070 0.119720
C70   C     C_R   0.777455 0.233493 0.049335 0.120727
C71   C     C_R   0.777170 0.767458 0.049437 0.120158
C72   C     C_R   0.222839 0.232528 0.950554 0.120340
C73   C     C_R   0.723287 0.267693 0.949980 0.119407
C74   C     C_R   0.277460 0.733345 0.049282 0.119045
C75   C     C_R   0.277300 0.267246 0.049311 0.120854
C76   C     C_R   0.722765 0.732679 0.950617 0.120836
C77   C     C_R   0.224051 0.696997 0.976643 -0.123035
C78   C     C_R   0.776680 0.303987 0.022673 -0.122673
C79   C     C_R   0.775868 0.696703 0.024287 -0.124709
C80   C     C_R   0.224209 0.303284 0.975637 -0.124584
C81   C     C_R   0.724080 0.197203 0.976619 -0.122745
C82   C     C_R   0.276617 0.803839 0.022683 -0.122402
C83   C     C_R   0.275936 0.196490 0.024219 -0.124887
C84   C     C_R   0.724067 0.803435 0.975765 -0.123942
H25   H     H_    0.203303 0.655562 0.960037 0.150890
H26   H     H_    0.797440 0.345392 0.039299 0.151302
H27   H     H_    0.796298 0.655260 0.041868 0.151330
H28   H     H_    0.203810 0.344753 0.958032 0.150942
H29   H     H_    0.703316 0.155792 0.960009 0.151253
H30   H     H_    0.297351 0.845271 0.039323 0.151664
H31   H     H_    0.296336 0.155022 0.041825 0.151076
H32   H     H_    0.703638 0.844878 0.958184 0.151599
C85   C     C_R   0.250880 0.680051 0.026433 -0.090410
C86   C     C_R   0.749889 0.320967 0.972820 -0.094423
C87   C     C_R   0.748999 0.679446 0.974705 -0.089999
C88   C     C_R   0.251101 0.320509 0.025192 -0.087768
C89   C     C_R   0.750862 0.180227 0.026472 -0.090553
C90   C     C_R   0.249773 0.820792 0.972905 -0.092105
C91   C     C_R   0.249041 0.179263 0.974666 -0.089023
C92   C     C_R   0.750936 0.820692 0.025349 -0.091669
C93   C     C_R   0.146424 0.830156 0.944410 0.325769
C94   C     C_R   0.854061 0.170632 0.055199 0.326269
C95   C     C_R   0.853656 0.830417 0.055488 0.326046
C96   C     C_R   0.146333 0.169599 0.944519 0.325058
C97   C     C_R   0.646512 0.330311 0.944334 0.326216
C98   C     C_R   0.354142 0.670721 0.055154 0.325984
C99   C     C_R   0.353761 0.330251 0.055399 0.325493
C100  C     C_R   0.646304 0.669656 0.944550 0.325757
C101  C     C_R   0.119128 0.853018 0.895617 -0.169149
C102  C     C_R   0.881077 0.147290 0.104237 -0.169105
C103  C     C_R   0.880836 0.853220 0.104433 -0.168935
C104  C     C_R   0.119149 0.146803 0.895578 -0.167810
C105  C     C_R   0.619175 0.353097 0.895578 -0.169368
C106  C     C_R   0.381142 0.647379 0.104202 -0.168202
C107  C     C_R   0.380892 0.353135 0.104389 -0.168071
C108  C     C_R   0.619152 0.646799 0.895579 -0.168451
C109  C     C_R   0.137488 0.830673 0.807226 -0.259535
C110  C     C_R   0.862560 0.169368 0.192764 -0.256200
C111  C     C_R   0.862409 0.830836 0.192856 -0.259928
C112  C     C_R   0.137566 0.169204 0.807162 -0.260345
C113  C     C_R   0.637526 0.330735 0.807197 -0.259669
C114  C     C_R   0.362587 0.669407 0.192755 -0.255735
C115  C     C_R   0.362451 0.330772 0.192825 -0.259366
C116  C     C_R   0.637588 0.669165 0.807148 -0.256567
H33   H     H_    0.117358 0.848820 0.769198 0.197603
H34   H     H_    0.882491 0.150871 0.230959 0.199130
H35   H     H_    0.882429 0.848953 0.230965 0.197660
H36   H     H_    0.117547 0.151086 0.769053 0.197298
H37   H     H_    0.617356 0.348809 0.769202 0.197497
H38   H     H_    0.382528 0.650939 0.230946 0.198934
H39   H     H_    0.382429 0.348962 0.230969 0.197654
H40   H     H_    0.617598 0.650991 0.769015 0.198786
C117  C     C_R   0.182912 0.787661 0.765992 -0.051002
C118  C     C_R   0.817223 0.212554 0.233914 -0.057981
C119  C     C_R   0.817095 0.787788 0.233988 -0.050472
C120  C     C_R   0.182877 0.212258 0.766033 -0.053973
C121  C     C_R   0.682980 0.287781 0.765940 -0.049156
C122  C     C_R   0.317203 0.712510 0.233925 -0.057960
C123  C     C_R   0.317164 0.287673 0.233934 -0.054649
C124  C     C_R   0.682874 0.712264 0.766036 -0.057122
C125  C     C_R   0.209643 0.764808 0.814496 -0.238857
C126  C     C_R   0.790717 0.235793 0.185202 -0.232126
C127  C     C_R   0.790539 0.764936 0.185312 -0.238441
C128  C     C_R   0.209424 0.235125 0.814718 -0.233226
C129  C     C_R   0.709771 0.265038 0.814388 -0.241757
C130  C     C_R   0.290650 0.735640 0.185236 -0.231782
C131  C     C_R   0.290672 0.264709 0.185196 -0.231927
C132  C     C_R   0.709386 0.735199 0.814749 -0.232676
H41   H     H_    0.245508 0.732313 0.782900 0.185322
H42   H     H_    0.754893 0.268371 0.216736 0.187203
H43   H     H_    0.754787 0.732385 0.216834 0.185069
H44   H     H_    0.245165 0.267695 0.783206 0.186990
H45   H     H_    0.745667 0.232601 0.782767 0.184262
H46   H     H_    0.254776 0.768121 0.216794 0.187070
H47   H     H_    0.254948 0.232106 0.216690 0.187476
H48   H     H_    0.745110 0.767802 0.783251 0.187074
C133  C     C_R   0.191972 0.786577 0.902806 -0.044382
C134  C     C_R   0.808559 0.214298 0.096743 -0.045312
C135  C     C_R   0.808226 0.786741 0.096932 -0.044179
C136  C     C_R   0.191758 0.213284 0.903082 -0.044981
C137  C     C_R   0.692095 0.286802 0.902697 -0.043907
C138  C     C_R   0.308546 0.714200 0.096739 -0.045341
C139  C     C_R   0.308364 0.286510 0.096807 -0.045133
C140  C     C_R   0.691706 0.713388 0.903127 -0.044810
O33   O     O_R   0.051640 0.926880 0.885090 -0.595178
O34   O     O_R   0.948360 0.073120 0.114910 -0.593943
O35   O     O_R   0.948360 0.926880 0.114910 -0.595022
O36   O     O_R   0.051640 0.073120 0.885090 -0.595312
O37   O     O_R   0.551640 0.426880 0.885090 -0.595406
O38   O     O_R   0.448360 0.573120 0.114910 -0.594222
O39   O     O_R   0.448360 0.426880 0.114910 -0.594838
O40   O     O_R   0.551640 0.573120 0.885090 -0.594096
Cu9   Cu    Cu3+1 0.495240 0.500000 0.924150 1.105146
Cu10  Cu    Cu3+1 0.504760 0.500000 0.075850 1.105460
Cu11  Cu    Cu3+1 0.995240 0.000000 0.924150 1.102864
Cu12  Cu    Cu3+1 0.004760 0.000000 0.075850 1.105951
C141  C     C_R   0.926004 0.903636 0.066760 0.800518
C142  C     C_R   0.073991 0.096370 0.933244 0.800945
C143  C     C_R   0.073968 0.903555 0.933309 0.800915
C144  C     C_R   0.926096 0.096536 0.066639 0.801320
C145  C     C_R   0.426019 0.403614 0.066747 0.800561
C146  C     C_R   0.573997 0.596363 0.933241 0.801278
C147  C     C_R   0.573980 0.403573 0.933299 0.800309
C148  C     C_R   0.426133 0.596587 0.066612 0.801910
O41   O     O_R   0.940620 0.926560 0.986760 -0.521334
O42   O     O_R   0.059380 0.073440 0.013240 -0.520657
O43   O     O_R   0.059380 0.926560 0.013240 -0.521311
O44   O     O_R   0.940620 0.073440 0.986760 -0.521458
O45   O     O_R   0.440620 0.426560 0.986760 -0.521537
O46   O     O_R   0.559380 0.573440 0.013240 -0.521100
O47   O     O_R   0.559380 0.426560 0.013240 -0.521492
O48   O     O_R   0.440620 0.573440 0.986760 -0.520704
Cl1   Cl    Cl    0.231617 0.499989 0.602229 -0.561517
Cl2   Cl    Cl    0.776541 0.498075 0.390722 -0.562533
Cl3   Cl    Cl    0.725842 0.998251 0.606812 -0.561482
Cl4   Cl    Cl    0.273690 0.998555 0.393572 -0.561630
N1    N     N_R   0.128591 0.850552 0.035831 0.126866
O49   O     O_R   0.106720 0.803339 0.098973 -0.350141
O50   O     O_R   0.142429 0.912087 0.054228 -0.318527
N2    N     N_R   0.872143 0.150659 0.963575 0.126663
O51   O     O_R   0.858189 0.089427 0.944594 -0.319833
O52   O     O_R   0.894350 0.198065 0.900778 -0.354807
N3    N     N_R   0.871545 0.850885 0.964031 0.126587
O53   O     O_R   0.893289 0.803611 0.900967 -0.349445
O54   O     O_R   0.857869 0.912642 0.945525 -0.319939
N4    N     N_R   0.128447 0.149127 0.035974 0.126708
O55   O     O_R   0.142125 0.087371 0.054476 -0.318491
O56   O     O_R   0.106711 0.196402 0.099038 -0.344296
N5    N     N_R   0.628679 0.350706 0.035754 0.126969
O57   O     O_R   0.606791 0.303501 0.098900 -0.350062
O58   O     O_R   0.642513 0.412243 0.054152 -0.318796
N6    N     N_R   0.372440 0.651092 0.963380 0.127040
O59   O     O_R   0.358139 0.590332 0.943802 -0.320066
O60   O     O_R   0.396060 0.698242 0.900661 -0.347840
N7    N     N_R   0.371661 0.350708 0.963933 0.126358
O61   O     O_R   0.393411 0.303425 0.900881 -0.349914
O62   O     O_R   0.357984 0.412457 0.945405 -0.320220
N8    N     N_R   0.628431 0.649166 0.035998 0.126524
O63   O     O_R   0.642072 0.587369 0.054453 -0.319282
O64   O     O_R   0.606891 0.696492 0.099043 -0.348210

loop_
_geom_bond_atom_site_label_1
_geom_bond_atom_site_label_2
_geom_bond_distance
_ccdc_geom_bond_type
C118  C126  1.403739 A    
Cu2   Cu5   2.677069 S    
C33   C53   1.418239 A    
C99   C107  1.421469 A    
C10   C39   1.485379 S    
C35   C55   1.418677 A    
C16   C41   1.492196 S    
N8    O63   1.301279 A    
C73   C86   1.404149 A    
Cu10  O46   1.970521 S    
O35   C141  1.306814 A    
C122  C130  1.403828 A    
C76   C87   1.404417 A    
C58   H6    1.079865 S    
Cu11  O41   1.970521 S    
Cu6   O22   1.961803 S    
C6    O22   1.288357 A    
C34   C52   1.409769 A    
C74   C138  1.470638 S    
O37   Cu9   1.964198 S    
C22   C24   1.429299 A    
O3    Cu3   1.962404 S    
C94   N2    1.434478 S    
C80   C88   1.395383 A    
C83   H31   1.083190 S    
C57   C65   1.394080 A    
C126  H42   1.083880 S    
C79   H27   1.083191 S    
C43   C48   1.414802 A    
C120  C128  1.404028 A    
C36   C44   1.427342 A    
C78   C86   1.394836 A    
C33   C41   1.436434 A    
C7    C120  1.465985 S    
C107  C145  1.473193 S    
C94   C102  1.420262 A    
C76   C140  1.472752 S    
C93   C133  1.403139 A    
O40   C146  1.306827 A    
C141  O41   1.287406 A    
C28   C61   1.395808 A    
C47   Cl3   1.777936 S    
C132  H48   1.083862 S    
C3    O19   1.290287 A    
C145  O45   1.287422 A    
C84   C92   1.395405 A    
C101  C143  1.471955 S    
C82   H30   1.083197 S    
O12   Cu4   1.957485 S    
O13   Cu5   1.957840 S    
C19   C51   1.422694 A    
C77   C85   1.394654 A    
C98   C106  1.420054 A    
C97   C105  1.420417 A    
N4    O56   1.300710 A    
C12   C37   1.509258 S    
C103  C111  1.396565 A    
Cu9   O45   1.970521 S    
C104  C112  1.396582 A    
C98   C138  1.402932 A    
C26   C63   1.395772 A    
O2    C13   1.313199 A    
C17   C21   1.413306 A    
C71   C135  1.472713 S    
C58   C66   1.389994 A    
C9    C40   1.504702 S    
C129  H45   1.083905 S    
C11   C38   1.496051 S    
Cu3   O19   1.961484 S    
C36   C56   1.415769 A    
C81   C89   1.394581 A    
O10   Cu2   1.957840 S    
N7    O62   1.301322 A    
O34   C144  1.305756 A    
O4    Cu4   1.962406 S    
O5    Cu5   1.966512 S    
C54   C62   1.390971 A    
Cu12  O43   1.967812 S    
C110  H34   1.083345 S    
C45   Cl1   1.777821 S    
C127  C135  1.395296 A    
H19   C92   1.083115 S    
C100  C140  1.403987 A    
Cu9   O48   1.967810 S    
C29   C37   1.436107 A    
H17   C90   1.083169 S    
O32   C16   1.291251 A    
C35   C43   1.438352 A    
C102  C110  1.396828 A    
C31   C39   1.434634 A    
C114  C122  1.394221 A    
H22   C85   1.083184 S    
O7    C12   1.315968 A    
C8    C119  1.465901 S    
Cu2   O26   1.968780 S    
N1    O49   1.300705 A    
O40   Cu9   1.967953 S    
C21   C23   1.416463 A    
C73   C137  1.470586 S    
C20   C27   1.411446 A    
N2    O51   1.301293 A    
C112  C120  1.394436 A    
O33   Cu11  1.964198 S    
C102  C144  1.471923 S    
O28   C12   1.295655 A    
O16   C3    1.300085 A    
C71   C79   1.399805 A    
O29   C13   1.287103 A    
Cu9   Cu10  2.684774 S    
C130  C138  1.394998 A    
C123  C131  1.404066 A    
C29   C49   1.415691 A    
C121  C129  1.403623 A    
H21   C86   1.083176 S    
Cu4   O28   1.965752 S    
C55   C63   1.388248 A    
Cu5   O29   1.968780 S    
C20   C52   1.422960 A    
C60   C68   1.384746 A    
H24   C87   1.083118 S    
C143  O43   1.287798 A    
Cu8   O32   1.965752 S    
C2    C121  1.465088 S    
O37   C147  1.305828 A    
C116  C124  1.394434 A    
O35   Cu12  1.967952 S    
C132  C140  1.395311 A    
C106  C114  1.396802 A    
C72   C136  1.472795 S    
Cu4   Cu7   2.682597 S    
C66   H14   1.081147 S    
Cu1   O17   1.961801 S    
O9    C6    1.298439 A    
O26   C10   1.289952 A    
O11   C8    1.300110 A    
O12   C7    1.300086 A    
O39   Cu10  1.967952 S    
O13   C2    1.298429 A    
C104  C142  1.473197 S    
C96   C104  1.421477 A    
Cu11  O44   1.967810 S    
C4    C123  1.466108 S    
C114  H38   1.083348 S    
N3    O53   1.300717 A    
C128  C136  1.395315 A    
C131  H47   1.083858 S    
O1    Cu1   1.966512 S    
C70   C89   1.404077 A    
Cu10  O47   1.967812 S    
O14   Cu6   1.957840 S    
Cu7   O31   1.965752 S    
C32   C40   1.434622 A    
C83   C91   1.395442 A    
C19   C25   1.410717 A    
C31   C50   1.411226 A    
C126  C134  1.394928 A    
C42   C48   1.404405 A    
O8    Cu8   1.962406 S    
C95   C103  1.421472 A    
C95   N3    1.434444 S    
C36   C51   1.410379 A    
C101  C109  1.396782 A    
N6    O59   1.301526 A    
C5    C118  1.465572 S    
C1    O17   1.288425 A    
C29   C57   1.412859 A    
C18   C22   1.417842 A    
Cu12  O42   1.970521 S    
C34   C54   1.415641 A    
C117  C125  1.403666 A    
Cu11  Cu12  2.684774 S    
C60   H8    1.075015 S    
C67   H15   1.078922 S    
C69   C90   1.404194 A    
C94   C134  1.403112 A    
C82   C90   1.394852 A    
O11   Cu3   1.957485 S    
C17   C49   1.433917 A    
O36   C142  1.306808 A    
C73   C81   1.399354 A    
C68   H16   1.081566 S    
C59   H7    1.077906 S    
C107  C115  1.396600 A    
C14   C43   1.494622 S    
O6    Cu6   1.966510 S    
C115  C123  1.394450 A    
C105  C113  1.396752 A    
C75   C139  1.472820 S    
O38   Cu10  1.964194 S    
C113  C121  1.394089 A    
C46   Cl2   1.777363 S    
C108  C116  1.396569 A    
O38   C148  1.305666 A    
C109  H33   1.083361 S    
C25   C27   1.417678 A    
O36   Cu11  1.967953 S    
C69   C133  1.470736 S    
N7    O61   1.300719 A    
C112  H36   1.083348 S    
H18   C89   1.083185 S    
C100  C108  1.421501 A    
C20   C26   1.405877 A    
C129  C137  1.394722 A    
C34   C42   1.425711 A    
Cu3   O27   1.965752 S    
C142  O42   1.287414 A    
C97   N5    1.434422 S    
C22   C67   1.406363 A    
C146  O46   1.287392 A    
C54   H2    1.078625 S    
C40   C45   1.413675 A    
C96   N4    1.434435 S    
C70   C78   1.399446 A    
O30   C14   1.288897 A    
C127  H43   1.083871 S    
C23   C66   1.406710 A    
C18   C50   1.429339 A    
C95   C135  1.403956 A    
C41   C47   1.414954 A    
Cu6   O30   1.968780 S    
C99   C139  1.403974 A    
C75   C88   1.404436 A    
C13   C44   1.492721 S    
O4    C15   1.313215 A    
C97   C137  1.403091 A    
O5    C10   1.304292 A    
C53   C61   1.387954 A    
N8    O64   1.300656 A    
C79   C87   1.395384 A    
C59   C67   1.392688 A    
C69   C77   1.399369 A    
Cu1   Cu6   2.677069 S    
C61   H9    1.083032 S    
C78   H26   1.083194 S    
Cu3   Cu8   2.682597 S    
C72   C80   1.399784 A    
N3    O54   1.301304 A    
O10   C5    1.298418 A    
O27   C11   1.289639 A    
O15   C4    1.300105 A    
C105  C147  1.471903 S    
C31   C59   1.412285 A    
C109  C117  1.394111 A    
O14   C1    1.298432 A    
C48   Cl4   1.777925 S    
Cu4   O20   1.961482 S    
Cu5   O21   1.961801 S    
C4    O20   1.290346 A    
N2    O52   1.300709 A    
C5    O21   1.288433 A    
N4    O55   1.301293 A    
C84   H32   1.083189 S    
C39   C46   1.413170 A    
C80   H28   1.083193 S    
C64   H12   1.081984 S    
C72   C91   1.404454 A    
C147  O47   1.287781 A    
C26   C28   1.408530 A    
C30   C38   1.427229 A    
C71   C92   1.404403 A    
O34   Cu12  1.964194 S    
C110  C118  1.394195 A    
C44   C47   1.403644 A    
C98   N6    1.434253 S    
C76   C84   1.399814 A    
C77   H25   1.083210 S    
C24   C65   1.406747 A    
C56   H4    1.078448 S    
C75   C83   1.399815 A    
C74   C82   1.399410 A    
O33   C143  1.305837 A    
O7    Cu7   1.962404 S    
C93   C101  1.420449 A    
C21   C68   1.397947 A    
N5    O58   1.301270 A    
O25   C9    1.292275 A    
C125  H41   1.083896 S    
C62   H10   1.081992 S    
C81   H29   1.083210 S    
C38   C46   1.399640 A    
O15   Cu7   1.957485 S    
C128  H44   1.083861 S    
C131  C139  1.395382 A    
C124  C132  1.404020 A    
C30   C50   1.414173 A    
C96   C136  1.403954 A    
C2    O18   1.288301 A    
C3    C124  1.466032 S    
C33   C51   1.415792 A    
C1    C122  1.465583 S    
N1    O50   1.301278 A    
C70   C134  1.470625 S    
H20   C91   1.083112 S    
C111  C119  1.394425 A    
O1    C14   1.310106 A    
C19   C28   1.406454 A    
O3    C16   1.309781 A    
C119  C127  1.404003 A    
N5    O57   1.300699 A    
C65   H13   1.078639 S    
C15   C42   1.491966 S    
Cu2   O18   1.961803 S    
O8    C11   1.315680 A    
C35   C52   1.417058 A    
C106  C148  1.471868 S    
O9    Cu1   1.957840 S    
N6    O60   1.301580 A    
C93   N1    1.434439 S    
C57   H5    1.076840 S    
C99   N7    1.434481 S    
C17   C24   1.414313 A    
O31   C15   1.290045 A    
C32   C60   1.414677 A    
C18   C23   1.411025 A    
C103  C141  1.473194 S    
C144  O44   1.287888 A    
C115  H39   1.083347 S    
C63   H11   1.083051 S    
C113  H37   1.083358 S    
O2    Cu2   1.966510 S    
C111  H35   1.083347 S    
C148  O48   1.287970 A    
C130  H46   1.083878 S    
C56   C64   1.391566 A    
C100  N8    1.434483 S    
C55   H3    1.073506 S    
C32   C49   1.416352 A    
C74   C85   1.404088 A    
Cu7   O23   1.961484 S    
C125  C133  1.394794 A    
Cu8   O24   1.961482 S    
C7    O23   1.290313 A    
C8    O24   1.290284 A    
O6    C9    1.313168 A    
H23   C88   1.083110 S    
Cu1   O25   1.968780 S    
C37   C45   1.412972 A    
C6    C117  1.465255 S    
C116  H40   1.083341 S    
O16   Cu8   1.957485 S    
C53   H1    1.074111 S    
C25   C64   1.399912 A    
O39   C145  1.306800 A    
C30   C58   1.407432 A    
C27   C62   1.399465 A    
C108  C146  1.473197 S    
