data_mof_unit_20213.cif
_audit_creation_date              2012-12-11T15:31:42-0500
_audit_creation_method            fapswitch 2.2
_symmetry_space_group_name_H-M    P1
_symmetry_Int_Tables_number       1
_space_group_crystal_system       triclinic
_cell_length_a                    13.57266
_cell_length_b                    13.561854
_cell_length_c                    27.677392
_cell_angle_alpha                 90.447246
_cell_angle_beta                  90.104826
_cell_angle_gamma                 119.915258
_cell_volume                      4415.57587872

loop_
_atom_site_label
_atom_site_type_symbol
_atom_type_description
_atom_site_fract_x
_atom_site_fract_y
_atom_site_fract_z
_atom_type_partial_charge
C1    C     C_R   0.619500 0.898188 0.431312 0.550773
C2    C     C_R   0.654040 0.414128 0.220640 -0.124373
C3    C     C_R   0.643643 0.397550 0.270944 0.234974
C4    C     C_R   0.671667 0.320377 0.291745 0.070819
C5    C     C_R   0.684665 0.349468 0.191256 -0.048477
C6    C     C_1   0.693236 0.367642 0.139885 -0.055148
C7    C     C_1   0.653833 0.296385 0.342726 0.057864
C8    C     C_1   0.701628 0.391968 0.097714 -0.010152
C9    C     C_1   0.230367 0.861563 0.383084 0.024264
C10   C     C_R   0.174087 0.928818 0.264591 0.172945
C11   C     C_R   0.159197 0.920052 0.214303 -0.129863
C12   C     C_R   0.599857 0.218754 0.431363 0.547072
C13   C     C_R   0.145713 0.734605 0.214985 0.272755
C14   C     C_R   0.162027 0.744089 0.265247 -0.130640
C15   C     C_R   0.175395 0.840272 0.290251 0.005342
C16   C     C_R   0.146469 0.824067 0.189333 0.008251
C17   C     C_1   0.124398 0.812430 0.137982 -0.014479
C18   C     C_1   0.200809 0.850852 0.341315 0.006877
C19   C     C_1   0.096905 0.794397 0.095951 0.003387
C20   C     C_1   0.634490 0.865173 0.383757 -0.002225
C21   C     C_R   0.607372 0.880381 0.258458 -0.093077
C22   C     C_R   0.615313 0.869006 0.208570 -0.103081
C23   C     C_R   0.279329 0.878738 0.430567 0.554267
C24   C     C_R   0.701387 0.752236 0.222855 -0.106950
C25   C     C_R   0.693766 0.763926 0.272766 -0.105216
C26   C     C_R   0.646946 0.828278 0.290669 0.017566
C27   C     C_R   0.662554 0.805058 0.190644 0.032327
C28   C     C_1   0.675954 0.796494 0.139445 -0.055184
C29   C     C_1   0.641757 0.844814 0.341853 -0.060833
C30   C     C_1   0.693305 0.786954 0.097416 -0.008864
C31   C     C_R   0.634746 0.271038 0.617154 -0.008248
C32   C     C_R   0.714796 0.254501 0.642444 -0.124302
C33   C     C_R   0.723195 0.266893 0.691999 -0.171672
C34   C     C_R   0.620352 0.900759 0.568998 0.543338
C35   C     C_R   0.653592 0.298304 0.717064 0.043224
C36   C     C_R   0.577664 0.322597 0.692043 0.278450
C37   C     C_R   0.570748 0.310772 0.641508 -0.117392
C38   C     C_R   0.569583 0.267768 0.799247 -0.068063
C39   C     C_R   0.582270 0.299594 0.847740 -0.118474
C40   C     C_R   0.787356 0.401594 0.837851 -0.133125
C41   C     C_R   0.774502 0.373534 0.789401 -0.128564
C42   C     C_R   0.665519 0.310877 0.769439 0.064053
C43   C     C_R   0.691360 0.370308 0.866617 0.026072
C44   C     C_R   0.232420 0.867659 0.616936 0.038774
C45   C     C_R   0.600979 0.221912 0.568882 0.546789
C46   C     C_R   0.273161 0.965820 0.646144 -0.161563
C47   C     C_R   0.254480 0.956801 0.695477 -0.137877
C48   C     C_R   0.193167 0.849640 0.716442 0.003977
C49   C     C_R   0.146215 0.751431 0.687259 -0.096804
C50   C     C_R   0.165348 0.759555 0.637637 0.148720
C51   C     C_R   0.188558 0.758736 0.794350 -0.132974
C52   C     C_R   0.155354 0.736828 0.842903 0.243353
C53   C     C_R   0.115772 0.894386 0.841333 0.094046
C54   C     C_R   0.145035 0.910992 0.792897 -0.113349
C55   C     C_R   0.175876 0.839998 0.768730 -0.040311
C56   C     C_R   0.280025 0.881661 0.568424 0.571871
C57   C     C_R   0.111613 0.800652 0.865807 0.041382
C58   C     C_R   0.637981 0.861986 0.615681 -0.016890
C59   C     C_R   0.551268 0.759792 0.634734 -0.110647
C60   C     C_R   0.550960 0.735042 0.683801 0.278232
C61   C     C_R   0.645506 0.808694 0.712490 0.042458
C62   C     C_R   0.735446 0.907376 0.692461 -0.174703
C63   C     C_R   0.731285 0.934504 0.644612 -0.143438
C64   C     C_R   0.754805 0.789094 0.778790 -0.110794
C65   C     C_R   0.773775 0.783324 0.827462 -0.091936
C66   C     C_R   0.589483 0.762030 0.846262 -0.137269
C67   C     C_1   0.632885 0.267406 0.384261 0.023255
C68   C     C_R   0.571107 0.769996 0.797080 -0.079075
C69   C     C_R   0.654747 0.785110 0.763304 0.067000
C70   C     C_R   0.692608 0.772297 0.861399 0.039820
C71   C     C_R   0.049322 0.761206 0.048264 0.545125
C72   C     C_R   0.714337 0.435921 0.049784 0.543672
C73   C     C_R   0.723657 0.770773 0.049589 0.542040
C74   C     C_R   0.046704 0.757643 0.911035 0.575830
C75   C     C_R   0.708051 0.428113 0.912770 0.542325
C76   C     C_R   0.717998 0.764760 0.911657 0.534643
C77   C     C_R   0.708206 0.259077 0.262637 0.234395
C78   C     C_R   0.710463 0.271448 0.211991 -0.128921
Cr1   Cr    Cr6+3 0.417720 0.831920 0.499820 1.055918
Cr2   Cr    Cr6+3 0.668190 0.085770 0.500360 1.043566
Cr3   Cr    Cr6+3 0.414060 0.082260 0.499840 1.044869
Cr4   Cr    Cr6+3 0.908000 0.821090 0.979770 1.080574
Cr5   Cr    Cr6+3 0.912420 0.571130 0.979880 1.028243
Cr6   Cr    Cr6+3 0.657970 0.566940 0.980940 1.039958
H1    H     H_    0.585823 0.910906 0.184098 0.121033
H2    H     H_    0.738749 0.703105 0.209372 0.111759
H3    H     H_    0.725040 0.723679 0.297263 0.150342
H4    H     H_    0.765482 0.223917 0.624533 0.152228
H5    H     H_    0.485195 0.214412 0.784447 0.127635
H6    H     H_    0.507534 0.273525 0.869762 0.135890
H7    H     H_    0.781807 0.248305 0.711033 0.115512
H8    H     H_    0.849614 0.407102 0.767012 0.105932
H9    H     H_    0.872499 0.456611 0.851610 0.134181
H10   H     H_    0.732490 0.220800 0.188793 0.110759
H11   H     H_    0.512299 0.327653 0.621426 0.121232
H12   H     H_    0.326298 0.049940 0.631476 0.133892
H13   H     H_    0.222538 0.711507 0.776080 0.093798
H14   H     H_    0.291721 0.033380 0.717543 0.108433
H15   H     H_    0.139727 0.977448 0.773628 0.145686
H16   H     H_    0.095228 0.668297 0.703149 0.130716
H17   H     H_    0.481479 0.701126 0.611810 0.134803
H18   H     H_    0.638043 0.477144 0.204307 0.113780
H19   H     H_    0.819525 0.799403 0.753181 0.123023
H20   H     H_    0.852032 0.786947 0.838741 0.148734
H21   H     H_    0.494069 0.768455 0.785740 0.121542
H22   H     H_    0.525495 0.751200 0.872328 0.119227
H23   H     H_    0.807812 0.965475 0.714458 0.123154
H24   H     H_    0.798971 0.014174 0.630890 0.142590
H25   H     H_    0.157552 0.988110 0.194735 0.148856
H26   H     H_    0.165861 0.676881 0.284594 0.124342
H27   H     H_    0.571612 0.930969 0.271946 0.154242
O1    O     O_R   0.302900 0.805360 0.446400 -0.502426
O2    O     O_R   0.657980 0.180990 0.549630 -0.498706
O3    O     O_R   0.503420 0.197810 0.553190 -0.526428
O4    O     O_R   0.320350 0.978840 0.548910 -0.514343
O5    O     O_3   0.499990 0.999990 0.500010 -0.260639
O6    O     O_R   0.819150 0.845650 0.033320 -0.502773
O7    O     O_R   0.006060 0.815720 0.028680 -0.491999
O8    O     O_R   0.028100 0.664460 0.032550 -0.503647
O9    O     O_R   0.811290 0.477490 0.029660 -0.500629
O10   O     O_R   0.638120 0.455970 0.034270 -0.501474
O11   O     O_R   0.667540 0.672320 0.030160 -0.494720
O12   O     O_R   0.522090 0.841370 0.450730 -0.497001
O13   O     O_R   0.814460 0.840990 0.926980 -0.476373
O14   O     O_R   0.001710 0.811400 0.930110 -0.462075
O15   O     O_R   0.023410 0.659800 0.926210 -0.474096
O16   O     O_R   0.806940 0.473170 0.931090 -0.516106
O17   O     O_R   0.633420 0.451310 0.927930 -0.504225
O18   O     O_R   0.663190 0.668000 0.931580 -0.497451
O19   O     O_3   0.826130 0.653050 0.980200 -0.264432
O20   O     O_R   0.693280 0.995650 0.447220 -0.498712
O21   O     O_R   0.657260 0.178740 0.451050 -0.489865
O22   O     O_R   0.502640 0.195380 0.446850 -0.495485
O23   O     O_R   0.319630 0.976590 0.450330 -0.480254
O24   O     O_R   0.303680 0.807790 0.552740 -0.466124
O25   O     O_R   0.522820 0.843620 0.549310 -0.506813
O26   O     O_R   0.694060 0.998080 0.553560 -0.516577
O27   O     O_3   0.733275 0.182159 0.284521 -0.564587
C79   C     C_3   0.836985 0.194722 0.267279 -0.024202
H28   H     H_    0.901016 0.285226 0.259657 0.119601
H29   H     H_    0.821132 0.142447 0.233964 0.139955
C80   C     C_3   0.887770 0.152596 0.305372 -0.341740
H30   H     H_    0.828231 0.061792 0.313211 0.177659
H31   H     H_    0.968926 0.161401 0.292103 0.135433
H32   H     H_    0.904648 0.203348 0.339178 0.168174
O28   O     O_3   0.518468 0.365019 0.717703 -0.540784
C81   C     C_3   0.403632 0.314694 0.702555 -0.009647
H33   H     H_    0.369224 0.226894 0.687650 0.095803
H34   H     H_    0.395833 0.369078 0.674705 0.166680
C82   C     C_3   0.330745 0.307021 0.745642 -0.357675
H35   H     H_    0.365846 0.391562 0.763511 0.193196
H36   H     H_    0.242302 0.277636 0.733465 0.095436
H37   H     H_    0.328955 0.245321 0.772220 0.147309
O29   O     O_3   0.170770 0.659258 0.869928 -0.533179
C83   C     C_3   0.138282 0.557063 0.844162 -0.011734
H38   H     H_    0.211986 0.565947 0.823428 0.127339
H39   H     H_    0.064994 0.533307 0.819213 0.105976
C84   C     C_3   0.103851 0.460775 0.879855 -0.347429
H40   H     H_    0.030486 0.449940 0.901615 0.168528
H41   H     H_    0.079145 0.380193 0.859994 0.106528
H42   H     H_    0.176097 0.479899 0.904459 0.167270
Br1   Br    Br    0.081780 0.003997 0.869850 -0.531501
Br2   Br    Br    0.097831 0.620722 0.600462 -0.527060
O30   O     O_3   0.463662 0.635597 0.702950 -0.551349
C85   C     C_3   0.360014 0.636618 0.699591 -0.014281
H43   H     H_    0.334264 0.636874 0.661477 0.160409
H44   H     H_    0.366466 0.712121 0.718769 0.117901
C86   C     C_3   0.265966 0.529826 0.722568 -0.373662
H45   H     H_    0.291426 0.521084 0.759655 0.144381
H46   H     H_    0.186614 0.534449 0.724165 0.099742
H47   H     H_    0.249539 0.454110 0.700703 0.157819
O31   O     O_3   0.613817 0.460950 0.300905 -0.568301
C87   C     C_3   0.508363 0.448783 0.286394 -0.010881
H48   H     H_    0.445195 0.358833 0.276709 0.167351
H49   H     H_    0.520149 0.504603 0.255172 0.135190
C88   C     C_3   0.459935 0.485084 0.327942 -0.345315
H50   H     H_    0.520016 0.574787 0.338412 0.160754
H51   H     H_    0.377860 0.477680 0.316776 0.114922
H52   H     H_    0.445301 0.429699 0.359605 0.178229
Br3   Br    Br    0.194653 0.063781 0.296690 -0.556668
O32   O     O_3   0.137561 0.641653 0.190440 -0.547038
C89   C     C_3   0.024973 0.550346 0.193813 -0.007476
H53   H     H_    0.962672 0.575040 0.180578 0.136301
H54   H     H_    0.004487 0.520447 0.231770 0.123778
C90   C     C_3   0.012923 0.452267 0.162477 -0.357089
H55   H     H_    0.072582 0.424165 0.175186 0.158896
H56   H     H_    0.924936 0.379583 0.164501 0.091249
H57   H     H_    0.031965 0.479553 0.124265 0.179334

loop_
_geom_bond_atom_site_label_1
_geom_bond_atom_site_label_2
_ccdc_geom_bond_type
Cr6   O17   S    
C64   H19   S    
C66   C68   A    
C21   C26   A    
C51   H13   S    
C85   H43   S    
Cr2   O21   S    
C72   O10   A    
C11   H25   S    
C41   C42   A    
C15   C18   S    
C19   C71   S    
C35   C36   A    
C24   C27   A    
C40   H9    S    
O27   C79   S    
Cr3   O23   S    
C66   C70   A    
C87   H48   S    
C23   O1    A    
C38   H5    S    
C47   H14   S    
Cr1   O1    S    
C21   C22   A    
C36   C37   A    
C81   H34   S    
C38   C42   A    
C10   C15   A    
C33   H7    S    
C5    C6    S    
C33   C35   A    
C79   C80   S    
C53   Br1   S    
C90   H56   S    
C74   O14   A    
C83   H39   S    
C2    H18   S    
C52   O29   S    
C65   C70   A    
C32   H4    S    
Cr6   O18   S    
C25   H3    S    
C37   H11   S    
C75   O17   A    
C11   C16   A    
C22   H1    S    
Cr5   O8    S    
C35   C42   S    
C89   H53   S    
C81   H33   S    
C17   C19   T    
C54   C55   A    
C45   O3    A    
C86   H47   S    
Cr2   O5    S    
C53   C54   A    
C16   C17   S    
C82   H37   S    
Cr3   O3    S    
Cr4   O19   S    
C39   H6    S    
C75   O16   A    
C23   O23   A    
C77   C78   A    
Cr5   O9    S    
C88   H51   S    
C48   C55   S    
C59   C60   A    
C85   H44   S    
Cr2   O20   S    
C13   C14   A    
C83   C84   S    
C84   H41   S    
C80   H32   S    
Cr3   O4    S    
C66   H22   S    
C4    C7    S    
Cr4   O13   S    
C21   H27   S    
C44   C46   A    
C20   C29   T    
C87   H49   S    
C43   C75   S    
C38   C39   A    
C12   C67   S    
C8    C72   S    
C73   O6    A    
C51   C52   A    
C59   H17   S    
C81   C82   S    
C77   O27   S    
Cr5   O19   S    
C52   C57   A    
C30   C73   S    
C53   C57   A    
C68   C69   A    
C90   H57   S    
C6    C8    T    
C62   H23   S    
Cr6   O10   S    
O32   C89   S    
Cr1   O12   S    
C31   C37   A    
C32   C33   A    
C60   C61   A    
C89   C90   S    
C76   O13   A    
C57   C74   S    
C1    O12   A    
Cr4   O14   S    
C62   C63   A    
O30   C85   S    
C76   O18   A    
C44   C56   S    
C47   C48   A    
C34   O25   A    
C72   O9    A    
C64   C69   A    
C24   C25   A    
O29   C83   S    
C36   O28   S    
C88   H50   S    
Cr1   O25   S    
C49   C50   A    
C85   C86   S    
C13   O32   S    
C22   C27   A    
C63   H24   S    
C70   C76   S    
C84   H40   S    
C82   H36   S    
C54   H15   S    
C58   C59   A    
C2    C5    A    
C68   H21   S    
Cr4   O7    S    
Cr5   O15   S    
C3    C4    A    
C83   H38   S    
C56   O24   A    
O31   C87   S    
O28   C81   S    
C87   C88   S    
C44   C50   A    
C58   C63   A    
C14   H26   S    
C46   C47   A    
C86   H45   S    
C1    C20   S    
C12   O21   A    
C71   O7    A    
C50   Br2   S    
C80   H30   S    
Cr6   O11   S    
C31   C32   A    
C9    C23   S    
Cr5   O16   S    
C1    O20   A    
C39   C43   A    
C79   H28   S    
Cr3   O22   S    
Cr1   O24   S    
C34   O26   A    
Cr4   O6    S    
C71   O8    A    
C12   O22   A    
C86   H46   S    
C61   C69   S    
C40   C43   A    
C88   H52   S    
C28   C30   T    
C2    C3    A    
C25   C26   A    
C10   Br3   S    
C4    C77   A    
C64   C65   A    
C49   H16   S    
C79   H29   S    
C90   H55   S    
C74   O15   A    
C78   H10   S    
C48   C49   A    
Cr3   O5    S    
Cr6   O19   S    
C60   O30   S    
C56   O4    A    
C51   C55   A    
C61   C62   A    
C3    O31   S    
C89   H54   S    
C10   C11   A    
C7    C67   T    
C45   O2    A    
C9    C18   T    
C41   H8    S    
C46   H12   S    
Cr2   O2    S    
C26   C29   S    
C84   H42   S    
C73   O11   A    
C31   C45   S    
C13   C16   A    
C27   C28   S    
C34   C58   S    
C14   C15   A    
C40   C41   A    
C65   H20   S    
C5    C78   A    
Cr1   O5    S    
C24   H2    S    
C80   H31   S    
Cr2   O26   S    
C82   H35   S    
