data_mof_unit_59157.cif
_audit_creation_date              2012-12-10T17:53:21-0500
_audit_creation_method            fapswitch 2.2
_symmetry_space_group_name_H-M    P1
_symmetry_Int_Tables_number       1
_space_group_crystal_system       triclinic
_cell_length_a                    23.411654
_cell_length_b                    10.605986
_cell_length_c                    9.96943
_cell_angle_alpha                 91.184536
_cell_angle_beta                  89.372168
_cell_angle_gamma                 92.825072
_cell_volume                      2471.78681024

loop_
_atom_site_label
_atom_site_type_symbol
_atom_type_description
_atom_site_fract_x
_atom_site_fract_y
_atom_site_fract_z
_atom_type_partial_charge
C1    C     C_R   0.499759 0.260846 0.498882 0.968465
C2    C     C_R   0.121839 0.624817 0.483076 0.528510
C3    C     C_R   0.239115 0.528627 0.383333 -0.039913
C4    C     C_R   0.389518 0.501468 0.500719 0.858597
C5    C     C_R   0.298258 0.524660 0.382227 -0.110562
C6    C     C_R   0.327429 0.507563 0.502218 -0.052161
C7    C     C_R   0.296832 0.498300 0.623702 -0.194308
C8    C     C_R   0.237676 0.501879 0.624546 -0.028064
C9    C     C_R   0.208891 0.516180 0.504268 0.289657
C10   C     C_R   0.761980 0.494433 0.616946 -0.093004
C11   C     C_R   0.702694 0.493578 0.618528 -0.189007
C12   C     C_R   0.966711 0.282742 0.539471 -0.149030
C13   C     C_R   0.672858 0.500412 0.497680 -0.022833
C14   C     C_R   0.703088 0.507782 0.375381 -0.169716
C15   C     C_R   0.762411 0.508918 0.374250 -0.086660
C16   C     C_R   0.499420 0.739066 0.501175 0.875671
C17   C     C_R   0.791710 0.502343 0.494966 0.311235
C18   C     C_R   0.395465 0.122439 0.569595 -0.183902
C19   C     C_R   0.346325 0.053145 0.609871 -0.130779
C20   C     C_R   0.346760 0.922178 0.617013 0.461962
C21   C     C_R   0.396368 0.860411 0.583114 -0.224920
C22   C     C_R   0.446550 0.929668 0.542343 0.036639
C23   C     C_R   0.026180 0.284962 0.541791 -0.141808
C24   C     C_R   0.446336 0.061392 0.536949 0.063854
C25   C     C_R   0.497033 0.128019 0.496235 -0.150789
C26   C     C_R   0.546262 0.067467 0.456155 0.369332
C27   C     C_R   0.545772 0.938430 0.459201 -0.230811
C28   C     C_R   0.610537 0.500282 0.499295 0.900449
C29   C     C_R   0.496962 0.871188 0.503390 -0.124392
C30   C     C_R   0.404218 0.375744 0.128859 0.311590
C31   C     C_R   0.355367 0.348485 0.050487 0.387668
C32   C     C_R   0.361689 0.335506 0.913416 -0.306343
C33   C     C_R   0.413669 0.368174 0.854316 -0.219742
C34   C     C_R   0.058303 0.398475 0.522276 -0.017317
C35   C     C_R   0.456489 0.436140 0.925874 0.142903
C36   C     C_R   0.454649 0.437412 0.070089 0.034360
C37   C     C_R   0.542450 0.559434 0.071673 -0.076794
C38   C     C_R   0.542163 0.560273 0.929087 -0.085428
C39   C     C_R   0.882552 0.615919 0.473798 0.507055
C40   C     C_R   0.878800 0.394231 0.515251 0.514027
C41   C     C_R   0.938413 0.393984 0.517529 -0.021576
C42   C     C_R   0.970284 0.508370 0.497523 -0.017703
C43   C     C_R   0.942265 0.620499 0.475179 -0.016466
C44   C     C_R   0.030312 0.510641 0.500024 -0.018534
C45   C     C_R   0.062206 0.625041 0.480239 -0.026552
C46   C     C_R   0.033895 0.736256 0.458145 -0.140280
C47   C     C_R   0.974404 0.733994 0.455576 -0.149485
C48   C     C_R   0.117981 0.402978 0.523800 0.519712
Cl1   Cl    Cl    0.609742 0.150727 0.405116 -0.582504
Cl2   Cl    Cl    0.284703 0.834982 0.666472 -0.553019
Cl3   Cl    Cl    0.405312 0.265066 0.256060 -0.541126
Cl4   Cl    Cl    0.288997 0.297260 0.121471 -0.533784
H1    H     H_    0.943055 0.193800 0.554969 0.197820
H2    H     H_    0.046837 0.197644 0.558913 0.198711
H3    H     H_    0.327255 0.293374 0.853205 0.200992
H4    H     H_    0.419405 0.339207 0.752660 0.221323
H5    H     H_    0.576661 0.610167 0.876212 0.143912
H6    H     H_    0.057557 0.825208 0.442751 0.201046
H7    H     H_    0.953740 0.821287 0.438378 0.196102
H8    H     H_    0.216638 0.539966 0.290320 0.161522
H9    H     H_    0.321004 0.534855 0.287666 0.173769
H10   H     H_    0.318443 0.488543 0.717808 0.176940
H11   H     H_    0.214118 0.493265 0.718260 0.156310
H12   H     H_    0.680366 0.487632 0.714081 0.165633
H13   H     H_    0.784940 0.489464 0.710248 0.143493
H14   H     H_    0.681050 0.513150 0.280880 0.163932
H15   H     H_    0.785693 0.514852 0.279947 0.143475
H16   H     H_    0.392874 0.223449 0.561682 0.151475
H17   H     H_    0.307790 0.101490 0.634524 0.188832
H18   H     H_    0.395075 0.758676 0.588202 0.160628
H19   H     H_    0.583739 0.890136 0.428549 0.176322
H20   H     H_    0.577162 0.608479 0.125027 0.139376
N1    N     N_R   0.852457 0.504095 0.493971 -0.362380
N2    N     N_R   0.148141 0.514873 0.504336 -0.365942
N3    N     N_R   0.499460 0.498800 0.142780 -0.098523
N4    N     N_R   0.499440 0.498720 0.857170 -0.105390
O1    O     O_R   0.500000 0.316780 0.614690 -0.647179
O2    O     O_R   0.583850 0.500050 0.614640 -0.624729
O3    O     O_R   0.583840 0.500030 0.385310 -0.616034
O4    O     O_2   0.854624 0.722127 0.453601 -0.538084
O5    O     O_2   0.847253 0.285888 0.533765 -0.524326
O6    O     O_2   0.145833 0.296538 0.543424 -0.521784
O7    O     O_2   0.153416 0.733236 0.465309 -0.493435
O8    O     O_R   0.500000 0.316750 0.385360 -0.523444
O9    O     O_R   0.416160 0.499970 0.614690 -0.655572
O10   O     O_R   0.416150 0.499950 0.385360 -0.593040
O11   O     O_R   0.500000 0.683250 0.614640 -0.611198
O12   O     O_R   0.500000 0.683220 0.385310 -0.611975
Zn1   Zn    Zn3+2 0.500000 0.500020 0.653130 0.960048
Zn2   Zn    Zn3+2 0.500000 0.499980 0.346870 1.018996

loop_
_geom_bond_atom_site_label_1
_geom_bond_atom_site_label_2
_ccdc_geom_bond_type
C1    C25   S    
C30   Cl3   S    
C22   C29   A    
C27   C29   A    
C1    O1    A    
C41   C42   A    
C35   C36   A    
C31   Cl4   S    
C7    C8    A    
C38   N4    A    
C45   C46   A    
C1    O8    A    
C12   C23   A    
O1    Zn1   S    
C26   C27   A    
C37   C38   A    
O8    Zn2   S    
C18   C24   A    
C5    C6    A    
C4    O10   A    
C10   C17   A    
C18   H16   S    
C40   N1    A    
C18   C19   A    
C28   O3    A    
O3    Zn2   S    
C20   Cl2   S    
N3    Zn2   S    
C19   C20   A    
C8    C9    A    
C16   O11   A    
C13   C28   S    
C28   O2    A    
C32   H3    S    
C12   H1    S    
C2    N2    A    
N4    Zn1   S    
C3    H8    S    
C33   H4    S    
C37   N3    A    
C2    C45   A    
C13   C14   A    
C46   H6    S    
C17   N1    S    
C2    O7    S    
C42   C44   A    
O2    Zn1   S    
C35   N4    A    
C48   N2    A    
C34   C44   A    
C24   C25   A    
C4    C6    S    
C11   H12   S    
O10   Zn2   S    
C26   Cl1   S    
O9    Zn1   S    
C39   C43   A    
C4    O9    A    
C16   C29   S    
C7    H10   S    
C12   C41   A    
C3    C9    A    
C36   N3    A    
C38   H5    S    
C31   C32   A    
C23   C34   A    
C15   H15   S    
C14   H14   S    
C5    H9    S    
C40   C41   A    
O12   Zn2   S    
O11   Zn1   S    
C22   C24   A    
C19   H17   S    
C34   C48   A    
C9    N2    S    
C27   H19   S    
C44   C45   A    
C23   H2    S    
C10   H13   S    
C15   C17   A    
C46   C47   A    
C40   O5    S    
C3    C5    A    
C6    C7    A    
C30   C36   A    
C21   H18   S    
C32   C33   A    
C25   C26   A    
C39   O4    S    
C11   C13   A    
C30   C31   A    
C33   C35   A    
C48   O6    S    
C39   N1    A    
C10   C11   A    
C8    H11   S    
C47   H7    S    
C20   C21   A    
C42   C43   A    
C37   H20   S    
C16   O12   A    
C14   C15   A    
C21   C22   A    
C43   C47   A    
