data_mof_unit_18452.cif
_audit_creation_date              2013-03-05T15:58:17-0500
_audit_creation_method            fapswitch 2.2
_symmetry_space_group_name_H-M    P1
_symmetry_Int_Tables_number       1
_space_group_crystal_system       triclinic
_cell_length_a                    12.716254
_cell_length_b                    13.221701
_cell_length_c                    15.439433
_cell_angle_alpha                 86.352094
_cell_angle_beta                  98.714523
_cell_angle_gamma                 96.608211
_cell_volume                      2546.00349249

loop_
_atom_site_label
_atom_site_type_symbol
_atom_site_description
_atom_site_fract_x
_atom_site_fract_y
_atom_site_fract_z
_atom_type_partial_charge
O1    O     O_R   0.374950 0.371210 0.521360 -0.554853
O2    O     O_R   0.542050 0.338030 0.492790 -0.629452
C1    C     C_R   0.442842 0.309048 0.506132 0.909405
O3    O     O_R   0.368720 0.526070 0.390200 -0.591033
O4    O     O_R   0.535820 0.492890 0.361630 -0.640734
C2    C     C_R   0.435089 0.510611 0.336165 0.864656
Zn1   Zn    Zn3+2 0.388420 0.522150 0.519080 0.993596
Zn2   Zn    Zn3+2 0.611580 0.477850 0.480920 0.977904
O5    O     O_R   0.457950 0.661970 0.507210 -0.593877
O6    O     O_R   0.625050 0.628790 0.478640 -0.566230
O7    O     O_R   0.464180 0.507110 0.638370 -0.637923
O8    O     O_R   0.631280 0.473930 0.609800 -0.545486
C3    C     C_R   0.553290 0.691021 0.485941 0.861312
C4    C     C_R   0.562631 0.484194 0.663643 0.853240
C5    C     C_R   0.391698 0.504185 0.242935 -0.107838
C6    C     C_R   0.591086 0.456194 0.756336 -0.062344
C7    C     C_R   0.243238 0.506620 0.122926 0.490610
C8    C     C_R   0.284731 0.518050 0.211754 -0.321544
C9    C     C_R   0.455968 0.474152 0.186396 -0.250407
C10   C     C_R   0.415943 0.455957 0.098878 -0.012735
C11   C     C_R   0.310136 0.478214 0.064852 -0.043485
C12   C     C_R   0.482154 0.421728 0.043662 0.047489
C13   C     C_R   0.452362 0.431847 0.952699 0.008653
C14   C     C_R   0.346512 0.449672 0.919046 -0.349852
C15   C     C_R   0.275279 0.474066 0.973650 0.526785
C16   C     C_R   0.576519 0.376330 0.076396 -0.304872
C17   C     C_R   0.645359 0.351536 0.020314 0.296361
C18   C     C_R   0.626255 0.381797 0.931074 0.036608
C19   C     C_R   0.529972 0.424233 0.897820 0.084034
C20   C     C_R   0.702511 0.374834 0.874927 -0.132792
C21   C     C_R   0.683566 0.409426 0.787553 -0.209101
C22   C     C_R   0.516940 0.465643 0.812160 -0.235908
H1    H     H_    0.449572 0.507835 0.788519 0.159323
H2    H     H_    0.740830 0.398975 0.744546 0.172333
H3    H     H_    0.232423 0.535939 0.256499 0.190624
H4    H     H_    0.539030 0.467565 0.211205 0.175548
H5    H     H_    0.317340 0.440463 0.850383 0.166261
H6    H     H_    0.595178 0.354473 0.145096 0.159307
H7    H     H_    0.777442 0.343968 0.897828 0.203172
C23   C     C_R   0.683293 0.944690 0.410064 -0.167173
H8    H     H_    0.734706 0.794629 0.431800 0.192269
H9    H     H_    0.752314 0.975154 0.379619 0.194496
C24   C     C_R   0.575385 0.799268 0.464840 -0.219767
C25   C     C_R   0.336840 0.163576 0.568657 -0.303485
C26   C     C_R   0.326218 0.061148 0.596925 0.226794
C27   C     C_R   0.391979 0.995075 0.568435 0.439686
C28   C     C_R   0.455686 0.029270 0.501202 -0.076172
C29   C     C_R   0.462655 0.132054 0.471687 -0.037071
C30   C     C_R   0.519769 0.965809 0.467339 -0.085937
C31   C     C_R   0.604722 0.006940 0.422555 -0.008612
C32   C     C_R   0.601013 0.104844 0.383672 0.489694
C33   C     C_R   0.525690 0.164963 0.404953 -0.268514
C34   C     C_R   0.493718 0.861809 0.466700 0.522754
C35   C     C_R   0.672139 0.841756 0.437715 -0.295646
C36   C     C_R   0.409477 0.200028 0.511336 -0.134353
H10   H     H_    0.293571 0.216494 0.596333 0.250713
H11   H     H_    0.518725 0.238177 0.370577 0.152037
C37   C     C_R   0.142211 0.685071 0.572341 -0.248663
H12   H     H_    0.312026 0.689521 0.599774 0.207794
H13   H     H_    0.953977 0.731972 0.578417 0.164181
H14   H     H_    0.141291 0.758223 0.599758 0.219121
N1    N     N_R   0.239390 0.551900 0.544730 -0.183107
C38   C     C_R   0.754106 0.377999 0.395244 -0.012502
C39   C     C_R   0.843214 0.362663 0.358571 -0.348987
C40   C     C_R   0.943201 0.417993 0.386437 0.562109
C41   C     C_R   0.950923 0.483853 0.457355 -0.099710
C42   C     C_R   0.854944 0.505656 0.485730 0.060008
C43   C     C_R   0.049681 0.534384 0.498540 -0.079563
C44   C     C_R   0.047954 0.628023 0.537338 0.039323
C45   C     C_R   0.952012 0.659390 0.549526 -0.373892
C46   C     C_R   0.860054 0.589422 0.541215 0.520795
C47   C     C_R   0.149474 0.494583 0.508011 0.451824
C48   C     C_R   0.238052 0.645368 0.574971 -0.047158
N2    N     N_R   0.759950 0.448600 0.455730 -0.116497
H15   H     H_    0.677477 0.339057 0.370218 0.171574
H16   H     H_    0.830788 0.309589 0.306858 0.210785
O9    O     O_3   0.171214 0.492930 0.939635 -0.589611
C49   C     C_3   0.166684 0.566932 0.868709 0.092341
H17   H     H_    0.081206 0.578964 0.849715 0.178290
H18   H     H_    0.191418 0.538671 0.809492 0.130338
C50   C     C_3   0.229609 0.670361 0.893129 -0.480222
H19   H     H_    0.208414 0.694538 0.955202 0.226260
H20   H     H_    0.316958 0.663643 0.902765 0.219294
C51   C     C_3   0.205483 0.752313 0.821140 -0.817563
H21   H     H_    0.225834 0.729411 0.758318 0.258962
H22   H     H_    0.254157 0.825119 0.839308 0.289694
H23   H     H_    0.119474 0.764548 0.812414 0.269399
O10   O     O_3   0.668893 0.139989 0.323602 -0.668824
C52   C     C_3   0.610560 0.142403 0.237824 0.045192
H24   H     H_    0.661019 0.190493 0.195584 0.228273
H25   H     H_    0.535135 0.178905 0.233761 0.123532
C53   C     C_3   0.587753 0.035826 0.200595 -0.365447
H26   H     H_    0.664376 0.002376 0.202343 0.239581
H27   H     H_    0.536199 0.985212 0.240842 0.211520
C54   C     C_3   0.530615 0.040478 0.106332 -0.884739
H28   H     H_    0.452755 0.071896 0.103584 0.262318
H29   H     H_    0.515306 0.962527 0.081155 0.257583
H30   H     H_    0.580675 0.089113 0.063611 0.297760
O11   O     O_3   0.386357 0.823701 0.459200 -0.591228
C55   C     C_3   0.346541 0.803070 0.370563 0.120943
H31   H     H_    0.279453 0.741262 0.370614 0.177639
H32   H     H_    0.406517 0.773949 0.335283 0.101836
C56   C     C_3   0.303463 0.897434 0.321014 -0.375511
H33   H     H_    0.240179 0.922379 0.354655 0.243115
H34   H     H_    0.368658 0.960819 0.320288 0.215406
C57   C     C_3   0.257239 0.874803 0.226422 -0.967189
H35   H     H_    0.320572 0.853654 0.190809 0.265095
H36   H     H_    0.224272 0.943470 0.192662 0.278230
H37   H     H_    0.192088 0.811302 0.225030 0.260128
O12   O     O_3   0.397143 0.899146 0.609428 -0.585362
C58   C     C_3   0.482947 0.903451 0.679336 0.093861
H38   H     H_    0.466682 0.952142 0.731082 0.157815
H39   H     H_    0.559664 0.934400 0.656076 0.126169
C59   C     C_3   0.494645 0.795595 0.718861 -0.326205
H40   H     H_    0.419010 0.763461 0.742645 0.229202
H41   H     H_    0.510408 0.746328 0.667631 0.222133
C60   C     C_3   0.586079 0.794528 0.795111 -0.982358
H42   H     H_    0.663187 0.823764 0.772362 0.268581
H43   H     H_    0.591404 0.715137 0.822230 0.263978
H44   H     H_    0.571682 0.842251 0.847920 0.280087
N3    N     N_R   0.254575 0.026671 0.659289 0.224651
O13   O     O_R   0.216344 0.091939 0.702522 -0.375243
O14   O     O_R   0.221211 0.930517 0.669227 -0.400557
N4    N     N_R   0.156571 0.391259 0.489591 0.223461
O15   O     O_R   0.204699 0.371480 0.425108 -0.377516
O16   O     O_R   0.103594 0.317274 0.529736 -0.421000
O17   O     O_3   0.031405 0.421092 0.341699 -0.647343
C61   C     C_3   0.022901 0.352241 0.273669 0.116774
H45   H     H_    0.091914 0.373823 0.237648 0.193836
H46   H     H_    0.952588 0.362987 0.224270 0.194435
C62   C     C_3   0.029285 0.240596 0.307982 -0.328506
H47   H     H_    0.113615 0.228776 0.333486 0.259383
H48   H     H_    0.981960 0.221132 0.362631 0.251385
C63   C     C_3   0.989011 0.166853 0.235154 -0.880989
H49   H     H_    0.902749 0.171995 0.211639 0.310847
H50   H     H_    0.999113 0.087596 0.260707 0.255274
H51   H     H_    0.035139 0.184476 0.179435 0.278005
O18   O     O_3   0.776851 0.597100 0.587883 -0.590153
C64   C     C_3   0.793896 0.666648 0.656400 0.100281
H52   H     H_    0.715304 0.667140 0.679371 0.161882
H53   H     H_    0.813517 0.746602 0.632645 0.120752
C65   C     C_3   0.874024 0.633136 0.735168 -0.401653
H54   H     H_    0.860538 0.549506 0.747595 0.238742
H55   H     H_    0.957329 0.651798 0.721470 0.211503
C66   C     C_3   0.862733 0.685710 0.817986 -0.931041
H56   H     H_    0.874327 0.769817 0.806783 0.271805
H57   H     H_    0.923906 0.663003 0.872755 0.263247
H58   H     H_    0.782372 0.662849 0.837230 0.272624
N5    N     N_R   0.736626 0.300262 0.055931 0.184623
O19   O     O_R   0.756317 0.218903 0.020690 -0.423602
O20   O     O_R   0.790351 0.325555 0.131098 -0.495905
O21   O     O_3   0.134320 0.508392 0.095719 -0.599172
C67   C     C_3   0.101492 0.605952 0.103040 0.085812
H59   H     H_    0.067829 0.633326 0.036198 0.183790
H60   H     H_    0.167200 0.664817 0.128317 0.098879
C68   C     C_3   0.013075 0.596778 0.161110 -0.350044
H61   H     H_    0.953759 0.530641 0.141835 0.262506
H62   H     H_    0.048518 0.583955 0.230638 0.233945
C69   C     C_3   0.954681 0.692299 0.152612 -0.935827
H63   H     H_    0.011369 0.760360 0.170764 0.262719
H64   H     H_    0.892989 0.683340 0.197123 0.270625
H65   H     H_    0.914443 0.704078 0.084232 0.270569

loop_
_geom_bond_atom_site_label_1
_geom_bond_atom_site_label_2
_geom_bond_distance
_ccdc_geom_bond_type
C5    C8    1.401178 A    
C41   C43   1.430657 A    
C29   C36   1.405365 A    
C54   H28   1.110995 S    
C58   H38   1.114297 S    
C49   C50   1.541048 S    
C51   H23   1.110770 S    
C62   C63   1.525556 S    
C61   H45   1.109478 S    
C66   H58   1.110574 S    
C63   H51   1.111020 S    
C59   H40   1.110632 S    
C54   H30   1.110328 S    
C28   C30   1.408457 A    
O9    C49   1.420329 S    
C34   O11   1.390076 S    
C6    C21   1.398322 A    
Zn1   O7    1.954379 S    
C16   C17   1.398340 A    
C57   H36   1.110351 S    
C15   O9    1.392081 S    
C40   O17   1.399080 S    
C68   H61   1.111508 S    
C51   H22   1.110423 S    
C19   C22   1.392362 A    
C9    H4    1.079012 S    
C60   H43   1.110655 S    
C20   C21   1.391195 A    
O7    C4    1.317432 A    
C49   H18   1.110001 S    
C57   H35   1.111168 S    
C23   C31   1.407373 A    
O5    C3    1.312477 A    
O12   C58   1.412585 S    
C55   H31   1.111431 S    
C66   H57   1.110147 S    
C2    C5    1.465497 S    
C1    C36   1.455697 S    
C51   H21   1.109451 S    
C24   C34   1.404546 A    
C58   H39   1.115207 S    
C28   C29   1.402875 A    
C43   C44   1.413062 A    
C13   C14   1.408113 A    
C69   H64   1.110561 S    
N1    C48   1.351361 A    
C45   C46   1.400115 A    
C4    C6    1.456904 S    
C67   H60   1.116404 S    
C8    H3    1.082527 S    
H12   C48   1.079452 S    
C43   C47   1.412921 A    
C37   H14   1.082114 S    
C23   H9    1.083097 S    
C41   C42   1.422566 A    
C17   N5    1.431482 S    
C47   N4    1.428604 S    
C65   C66   1.526586 S    
O3    Zn1   1.965629 S    
Zn2   N2    2.066381 S    
C50   H20   1.111187 S    
C66   H56   1.110761 S    
C46   O18   1.383449 S    
C12   C13   1.400121 A    
C69   H65   1.111043 S    
C32   C33   1.400366 A    
C14   C15   1.403029 A    
C14   H5    1.078495 S    
C33   H11   1.080138 S    
C60   H44   1.110744 S    
C49   H17   1.109082 S    
C16   H6    1.079539 S    
C63   H50   1.110545 S    
C26   N3    1.441959 S    
C26   C27   1.408697 A    
C55   C56   1.533227 S    
C50   H19   1.109226 S    
C52   C53   1.535791 S    
C56   C57   1.524115 S    
C5    C9    1.386594 A    
Zn1   N1    2.078890 S    
C25   H10   1.082944 S    
C24   C35   1.404222 A    
C69   H63   1.108861 S    
C68   H62   1.109980 S    
H13   C45   1.079880 S    
Zn2   O8    1.965629 S    
C53   H27   1.110546 S    
C7    C8    1.403871 A    
C39   H16   1.078143 S    
C21   H2    1.082406 S    
N1    C47   1.364502 A    
C31   C32   1.394570 A    
C42   N2    1.381303 A    
C10   C11   1.424826 A    
C67   C68   1.530656 S    
N3    O13   1.301835 A    
O3    C2    1.313322 A    
C10   C12   1.412366 A    
C30   C31   1.408589 A    
C23   C35   1.398061 A    
C27   O12   1.384921 S    
C56   H34   1.109712 S    
C65   H55   1.108545 S    
C7    O21   1.387529 S    
C52   H25   1.114100 S    
C62   H47   1.110058 S    
C61   C62   1.543130 S    
C13   C19   1.410375 A    
C3    C24   1.452343 S    
C50   C51   1.524313 S    
C25   C26   1.394030 A    
N4    O16   1.300994 A    
C55   H32   1.116590 S    
Zn1   O5    1.965363 S    
C11   C15   1.413275 A    
C27   C28   1.431436 A    
C18   C19   1.417183 A    
O1    Zn1   1.981803 S    
C68   C69   1.526060 S    
O2    Zn2   1.965364 S    
O8    C4    1.316459 A    
C62   H48   1.109451 S    
O6    C3    1.318409 A    
C61   H46   1.100074 S    
C32   O10   1.384410 S    
O4    Zn2   1.954379 S    
C59   H41   1.110753 S    
C64   H52   1.110777 S    
C54   H29   1.110443 S    
C37   C44   1.394675 A    
C63   H49   1.110418 S    
C38   N2    1.350155 A    
C6    C22   1.390869 A    
O11   C55   1.417511 S    
C22   H1    1.080574 S    
C9    C10   1.395543 A    
N5    O20   1.296911 A    
O2    C1    1.318419 A    
C52   H24   1.105190 S    
C60   H42   1.110878 S    
C39   C40   1.413185 A    
C64   H53   1.109942 S    
C25   C36   1.399875 A    
O4    C2    1.324756 A    
C38   H15   1.076885 S    
C30   C34   1.377143 A    
C18   C20   1.409137 A    
C53   H26   1.111482 S    
C64   C65   1.540583 S    
C20   H7    1.080984 S    
C58   C59   1.529282 S    
C42   C46   1.432484 A    
C53   C54   1.525867 S    
C44   C45   1.375421 A    
C7    C11   1.419928 A    
H8    C35   1.083031 S    
N3    O14   1.300214 A    
C59   C60   1.524752 S    
O18   C64   1.421271 S    
C38   C39   1.381155 A    
C29   C33   1.416461 A    
O10   C52   1.416889 S    
Zn2   O6    1.981801 S    
C40   C41   1.426832 A    
C12   C16   1.413876 A    
C56   H33   1.111622 S    
C65   H54   1.108235 S    
O21   C67   1.416927 S    
O1    C1    1.313586 A    
C67   H59   1.110657 S    
N5    O19   1.301405 A    
O17   C61   1.417112 S    
C37   C48   1.375536 A    
N4    O15   1.299502 A    
C17   C18   1.402952 A    
C57   H37   1.108408 S    
