data_mof_unit_60635.cif
_audit_creation_date              2012-12-10T17:00:43-0500
_audit_creation_method            fapswitch 2.2
_symmetry_space_group_name_H-M    P1
_symmetry_Int_Tables_number       1
_space_group_crystal_system       triclinic
_cell_length_a                    13.117619
_cell_length_b                    13.11859
_cell_length_c                    19.536507
_cell_angle_alpha                 100.149595
_cell_angle_beta                  80.349644
_cell_angle_gamma                 90.987786
_cell_volume                      3262.2303639

loop_
_atom_site_label
_atom_site_type_symbol
_atom_type_description
_atom_site_fract_x
_atom_site_fract_y
_atom_site_fract_z
_atom_type_partial_charge
C1    C     C_R   0.223080 0.536002 0.526924 0.514831
C2    C     C_2   0.449072 0.506505 0.986695 -0.115782
C3    C     C_2   0.529149 0.477042 0.013481 -0.154837
C4    C     C_R   0.776116 0.463313 0.472903 0.497655
C5    C     C_R   0.517255 0.479724 0.233295 0.038362
C6    C     C_2   0.887598 0.450810 0.461954 -0.085056
C7    C     C_2   0.940510 0.494424 0.511834 -0.148179
C8    C     C_2   0.110163 0.546384 0.540572 -0.106125
C9    C     C_2   0.053542 0.488174 0.498104 -0.152789
C10   C     C_2   0.549849 0.888362 0.531728 0.293365
C11   C     C_2   0.502517 0.941966 0.493478 -0.098083
C12   C     C_R   0.458223 0.508617 0.910906 0.045167
C13   C     C_2   0.455837 0.110578 0.469490 -0.128169
C14   C     C_2   0.510486 0.054953 0.502132 -0.123766
C15   C     C_R   0.466915 0.223291 0.479135 0.511386
C16   C     C_R   0.534012 0.776200 0.521195 0.479434
C17   C     C_R   0.511088 0.486132 0.309484 0.513419
C18   C     C_R   0.488977 0.512971 0.690501 0.505564
C19   C     C_R   0.479475 0.513620 0.766384 -0.010150
C20   C     C_R   0.529040 0.435889 0.789954 -0.144317
C21   C     C_R   0.517787 0.432842 0.861373 -0.161807
C22   C     C_3   0.663254 0.874510 0.610465 -0.003138
C23   C     C_R   0.408056 0.587018 0.887837 0.272239
C24   C     C_3   0.727923 0.939094 0.659384 -0.373204
C25   C     C_3   0.756915 0.426389 0.211626 -0.003580
C26   C     C_3   0.853934 0.449397 0.244424 -0.356849
C27   C     C_3   0.403593 0.751210 0.948913 -0.016734
C28   C     C_3   0.339161 0.829418 0.005702 -0.364394
C29   C     C_R   0.418034 0.588445 0.815506 -0.111413
C30   C     C_R   0.431165 0.454647 0.131337 -0.130510
C31   C     C_R   0.428158 0.456387 0.203005 -0.175362
C32   C     C_R   0.611434 0.496921 0.190171 0.262610
C33   C     C_R   0.613493 0.495791 0.118392 -0.098050
C34   C     C_R   0.523542 0.476248 0.088964 -0.006026
H1    H     H_    0.091011 0.435344 0.451743 0.160234
H2    H     H_    0.377730 0.647972 0.798084 0.142083
H3    H     H_    0.378144 0.535598 0.021343 0.163080
H4    H     H_    0.554899 0.370193 0.877699 0.117612
H5    H     H_    0.575563 0.376231 0.753135 0.149930
H6    H     H_    0.685394 0.511517 0.085840 0.116390
H7    H     H_    0.456514 0.901885 0.455748 0.082191
H8    H     H_    0.716841 0.825307 0.567535 0.135140
H9    H     H_    0.611773 0.824886 0.641698 0.141527
H10   H     H_    0.676757 0.988528 0.703333 0.161119
H11   H     H_    0.774645 0.887369 0.681659 0.093009
H12   H     H_    0.900377 0.537242 0.561606 0.128914
H13   H     H_    0.780841 0.989248 0.629747 0.164965
H14   H     H_    0.780819 0.391066 0.155082 0.117316
H15   H     H_    0.710190 0.369789 0.239706 0.120949
H16   H     H_    0.832660 0.484454 0.300984 0.184728
H17   H     H_    0.898252 0.376540 0.240135 0.084469
H18   H     H_    0.903482 0.503997 0.216608 0.158569
H19   H     H_    0.423122 0.786167 0.900423 0.126376
H20   H     H_    0.476192 0.735347 0.968070 0.133224
H21   H     H_    0.319479 0.797155 0.055102 0.160144
H22   H     H_    0.383585 0.901637 0.016465 0.096210
H23   H     H_    0.073046 0.600675 0.586199 0.107035
H24   H     H_    0.266659 0.848111 0.987943 0.163495
H25   H     H_    0.927188 0.413511 0.410451 0.083207
H26   H     H_    0.562149 0.093683 0.536216 0.211462
H27   H     H_    0.403498 0.073028 0.435486 0.109130
H28   H     H_    0.355598 0.441311 0.235013 0.137134
H29   H     H_    0.603564 0.459226 0.979657 0.117908
H30   H     H_    0.361415 0.435937 0.109212 0.119084
O1    O     O_3   0.500000 0.500000 0.500000 -0.440958
O2    O     O_R   0.441420 0.437150 0.344000 -0.561459
O3    O     O_R   0.438960 0.578560 0.667440 -0.550261
O4    O     O_R   0.575450 0.541060 0.341470 -0.490578
O5    O     O_R   0.544160 0.443230 0.647100 -0.543251
O6    O     O_3   0.604180 0.941340 0.582683 -0.579561
O7    O     O_3   0.700859 0.519487 0.218223 -0.533388
O8    O     O_3   0.346099 0.659984 0.935792 -0.565225
O9    O     O_R   0.530110 0.266880 0.518530 -0.540406
O10   O     O_R   0.465470 0.738830 0.563940 -0.549297
O11   O     O_R   0.266890 0.467300 0.476120 -0.541123
O12   O     O_R   0.737530 0.526990 0.441410 -0.545807
O13   O     O_R   0.276880 0.592620 0.567490 -0.535359
O14   O     O_R   0.718700 0.413090 0.514970 -0.531761
O15   O     O_R   0.414920 0.276880 0.447500 -0.536531
O16   O     O_R   0.589510 0.717410 0.470040 -0.551867
Zn1   Zn    Zn3+2 0.571990 0.407410 0.544380 0.934963
Zn2   Zn    Zn3+2 0.407420 0.421690 0.442900 0.931034
Zn3   Zn    Zn3+2 0.598910 0.570150 0.439280 0.946065
Zn4   Zn    Zn3+2 0.421690 0.600750 0.573440 0.932424

loop_
_geom_bond_atom_site_label_1
_geom_bond_atom_site_label_2
_ccdc_geom_bond_type
C30   H30   S    
C1    C8    S    
C1    O13   A    
C19   C20   A    
O14   Zn1   S    
C2    C12   S    
C28   H22   S    
C27   H20   S    
C29   H2    S    
C17   O2    A    
C16   O10   A    
C24   H11   S    
C23   C29   A    
C26   H16   S    
C30   C31   A    
C11   C14   S    
O1    Zn3   S    
C5    C17   S    
C18   C19   S    
C15   O15   A    
C21   H4    S    
C8    C9    D    
C25   O7    S    
C5    C32   A    
C18   O5    A    
O3    Zn4   S    
C13   C14   D    
C24   H13   S    
C31   H28   S    
O16   Zn3   S    
C6    H25   S    
O12   Zn3   S    
O9    Zn1   S    
C28   H21   S    
C32   O7    S    
C33   H6    S    
C30   C34   A    
C1    O11   A    
C7    H12   S    
C4    C6    S    
C20   H5    S    
O1    Zn4   S    
C3    C34   S    
C25   C26   S    
C12   C21   A    
C16   O16   A    
C4    O14   A    
C26   H18   S    
C8    H23   S    
O2    Zn2   S    
O1    Zn1   S    
C22   H9    S    
C12   C23   A    
C33   C34   A    
C25   H14   S    
C10   O6    S    
C15   O9    A    
C3    H29   S    
C13   C15   S    
C24   H10   S    
C22   C24   S    
C19   C29   A    
C7    C9    S    
C17   O4    A    
O4    Zn3   S    
C23   O8    S    
O10   Zn4   S    
O15   Zn2   S    
C27   H19   S    
O11   Zn2   S    
C6    C7    D    
C28   H24   S    
C14   H26   S    
O13   Zn4   S    
C32   C33   A    
C2    C3    D    
C18   O3    A    
C10   C16   S    
C26   H17   S    
C2    H3    S    
O1    Zn2   S    
C22   H8    S    
C11   H7    S    
C25   H15   S    
C4    O12   A    
O5    Zn1   S    
C10   C11   D    
C13   H27   S    
C20   C21   A    
C27   C28   S    
C9    H1    S    
C22   O6    S    
C27   O8    S    
C5    C31   A    
