data_mof_unit_61665.cif
_audit_creation_date              2012-12-10T16:44:36-0500
_audit_creation_method            fapswitch 2.2
_symmetry_space_group_name_H-M    P1
_symmetry_Int_Tables_number       1
_space_group_crystal_system       triclinic
_cell_length_a                    18.438207
_cell_length_b                    18.494884
_cell_length_c                    18.446926
_cell_angle_alpha                 119.827756
_cell_angle_beta                  119.634336
_cell_angle_gamma                 90.457281
_cell_volume                      4466.41985354

loop_
_atom_site_label
_atom_site_type_symbol
_atom_type_description
_atom_site_fract_x
_atom_site_fract_y
_atom_site_fract_z
_atom_type_partial_charge
C1    C     C_R   0.138465 0.361586 0.998735 0.849004
C2    C     C_R   0.907573 0.296458 0.257524 -0.136791
C3    C     C_R   0.960928 0.350081 0.257710 -0.132378
C4    C     C_R   0.860876 0.637882 0.999640 0.872829
C5    C     C_R   0.927346 0.353010 0.173331 -0.146339
C6    C     C_2   0.709604 0.763205 0.926327 0.017844
C7    C     C_2   0.696388 0.807828 0.000878 -0.342390
C8    C     C_2   0.773025 0.714994 0.934832 -0.200678
C9    C     C_2   0.800710 0.688117 0.996416 -0.309327
C10   C     C_2   0.729200 0.277690 0.444501 -0.218380
C11   C     C_2   0.679048 0.192174 0.386669 -0.125945
C12   C     C_R   0.572727 0.146878 0.826533 -0.233722
C13   C     C_2   0.777023 0.335912 0.556056 -0.157923
C14   C     C_2   0.815889 0.305516 0.613229 -0.272703
C15   C     C_2   0.333247 0.277597 0.048278 -0.213912
C16   C     C_R   0.138548 0.638187 0.277072 0.852348
C17   C     C_2   0.305478 0.192140 0.012973 -0.120308
C18   C     C_2   0.280022 0.335888 0.058811 -0.164382
C19   C     C_2   0.192344 0.305532 0.989640 -0.277816
C20   C     C_2   0.218129 0.775810 0.938104 -0.160751
C21   C     C_2   0.306106 0.811021 0.006416 -0.280440
C22   C     C_2   0.162232 0.724011 0.942285 -0.159203
C23   C     C_R   0.661408 0.197471 0.913139 0.062946
C24   C     C_2   0.195488 0.689083 0.995255 -0.284403
C25   C     C_2   0.219128 0.776580 0.556347 -0.158632
C26   C     C_2   0.307854 0.808994 0.612236 -0.282745
C27   C     C_2   0.162843 0.722838 0.444025 -0.158689
C28   C     C_R   0.862871 0.361575 0.723181 0.858529
C29   C     C_2   0.195374 0.691014 0.387733 -0.287020
C30   C     C_R   0.636773 0.138359 0.277008 0.798297
C31   C     C_R   0.361637 0.861774 0.722918 0.849834
C32   C     C_R   0.638025 0.860691 0.998955 0.847699
C33   C     C_R   0.361360 0.138346 0.001569 0.806096
C34   C     C_R   0.715658 0.252106 0.913413 0.038465
C35   C     C_R   0.360424 0.861065 0.000690 0.859415
C36   C     C_R   0.639913 0.139769 0.999905 0.785708
C37   C     C_R   0.139637 0.638919 0.999356 0.860200
C38   C     C_R   0.860160 0.360193 0.000129 0.787578
C39   C     C_R   0.679627 0.254733 0.827217 -0.196353
C40   C     C_R   0.592436 0.203808 0.742139 0.172252
C41   C     C_R   0.538719 0.149532 0.741682 0.002742
C42   C     C_1   0.656560 0.151986 0.426621 0.224701
C43   C     C_1   0.225441 0.152211 0.995711 0.204766
C44   C     C_1   0.448212 0.096413 0.654995 0.207926
C45   C     C_R   0.696047 0.195759 0.999771 -0.133626
C46   C     C_1   0.663366 0.760421 0.834124 0.236828
C47   C     C_R   0.784257 0.247901 0.086553 0.071544
C48   C     C_R   0.838576 0.302500 0.086748 0.072184
C49   C     C_R   0.803921 0.304217 0.000170 -0.134336
C50   C     C_R   0.820345 0.245465 0.172959 -0.148700
H1    H     H_    0.028857 0.389197 0.323276 0.139604
H2    H     H_    0.718296 0.296773 0.824900 0.158609
H3    H     H_    0.158486 0.237696 0.922305 0.165443
H4    H     H_    0.185356 0.786111 0.877985 0.180795
H5    H     H_    0.340487 0.805894 0.070253 0.155466
H6    H     H_    0.091700 0.713427 0.899026 0.180810
H7    H     H_    0.264567 0.694480 0.034958 0.151992
H8    H     H_    0.185454 0.790509 0.593840 0.178046
H9    H     H_    0.343880 0.798811 0.578177 0.157026
H10   H     H_    0.091835 0.708363 0.406908 0.178938
H11   H     H_    0.265302 0.701774 0.421501 0.155164
H12   H     H_    0.731888 0.809049 0.069164 0.149916
H13   H     H_    0.528702 0.105236 0.824045 0.144596
H14   H     H_    0.782076 0.203798 0.176044 0.128789
H15   H     H_    0.934029 0.293889 0.322941 0.137620
H16   H     H_    0.972014 0.394770 0.176722 0.130223
H17   H     H_    0.795325 0.698407 0.885574 0.182357
H18   H     H_    0.776552 0.699059 0.042667 0.157172
H19   H     H_    0.735676 0.307070 0.408652 0.174478
H20   H     H_    0.783762 0.405542 0.591371 0.183233
H21   H     H_    0.815458 0.237735 0.579154 0.161177
H22   H     H_    0.398522 0.306910 0.071124 0.177006
H23   H     H_    0.314491 0.405522 0.121696 0.184518
I1    I     I_    0.545389 0.212576 0.616981 -0.352206
N1    N     N_1   0.638364 0.119649 0.458048 -0.157863
N2    N     N_1   0.161799 0.120170 0.982065 -0.192605
N3    N     N_1   0.375558 0.053710 0.585475 -0.182591
N4    N     N_1   0.626528 0.757993 0.760355 -0.187019
O1    O     O_3   0.000000 0.500000 0.000000 -0.495664
O2    O     O_R   0.325040 0.054120 0.939900 -0.636877
O3    O     O_R   0.444330 0.884140 0.060080 -0.640540
O4    O     O_R   0.054210 0.325030 0.939940 -0.637422
O5    O     O_R   0.615830 0.175840 0.060080 -0.641022
O6    O     O_R   0.324160 0.884140 0.939910 -0.644081
O7    O     O_R   0.615850 0.055700 0.939930 -0.634319
O8    O     O_R   0.614980 0.885710 0.939940 -0.629562
O9    O     O_R   0.445830 0.174930 0.060060 -0.640607
O10   O     O_R   0.614300 0.054120 0.229160 -0.636216
O11   O     O_R   0.325070 0.885060 0.770830 -0.643526
O12   O     O_R   0.054160 0.614240 0.229150 -0.644320
O13   O     O_R   0.885070 0.614240 0.060060 -0.642197
O14   O     O_R   0.174980 0.614900 0.229170 -0.640329
O15   O     O_R   0.885740 0.445830 0.770840 -0.645387
O16   O     O_R   0.175880 0.615810 0.060090 -0.642417
O17   O     O_R   0.884210 0.324110 0.939920 -0.629936
O18   O     O_R   0.055710 0.615810 0.939920 -0.646421
O19   O     O_R   0.884190 0.444260 0.060070 -0.640886
O20   O     O_R   0.885120 0.325030 0.770840 -0.636328
O21   O     O_R   0.175010 0.445830 0.060100 -0.643545
O22   O     O_R   0.885710 0.614900 0.939900 -0.642034
O23   O     O_3   0.500040 0.999960 0.000000 -0.494561
O24   O     O_R   0.614930 0.174930 0.229160 -0.643069
O25   O     O_R   0.445880 0.885710 0.770850 -0.638836
O26   O     O_R   0.614330 0.885060 0.060100 -0.639405
Zn1   Zn    Zn3+2 0.956610 0.542450 0.085830 0.971846
Zn2   Zn    Zn3+2 0.129220 0.543380 0.085850 0.973507
Zn3   Zn    Zn3+2 0.957530 0.543380 0.914160 0.968350
Zn4   Zn    Zn3+2 0.956640 0.370790 0.914170 0.984687
Zn5   Zn    Zn3+2 0.543440 0.957510 0.914170 0.983497
Zn6   Zn    Zn3+2 0.542510 0.956570 0.085840 0.982164
Zn7   Zn    Zn3+2 0.370820 0.956570 0.914150 0.974616
Zn8   Zn    Zn3+2 0.543410 0.129170 0.085830 0.968305

loop_
_geom_bond_atom_site_label_1
_geom_bond_atom_site_label_2
_ccdc_geom_bond_type
C15   C18   S    
C16   O12   A    
C23   C45   A    
C27   C29   D    
C50   H14   S    
C14   H21   S    
O13   Zn1   S    
O24   Zn8   S    
C2    H15   S    
C1    O21   A    
C35   O3    A    
C38   C49   S    
O23   Zn8   S    
C15   H22   S    
C12   C23   A    
C42   N1    T    
C44   N3    T    
O7    Zn5   S    
C27   H10   S    
C13   H20   S    
C36   O5    A    
O23   Zn5   S    
O20   Zn4   S    
O1    Zn1   S    
C11   C42   S    
C18   C19   D    
O1    Zn2   S    
C2    C50   A    
O16   Zn2   S    
C11   C30   S    
C24   H7    S    
C31   O11   A    
C38   O17   A    
O1    Zn4   S    
C32   O26   A    
O4    Zn4   S    
C26   H9    S    
C4    O13   A    
O10   Zn6   S    
C19   H3    S    
C39   H2    S    
C26   C31   S    
C13   C14   D    
C17   C33   S    
C38   O19   A    
C47   C50   A    
C45   C47   A    
C5    C48   A    
C29   H11   S    
C1    C19   S    
O6    Zn7   S    
C34   C39   A    
O8    Zn5   S    
C20   H4    S    
C10   C11   D    
C39   C40   A    
C46   N4    T    
C12   H13   S    
C3    H1    S    
C8    C9    D    
C22   H6    S    
O9    Zn8   S    
O23   Zn6   S    
C37   O18   A    
C28   O15   A    
C31   O25   A    
C17   C43   S    
C7    H12   S    
C12   C41   A    
C47   C48   A    
C23   C34   A    
C32   O8    A    
C30   O24   A    
C24   C37   S    
O1    Zn3   S    
C36   C45   S    
O3    Zn6   S    
O22   Zn3   S    
O14   Zn2   S    
C48   C49   A    
O18   Zn3   S    
C20   C22   S    
C16   O14   A    
C18   H23   S    
C4    O22   A    
C41   C44   S    
C22   C24   D    
O23   Zn7   S    
C25   H8    S    
C30   O10   A    
C21   H5    S    
C28   O20   A    
C43   N2    T    
C15   C17   D    
O21   Zn2   S    
C40   C41   A    
C34   C49   A    
C7    C32   S    
C6    C46   S    
O12   Zn1   S    
C5    H16   S    
C3    C5    A    
C10   C13   S    
C6    C8    S    
C35   O6    A    
C33   O2    A    
C6    C7    D    
C21   C35   S    
C36   O7    A    
C25   C27   S    
O11   Zn7   S    
O25   Zn5   S    
C2    C3    A    
C25   C26   D    
C9    H18   S    
O19   Zn1   S    
O15   Zn3   S    
O26   Zn6   S    
C1    O4    A    
O2    Zn7   S    
C40   I1    S    
C37   O16   A    
C33   O9    A    
O17   Zn4   S    
C10   H19   S    
C20   C21   D    
C16   C29   S    
C8    H17   S    
O5    Zn8   S    
C14   C28   S    
C4    C9    S    
