data_mof_unit_11840.cif
_audit_creation_date              2012-12-11T15:44:58-0500
_audit_creation_method            fapswitch 2.2
_symmetry_space_group_name_H-M    P1
_symmetry_Int_Tables_number       1
_space_group_crystal_system       triclinic
_cell_length_a                    6.927992
_cell_length_b                    16.831864
_cell_length_c                    17.07867
_cell_angle_alpha                 100.434002
_cell_angle_beta                  89.365119
_cell_angle_gamma                 90.61654
_cell_volume                      1958.43116043

loop_
_atom_site_label
_atom_site_type_symbol
_atom_type_description
_atom_site_fract_x
_atom_site_fract_y
_atom_site_fract_z
_atom_type_partial_charge
O1    O     O_R   0.494370 0.415690 0.413450 -0.537560
O2    O     O_R   0.819420 0.429360 0.578420 -0.540370
O3    O     O_R   0.994280 0.584310 0.586550 -0.542217
C1    C     C_R   0.650659 0.413126 0.604767 0.716761
O4    O     O_R   0.823790 0.406230 0.413570 -0.543503
O5    O     O_R   0.998670 0.561000 0.420530 -0.541447
C2    C     C_R   0.655039 0.383357 0.384946 0.717233
O6    O     O_R   0.489970 0.439000 0.579470 -0.539694
O7    O     O_3   0.662300 0.550810 0.502470 -0.372208
V1    V     V_3+5 0.935380 0.490570 0.499540 1.390361
O8    O     O_R   0.328650 0.570640 0.421580 -0.540440
C3    C     C_R   0.161581 0.587818 0.395984 0.715169
O9    O     O_R   0.324290 0.593770 0.586430 -0.542463
C4    C     C_R   0.155036 0.617064 0.614968 0.676712
V2    V     V_3+5 0.435930 0.509430 0.500460 1.391948
O10   O     O_3   0.159140 0.449190 0.497530 -0.366407
C5    C     C_R   0.312233 0.723721 0.717843 -0.155985
H1    H     H_    0.453264 0.704192 0.694513 0.115480
C6    C     C_R   0.301051 0.787461 0.782991 -0.155108
H2    H     H_    0.434033 0.815185 0.807670 0.116856
C7    C     C_R   0.121104 0.814969 0.815740 -0.043990
C8    C     C_R   0.952641 0.777097 0.781260 -0.155722
H3    H     H_    0.811605 0.796645 0.804560 0.115416
C9    C     C_R   0.963821 0.713383 0.716087 -0.159043
H4    H     H_    0.830839 0.685722 0.691335 0.118277
C10   C     C_R   0.143792 0.685685 0.683535 -0.048100
C11   C     C_R   0.164113 0.643258 0.336685 -0.158294
C12   C     C_R   0.094733 0.864720 0.169364 -0.096077
C13   C     C_R   0.898015 0.815177 0.271508 0.366167
C14   C     C_R   0.927759 0.867841 0.217187 -0.267319
C15   C     C_R   0.238119 0.809209 0.178116 -0.236954
C16   C     C_R   0.211459 0.755167 0.231707 0.040691
C17   C     C_R   0.040768 0.757254 0.279310 0.074446
C18   C     C_R   0.018007 0.701141 0.332643 0.222096
C19   C     C_R   0.329243 0.642847 0.287917 -0.186771
C20   C     C_R   0.352848 0.697808 0.236690 -0.122469
H5    H     H_    0.443388 0.599765 0.289889 0.131526
H6    H     H_    0.483199 0.695341 0.200653 0.132531
H7    H     H_    0.816544 0.911073 0.211151 0.116096
H8    H     H_    0.366713 0.805755 0.140914 0.128413
C21   C     C_R   0.650725 0.360991 0.666841 -0.126932
C22   C     C_R   0.611437 0.134565 0.830120 -0.059442
C23   C     C_R   0.432434 0.172664 0.720314 -0.165702
C24   C     C_R   0.460357 0.121305 0.774761 -0.182318
C25   C     C_R   0.737950 0.200039 0.828791 -0.223776
C26   C     C_R   0.708870 0.253137 0.774601 0.108034
C27   C     C_R   0.554294 0.239843 0.719715 0.122659
C28   C     C_R   0.524399 0.293800 0.665713 0.209409
C29   C     C_R   0.801443 0.373022 0.722596 -0.207779
C30   C     C_R   0.829994 0.320225 0.775588 -0.185032
H9    H     H_    0.900994 0.423397 0.724283 0.134160
H10   H     H_    0.312387 0.160121 0.679749 0.162069
H11   H     H_    0.948548 0.331670 0.817104 0.126151
H12   H     H_    0.359995 0.071461 0.774712 0.123702
H13   H     H_    0.852799 0.211762 0.872081 0.115306
C31   C     C_R   0.789751 0.257193 0.302694 -0.173929
H14   H     H_    0.911342 0.261467 0.342672 0.149419
C32   C     C_R   0.775994 0.190442 0.240676 0.308035
C33   C     C_R   0.619600 0.183846 0.186108 -0.179677
C34   C     C_R   0.474031 0.243820 0.199441 0.281407
C35   C     C_R   0.485566 0.307163 0.265318 -0.223702
H15   H     H_    0.372579 0.352026 0.274794 0.129140
C36   C     C_R   0.643945 0.315123 0.316598 -0.156336
O11   O     O_R   0.774880 0.061150 0.920630 -0.538859
O12   O     O_R   0.440980 0.093710 0.086500 -0.505921
O13   O     O_R   0.266190 0.938890 0.079390 -0.540139
C37   C     C_R   0.609477 0.116014 0.116104 0.717101
O14   O     O_R   0.445420 0.070740 0.921670 -0.541210
O15   O     O_R   0.270660 0.915760 0.913380 -0.545585
C38   C     C_R   0.613667 0.085783 0.894492 0.688706
O16   O     O_R   0.770400 0.084270 0.086640 -0.535049
O17   O     O_3   0.602590 0.949210 0.997500 -0.379064
V3    V     V_3+5 0.329470 0.009420 0.000470 1.452736
O18   O     O_R   0.940650 0.906250 0.913470 -0.545734
C39   C     C_R   0.109897 0.883198 0.884723 0.673522
O19   O     O_R   0.936210 0.929220 0.078300 -0.546566
C40   C     C_R   0.102267 0.914454 0.105705 0.732506
V4    V     V_3+5 0.828930 0.990510 0.999490 1.414284
O20   O     O_3   0.105680 0.050790 0.002500 -0.353012
N1    N     N_2   0.371727 0.278285 0.609637 -0.538432
H16   H     H_    0.287934 0.327562 0.605739 0.277975
C41   C     C_3   0.426916 0.231939 0.533028 -0.522545
H17   H     H_    0.531524 0.266620 0.502330 0.180304
H18   H     H_    0.296961 0.218341 0.495316 0.200289
H19   H     H_    0.492599 0.173856 0.540455 0.200907
O21   O     O_3   0.915838 0.132203 0.237141 -0.637089
H20   H     H_    0.853741 0.078669 0.220262 0.281051
N2    N     N_2   0.315740 0.241705 0.146586 -0.476273
H21   H     H_    0.188964 0.263554 0.174282 0.263185
C42   C     C_3   0.357761 0.276378 0.076632 -0.523082
H22   H     H_    0.388594 0.342121 0.094008 0.173380
H23   H     H_    0.231181 0.267830 0.036555 0.191531
H24   H     H_    0.483648 0.246288 0.043356 0.185295
N3    N     N_2   0.851769 0.704925 0.382974 -0.467007
H25   H     H_    0.775034 0.651713 0.379708 0.266076
C43   C     C_3   0.877460 0.749874 0.462858 -0.415401
H26   H     H_    0.982288 0.719376 0.495931 0.152132
H27   H     H_    0.736982 0.754095 0.495208 0.182585
H28   H     H_    0.929980 0.812082 0.460836 0.198290
O22   O     O_3   0.728370 0.818754 0.315383 -0.626137
H29   H     H_    0.644301 0.861447 0.301667 0.286350

loop_
_geom_bond_atom_site_label_1
_geom_bond_atom_site_label_2
_ccdc_geom_bond_type
C19   C20   A    
C1    O6    A    
C29   H9    S    
C34   N2    S    
C25   C26   A    
C31   H14   S    
C5    C10   A    
C16   C20   A    
C6    C7    A    
O19   V4    S    
O5    C3    A    
C23   H10   S    
C1    C21   S    
V2    O10   S    
C43   H28   S    
C13   C17   A    
C22   C38   S    
O12   V3    S    
C15   H8    S    
C35   C36   A    
O17   V4    S    
C33   C37   S    
O8    V2    S    
C15   C16   A    
O12   C37   A    
C43   H27   S    
O15   V3    S    
O1    V2    S    
O11   C38   A    
O7    V1    S    
C33   C34   A    
O9    C4    A    
C35   H15   S    
C22   C24   A    
C32   O21   S    
C21   C29   A    
C5    H1    S    
C11   C18   A    
C30   H11   S    
O18   C39   A    
C3    C11   S    
C9    H4    S    
N1    C41   S    
O4    C2    A    
O21   H20   S    
O17   V3    S    
C11   C19   A    
C32   C33   A    
O13   V3    S    
C4    C10   S    
C34   C35   A    
C22   C25   A    
O2    C1    A    
C23   C24   A    
C13   C14   A    
C42   H23   S    
C27   C28   A    
C43   H26   S    
C17   C18   A    
V3    O20   S    
C31   C36   A    
O19   C40   A    
N3    C43   S    
C12   C40   S    
C2    C36   S    
O3    C4    A    
N2    C42   S    
C41   H17   S    
O6    V2    S    
C41   H18   S    
O9    V2    S    
C8    C9    A    
O2    V1    S    
C42   H24   S    
O13   C40   A    
C7    C39   S    
C26   C27   A    
C13   O22   S    
C19   H5    S    
O1    C2    A    
O11   V4    S    
C12   C15   A    
C18   N3    S    
C9    C10   A    
N1    H16   S    
O5    V1    S    
O8    C3    A    
C41   H19   S    
C26   C30   A    
C16   C17   A    
C28   N1    S    
C6    H2    S    
C12   C14   A    
O14   V3    S    
O4    V1    S    
O3    V1    S    
V1    O10   S    
V4    O20   S    
C42   H22   S    
C20   H6    S    
O22   H29   S    
C5    C6    A    
C21   C28   A    
C31   C32   A    
C14   H7    S    
O15   C39   A    
C37   O16   A    
O7    V2    S    
N3    H25   S    
C24   H12   S    
N2    H21   S    
C25   H13   S    
O14   C38   A    
C29   C30   A    
O18   V4    S    
C8    H3    S    
C7    C8    A    
C23   C27   A    
O16   V4    S    
