data_mof_unit_47285.cif
_audit_creation_date              2012-12-10T18:21:15-0500
_audit_creation_method            fapswitch 2.2
_symmetry_space_group_name_H-M    P1
_symmetry_Int_Tables_number       1
_space_group_crystal_system       triclinic
_cell_length_a                    15.086033
_cell_length_b                    14.072659
_cell_length_c                    10.771504
_cell_angle_alpha                 91.169282
_cell_angle_beta                  91.843206
_cell_angle_gamma                 89.607114
_cell_volume                      2285.09359551

loop_
_atom_site_label
_atom_site_type_symbol
_atom_type_description
_atom_site_fract_x
_atom_site_fract_y
_atom_site_fract_z
_atom_type_partial_charge
C1    C     C_R   0.326059 0.500346 0.505019 1.032378
C2    C     C_3   0.590668 0.440707 0.922814 -0.485104
C3    C     C_R   0.814918 0.418748 0.494414 -0.215733
C4    C     C_R   0.768749 0.498899 0.537417 -0.187317
C5    C     C_R   0.814924 0.573212 0.602785 0.379318
C6    C     C_R   0.908175 0.572957 0.601763 0.017529
C7    C     C_R   0.953694 0.492951 0.553705 0.063671
C8    C     C_R   0.906444 0.414091 0.505877 0.043252
C9    C     C_R   0.957442 0.650947 0.647706 -0.090726
C10   C     C_R   0.048701 0.649067 0.649213 -0.139154
C11   C     C_R   0.094925 0.570323 0.601287 0.036170
C12   C     C_R   0.508635 0.499826 0.258078 0.977664
C13   C     C_R   0.046724 0.491986 0.552296 -0.047531
C14   C     C_R   0.091252 0.413316 0.499770 -0.158409
C15   C     C_R   0.043655 0.328323 0.473288 0.478825
C16   C     C_R   0.951260 0.331042 0.471491 -0.265230
C17   C     C_R   0.187927 0.567626 0.602177 0.271718
C18   C     C_R   0.229633 0.499788 0.522490 -0.301153
C19   C     C_R   0.177767 0.427940 0.461017 0.344583
C20   C     C_R   0.579032 0.797382 0.494197 -0.034054
C21   C     C_R   0.576406 0.200705 0.474342 -0.018005
C22   C     C_R   0.422060 0.801559 0.491593 0.319691
C23   C     C_R   0.428686 0.201393 0.543239 0.287420
C24   C     C_R   0.422509 0.900635 0.512506 -0.041424
C25   C     C_R   0.424742 0.101501 0.530740 -0.048056
C26   C     C_R   0.672904 0.500024 0.514562 1.009702
C27   C     C_R   0.502502 0.949706 0.503681 0.073590
C28   C     C_R   0.502390 0.050543 0.503644 0.071083
C29   C     C_R   0.581546 0.898014 0.489188 -0.000714
C30   C     C_R   0.580202 0.100248 0.480067 0.004921
C31   C     C_R   0.344362 0.952316 0.534452 -0.111134
C32   C     C_R   0.346128 0.051040 0.548123 -0.093369
C33   C     C_R   0.659155 0.048277 0.462726 -0.140488
C34   C     C_R   0.660161 0.948211 0.469632 -0.141105
C35   C     C_R   0.504058 0.500585 0.742161 0.962592
C36   C     C_3   0.538704 0.603540 0.070604 -0.009428
C37   C     C_3   0.421714 0.472438 0.065428 0.036754
C38   C     C_3   0.519104 0.604055 0.931018 -0.353559
C39   C     C_3   0.426100 0.453854 0.925939 -0.396183
C40   C     C_3   0.592082 0.430788 0.067904 0.639972
C41   C     C_3   0.515540 0.501121 0.120784 -0.248287
C42   C     C_3   0.509977 0.500782 0.877996 -0.071422
H1    H     H_    0.610286 0.615642 0.085917 0.220385
H2    H     H_    0.396968 0.408094 0.109229 0.241106
H3    H     H_    0.081429 0.711948 0.685670 0.196740
H4    H     H_    0.914166 0.267463 0.446127 0.162983
H5    H     H_    0.639544 0.756943 0.485778 0.215149
H6    H     H_    0.635728 0.239528 0.454780 0.174762
H7    H     H_    0.281810 0.916686 0.544520 0.193174
H8    H     H_    0.284594 0.087287 0.567323 0.227206
H9    H     H_    0.720239 0.084986 0.445194 0.157317
H10   H     H_    0.721988 0.910136 0.457318 0.185187
H11   H     H_    0.456649 0.643893 0.910971 0.265941
H12   H     H_    0.364846 0.478775 0.877301 0.241693
H13   H     H_    0.572774 0.643374 0.887956 0.244875
H14   H     H_    0.428355 0.376014 0.906710 0.237929
H15   H     H_    0.651390 0.473910 0.888463 0.233597
H16   H     H_    0.588400 0.369964 0.875204 0.227996
H17   H     H_    0.779517 0.359642 0.450171 0.194101
H18   H     H_    0.926983 0.715701 0.681201 0.230176
N1    N     N_R   0.500070 0.750030 0.500050 -0.134986
N2    N     N_R   0.500070 0.249970 0.500050 -0.133222
O1    O     O_R   0.367860 0.580280 0.500020 -0.571701
O2    O     O_R   0.367860 0.419720 0.500020 -0.584158
O3    O     O_R   0.500000 0.580270 0.314790 -0.592884
O4    O     O_R   0.500000 0.419730 0.314790 -0.551187
O5    O     O_R   0.632160 0.580270 0.499960 -0.580871
O6    O     O_R   0.632160 0.419730 0.499960 -0.646939
O7    O     O_R   0.500030 0.580270 0.685200 -0.552962
O8    O     O_R   0.500030 0.419730 0.685200 -0.651238
Zn1   Zn    Zn3+2 0.500020 0.607200 0.499990 1.094628
Zn2   Zn    Zn3+2 0.500020 0.392800 0.499990 1.058662
S1    S     S_3+6 0.246378 0.642344 0.713262 0.047849
O9    O     O_2   0.198448 0.642346 0.833467 -0.223624
O10   O     O_2   0.338132 0.606931 0.738593 -0.317343
O11   O     O_3   0.252316 0.755205 0.666181 -0.520289
H19   H     H_    0.204032 0.762850 0.602849 0.330173
S2    S     S_3+6 0.195143 0.404710 0.300439 0.092735
O12   O     O_2   0.291574 0.389919 0.276316 -0.269921
O13   O     O_2   0.144716 0.320810 0.247620 -0.186162
O14   O     O_3   0.156887 0.501024 0.225897 -0.498275
H20   H     H_    0.092744 0.504018 0.242819 0.358780
S3    S     S_3+6 0.094539 0.214330 0.466212 0.083121
O15   O     O_2   0.193290 0.220412 0.456241 -0.240095
O16   O     O_2   0.074643 0.162366 0.582567 -0.293575
O17   O     O_3   0.052618 0.152559 0.342684 -0.468308
H21   H     H_    0.997829 0.122915 0.371640 0.356020
I1    I     I_    0.311563 0.752975 0.378662 -0.177620
I2    I     I_    0.342338 0.265595 0.674911 -0.191957
I3    I     I_    0.498378 0.741387 0.145222 -0.202754
I4    I     I_    0.318378 0.576293 0.095742 -0.002279
S4    S     S_3+6 0.703893 0.461859 0.128263 0.041465
O18   O     O_2   0.748034 0.532591 0.047969 -0.270120
O19   O     O_2   0.698797 0.504532 0.256318 -0.377065
O20   O     O_3   0.769503 0.364712 0.134871 -0.450439
H22   H     H_    0.821788 0.384210 0.187078 0.381618
S5    S     S_3+6 0.578356 0.304860 0.102458 0.058410
O21   O     O_2   0.636377 0.246030 0.019369 -0.236834
O22   O     O_2   0.608672 0.287628 0.234031 -0.278478
O23   O     O_3   0.474029 0.265337 0.081525 -0.584261
H23   H     H_    0.474585 0.200966 0.117077 0.404668
S6    S     S_3+6 0.761542 0.658617 0.700851 -0.006102
O24   O     O_2   0.666667 0.635611 0.719916 -0.351721
O25   O     O_2   0.808830 0.660782 0.825956 -0.244412
O26   O     O_3   0.768243 0.766784 0.638402 -0.611635
H24   H     H_    0.741173 0.810816 0.699550 0.391719

loop_
_geom_bond_atom_site_label_1
_geom_bond_atom_site_label_2
_ccdc_geom_bond_type
C27   C29   A    
S1    O9    D    
O20   H22   S    
C24   C27   A    
C6    C9    A    
S5    O21   D    
C2    H15   S    
C7    C8    A    
C25   C28   A    
C1    C18   S    
S3    O15   D    
C26   O5    A    
C38   C42   S    
C5    C6    A    
S2    O13   D    
C39   H12   S    
C15   C16   A    
S6    O26   S    
C18   C19   A    
C20   N1    A    
O7    Zn1   S    
C35   C42   S    
S4    O18   D    
C23   N2    A    
O4    Zn2   S    
C38   H13   S    
C31   C32   A    
C35   O8    A    
C23   I2    S    
C22   I1    S    
C9    C10   A    
C21   C30   A    
C21   H6    S    
N1    Zn1   S    
C25   C32   A    
O2    Zn2   S    
C8    C16   A    
C13   C14   A    
C17   S1    S    
S1    O10   D    
C36   C41   S    
C31   H7    S    
C1    O1    A    
S5    O22   D    
O14   H20   S    
C39   C42   S    
C20   C29   A    
C37   I4    S    
O11   H19   S    
C3    C8    A    
C16   H4    S    
C40   S5    S    
O17   H21   S    
C15   S3    S    
O3    Zn1   S    
C12   O4    A    
C29   C34   A    
S4    O20   S    
C19   S2    S    
C12   C41   S    
C39   H14   S    
O6    Zn2   S    
C10   H3    S    
S4    O19   D    
C17   C18   A    
N2    Zn2   S    
C40   S4    S    
S6    O25   D    
C32   H8    S    
C21   N2    A    
C40   C41   S    
S3    O16   D    
O1    Zn1   S    
S1    O11   S    
C22   C24   A    
C3    C4    A    
C1    O2    A    
S5    O23   S    
C12   O3    A    
C36   I3    S    
C5    S6    S    
C11   C17   A    
C30   C33   A    
S2    O12   D    
C14   C19   A    
C4    C5    A    
C4    C26   S    
C2    H16   S    
C6    C7    A    
C33   H9    S    
O26   H24   S    
C34   H10   S    
C9    H18   S    
C26   O6    A    
C37   H2    S    
C36   C38   S    
C24   C31   A    
C37   C39   S    
C22   N1    A    
C11   C13   A    
S2    O14   S    
C38   H11   S    
C2    C42   S    
C28   C30   A    
O23   H23   S    
C33   C34   A    
O5    Zn1   S    
C23   C25   A    
C37   C41   S    
S6    O24   D    
C20   H5    S    
C10   C11   A    
C2    C40   S    
C7    C13   A    
S3    O17   S    
C35   O7    A    
C27   C28   A    
C14   C15   A    
C36   H1    S    
O8    Zn2   S    
C3    H17   S    
