data_mof_unit_59709.cif
_audit_creation_date              2012-12-11T17:08:31-0500
_audit_creation_method            fapswitch 2.2
_symmetry_space_group_name_H-M    P1
_symmetry_Int_Tables_number       1
_space_group_crystal_system       triclinic
_cell_length_a                    6.975623
_cell_length_b                    14.496731
_cell_length_c                    16.10342
_cell_angle_alpha                 90.005512
_cell_angle_beta                  89.93682
_cell_angle_gamma                 90.040357
_cell_volume                      1628.43649778

loop_
_atom_site_label
_atom_site_type_symbol
_atom_type_description
_atom_site_fract_x
_atom_site_fract_y
_atom_site_fract_z
_atom_type_partial_charge
O1    O     O_R   0.505700 0.583890 0.413310 -0.541220
O2    O     O_R   0.175960 0.594920 0.586080 -0.548615
O3    O     O_R   0.005660 0.416110 0.586690 -0.515517
C1    C     C_R   0.344615 0.616540 0.615073 0.687279
O4    O     O_R   0.175980 0.594920 0.413930 -0.549152
O5    O     O_R   0.005680 0.416110 0.413310 -0.532455
C2    C     C_R   0.344834 0.616926 0.385229 0.683414
O6    O     O_R   0.505680 0.583890 0.586690 -0.541123
O7    O     O_3   0.339200 0.441330 0.500000 -0.342426
V1    V     V_3+5 0.064350 0.510880 0.500000 1.438175
O8    O     O_R   0.675960 0.405080 0.413920 -0.538842
C3    C     C_R   0.845014 0.383261 0.385067 0.720919
O9    O     O_R   0.675940 0.405080 0.586070 -0.544770
C4    C     C_R   0.844776 0.382548 0.614320 0.742238
V2    V     V_3+5 0.564340 0.489120 0.500000 1.449657
O10   O     O_3   0.839360 0.558670 0.500000 -0.384192
C5    C     C_R   0.015208 0.311141 0.735485 -0.055407
C6    C     C_R   0.854146 0.316046 0.684181 -0.056539
C7    C     C_R   0.703855 0.254557 0.700748 -0.153637
H1    H     H_    0.583081 0.252670 0.659799 0.189261
C8    C     C_R   0.715358 0.190316 0.766036 -0.068080
H2    H     H_    0.600806 0.140691 0.773550 0.143117
C9    C     C_R   0.877186 0.186742 0.818151 -0.119518
C10   C     C_R   0.024023 0.250772 0.803557 -0.045514
C11   C     C_3   0.230917 0.230910 0.786281 0.239270
C12   C     C_3   0.217767 0.293107 0.710135 0.152995
H3    H     H_    0.253437 0.157028 0.770418 0.125286
H4    H     H_    0.309123 0.355838 0.711071 0.087967
C13   C     C_R   0.729252 0.181768 0.242131 0.123213
C14   C     C_R   0.881907 0.182454 0.185428 -0.147026
C15   C     C_R   0.032446 0.245074 0.200570 -0.120169
H5    H     H_    0.154219 0.247757 0.159095 0.127520
C16   C     C_R   0.021460 0.309200 0.266195 -0.171376
H6    H     H_    0.135705 0.359022 0.273412 0.119198
C17   C     C_R   0.858939 0.313119 0.318287 -0.105252
C18   C     C_R   0.717575 0.245786 0.306536 0.079487
C19   C     C_3   0.506393 0.256384 0.296489 -0.430009
C20   C     C_3   0.518939 0.186025 0.226532 0.228166
H7    H     H_    0.467508 0.326582 0.274550 0.120484
H8    H     H_    0.426194 0.232157 0.352064 0.239018
H9    H     H_    0.483839 0.214109 0.164168 0.071680
C21   C     C_R   0.504026 0.680558 0.743007 0.098895
C22   C     C_R   0.352107 0.681550 0.686111 -0.110566
C23   C     C_R   0.201573 0.744057 0.701450 -0.169724
H10   H     H_    0.079854 0.746777 0.660069 0.135776
C24   C     C_R   0.213018 0.808392 0.766896 -0.166612
H11   H     H_    0.099252 0.858435 0.773976 0.129551
C25   C     C_R   0.375489 0.812300 0.818898 -0.105297
C26   C     C_R   0.515662 0.744308 0.807556 0.099197
C27   C     C_3   0.727349 0.753451 0.798166 -0.405547
C28   C     C_3   0.714704 0.683421 0.728072 -0.395237
H12   H     H_    0.805989 0.727296 0.853343 0.168974
H13   H     H_    0.769513 0.823478 0.776846 0.171724
H14   H     H_    0.785030 0.616655 0.742995 0.161686
H15   H     H_    0.750430 0.712553 0.666125 0.175538
C29   C     C_R   0.507479 0.682963 0.258870 0.095751
C30   C     C_R   0.352929 0.682433 0.314555 -0.107342
C31   C     C_R   0.201194 0.743975 0.298574 -0.171536
H16   H     H_    0.078514 0.745975 0.339525 0.138105
C32   C     C_R   0.212319 0.808130 0.232998 -0.127174
H17   H     H_    0.097325 0.857357 0.225296 0.144962
C33   C     C_R   0.375795 0.812890 0.181566 -0.099324
C34   C     C_R   0.518892 0.746689 0.194200 0.078755
C35   C     C_3   0.728898 0.759657 0.206232 -0.400446
C36   C     C_3   0.716608 0.689854 0.276398 -0.393950
H18   H     H_    0.764128 0.830501 0.227785 0.188980
H19   H     H_    0.813480 0.734722 0.152177 0.164449
H20   H     H_    0.745483 0.719991 0.338624 0.179056
H21   H     H_    0.793416 0.624403 0.262767 0.158865
O11   O     O_R   0.229000 0.916070 0.913330 -0.546976
O12   O     O_R   0.558770 0.905070 0.086080 -0.537110
O13   O     O_R   0.729000 0.083900 0.086690 -0.530875
C37   C     C_R   0.389658 0.883057 0.114798 0.764627
O14   O     O_R   0.558720 0.905070 0.913930 -0.545523
O15   O     O_R   0.728960 0.083900 0.913310 -0.536002
C38   C     C_R   0.389674 0.882917 0.885311 0.674977
O16   O     O_R   0.229050 0.916070 0.086710 -0.539028
O17   O     O_3   0.395460 0.058650 0.000020 -0.353563
V3    V     V_3+5 0.670340 0.989120 0.000000 1.449730
O18   O     O_R   0.058670 0.094960 0.913900 -0.537989
C39   C     C_R   0.889840 0.116964 0.885231 0.683250
O19   O     O_R   0.058720 0.094960 0.086050 -0.523578
C40   C     C_R   0.889918 0.116920 0.114785 0.727536
V4    V     V_3+5 0.170330 0.010930 0.999970 1.473821
O20   O     O_3   0.895340 0.941350 0.999980 -0.382445
Cl1   Cl    Cl    0.404529 0.079234 0.250980 -0.635599
O21   O     O_3   0.362028 0.259266 0.849374 -0.571161
C41   C     C_3   0.337241 0.350071 0.880781 0.095471
H22   H     H_    0.297994 0.344625 0.947490 0.128449
H23   H     H_    0.223073 0.391056 0.850174 0.092579
C42   C     C_3   0.526849 0.402534 0.873119 -0.298508
H24   H     H_    0.641349 0.364278 0.906508 0.200167
H25   H     H_    0.568091 0.407560 0.806625 0.186568
C43   C     C_3   0.511296 0.499740 0.908899 -0.868353
H26   H     H_    0.398776 0.539457 0.875749 0.233357
H27   H     H_    0.650346 0.536150 0.901298 0.232183
H28   H     H_    0.475533 0.496728 0.976076 0.229015
Cl2   Cl    Cl    0.227356 0.228874 0.614691 -0.660030

loop_
_geom_bond_atom_site_label_1
_geom_bond_atom_site_label_2
_ccdc_geom_bond_type
O21   C41   S    
C4    C6    S    
C17   C18   A    
O18   V4    S    
O12   V3    S    
C13   C18   A    
C33   C34   A    
O14   C38   A    
C20   Cl1   S    
C5    C12   S    
C18   C19   S    
C7    C8    A    
C19   C20   S    
O13   V3    S    
O5    C3    A    
C14   C15   A    
C31   C32   A    
V2    O10   S    
C11   O21   S    
C29   C30   A    
C32   C33   A    
C6    C7    A    
C14   C40   S    
C25   C38   S    
O8    V2    S    
C7    H1    S    
C13   C20   S    
C27   H12   S    
C9    C10   A    
C15   C16   A    
C33   C37   S    
O1    V2    S    
O11   V4    S    
O7    V1    S    
C1    O6    A    
C21   C28   S    
O9    C4    A    
C23   C24   A    
C27   C28   S    
C24   C25   A    
C5    C10   A    
C27   H13   S    
C35   H19   S    
C10   C11   S    
C20   H9    S    
C42   H24   S    
O4    C2    A    
O17   V3    S    
O15   C39   A    
C43   H28   S    
C31   H16   S    
C32   H17   S    
C35   H18   S    
O2    C1    A    
C22   C23   A    
C13   C14   A    
C42   H25   S    
C15   H5    S    
C41   C42   S    
C36   H20   S    
C5    C6    A    
C29   C34   A    
V4    O20   S    
C3    C17   S    
C43   H27   S    
O3    C4    A    
C12   Cl2   S    
C25   C26   A    
C41   H23   S    
O19   C40   A    
O6    V2    S    
O19   V4    S    
O14   V3    S    
C8    C9    A    
O11   C38   A    
C21   C22   A    
C19   H8    S    
O2    V1    S    
V3    O20   S    
C23   H10   S    
O12   C37   A    
C24   H11   S    
C9    C39   S    
O1    C2    A    
O18   C39   A    
O5    V1    S    
O8    C3    A    
C1    C22   S    
C11   H3    S    
C12   H4    S    
O16   V4    S    
C28   H14   S    
C35   C36   S    
O9    V2    S    
C11   C12   S    
O4    V1    S    
C19   H7    S    
O3    V1    S    
V1    O10   S    
C42   C43   S    
C30   C31   A    
C36   H21   S    
C16   C17   A    
C16   H6    S    
C28   H15   S    
O7    V2    S    
C43   H26   S    
O13   C40   A    
C21   C26   A    
C34   C35   S    
O17   V4    S    
C41   H22   S    
C26   C27   S    
C37   O16   A    
C8    H2    S    
O15   V3    S    
C2    C30   S    
C29   C36   S    
