data_mof_unit_59668.cif
_audit_creation_date              2013-03-05T15:40:02-0500
_audit_creation_method            fapswitch 2.2
_symmetry_space_group_name_H-M    P1
_symmetry_Int_Tables_number       1
_space_group_crystal_system       triclinic
_cell_length_a                    24.430592
_cell_length_b                    17.298609
_cell_length_c                    15.631201
_cell_angle_alpha                 90.011322
_cell_angle_beta                  129.472698
_cell_angle_gamma                 90.27997
_cell_volume                      5099.23378473

loop_
_atom_site_label
_atom_site_type_symbol
_atom_site_description
_atom_site_fract_x
_atom_site_fract_y
_atom_site_fract_z
_atom_type_partial_charge
C1    C     C_R   0.335127 0.384246 0.207524 0.323772
C2    C     C_R   0.663100 0.381024 0.788371 0.298654
C3    C     C_R   0.835507 0.884443 0.206611 0.274472
C4    C     C_R   0.165664 0.889164 0.797277 0.374667
N1    N     N_R   0.389060 0.424180 0.294540 -0.093730
N2    N     N_R   0.610940 0.424180 0.705460 -0.091368
N3    N     N_R   0.889060 0.924180 0.294540 -0.095821
N4    N     N_R   0.110940 0.924180 0.705460 -0.099533
C5    C     C_R   0.608632 0.385161 0.407012 -0.135006
C6    C     C_R   0.385824 0.398615 0.591710 -0.130741
C7    C     C_R   0.113738 0.899067 0.407566 -0.121479
C8    C     C_R   0.914099 0.856936 0.593069 -0.123013
H1    H     H_    0.588638 0.384703 0.322311 0.104431
H2    H     H_    0.405299 0.404649 0.675843 0.102197
H3    H     H_    0.093657 0.903893 0.323012 0.109307
H4    H     H_    0.943743 0.840642 0.678665 0.110939
N5    N     N_R   0.579670 0.423790 0.443360 -0.048971
N6    N     N_R   0.420330 0.423790 0.556640 -0.050472
N7    N     N_R   0.079670 0.923790 0.443360 -0.050662
N8    N     N_R   0.920330 0.923790 0.556640 -0.048766
C9    C     C_R   0.683330 0.384317 0.591609 -0.108584
C10   C     C_R   0.311801 0.396770 0.408021 -0.097219
C11   C     C_R   0.188398 0.899256 0.591162 -0.070483
C12   C     C_R   0.839573 0.855686 0.408815 -0.072606
H5    H     H_    0.731247 0.379864 0.676101 0.168944
H6    H     H_    0.263369 0.400253 0.323863 0.167619
H7    H     H_    0.237163 0.905431 0.674568 0.173209
H8    H     H_    0.800626 0.837298 0.324286 0.139988
N9    N     N_R   0.625470 0.423490 0.556600 -0.053439
N10   N     N_R   0.374530 0.423490 0.443400 -0.054789
N11   N     N_R   0.125470 0.923490 0.556600 -0.058951
N12   N     N_R   0.874530 0.923490 0.443400 -0.039897
C13   C     C_R   0.568850 0.369923 0.779920 -0.165602
C14   C     C_R   0.428996 0.373132 0.215328 -0.195312
C15   C     C_R   0.076733 0.892275 0.801013 -0.223697
C16   C     C_R   0.929620 0.873034 0.215851 -0.169123
H9    H     H_    0.533690 0.354761 0.797062 0.137179
H10   H     H_    0.463252 0.358978 0.196298 0.141561
H11   H     H_    0.048938 0.898290 0.833545 0.139018
H12   H     H_    0.964689 0.858614 0.198441 0.139363
N13   N     N_R   0.555250 0.423100 0.705420 -0.069643
N14   N     N_R   0.444750 0.423100 0.294580 -0.068319
N15   N     N_R   0.055250 0.923100 0.705420 -0.065817
N16   N     N_R   0.944750 0.923100 0.294580 -0.070357
C17   C     C_R   0.360082 0.346319 0.160778 0.001485
C18   C     C_R   0.636463 0.340572 0.831174 0.013354
C19   C     C_R   0.860705 0.846122 0.160558 0.030760
C20   C     C_R   0.145691 0.868785 0.859670 -0.012732
C21   C     C_R   0.674085 0.360119 0.499080 0.116023
C22   C     C_R   0.316975 0.383216 0.499694 0.109303
C23   C     C_R   0.182676 0.885123 0.499080 0.090713
C24   C     C_R   0.864891 0.812202 0.501503 0.096868
C25   C     C_R   0.324655 0.629042 0.409392 -0.042003
C26   C     C_R   0.685236 0.611926 0.593395 -0.111193
C27   C     C_R   0.839153 0.143605 0.408304 -0.092688
C28   C     C_R   0.166223 0.139834 0.593047 -0.109141
H13   H     H_    0.276294 0.636965 0.325744 0.129690
H14   H     H_    0.733524 0.612315 0.678698 0.125813
H15   H     H_    0.799004 0.160618 0.323212 0.103263
H16   H     H_    0.208727 0.154733 0.678522 0.106906
N17   N     N_R   0.375210 0.577180 0.443400 -0.048512
N18   N     N_R   0.624790 0.577180 0.556600 -0.041446
N19   N     N_R   0.875210 0.077180 0.443400 -0.037708
N20   N     N_R   0.124790 0.077180 0.556600 -0.044626
C29   C     C_R   0.443080 0.642688 0.246029 -0.039724
C30   C     C_R   0.576963 0.612301 0.799850 -0.040589
C31   C     C_R   0.922959 0.110204 0.199013 -0.049288
C32   C     C_R   0.077830 0.110294 0.801686 -0.055082
H17   H     H_    0.482028 0.660639 0.238202 0.149826
H18   H     H_    0.548323 0.611927 0.831310 0.120657
H19   H     H_    0.952046 0.109703 0.168309 0.121708
H20   H     H_    0.049295 0.109445 0.833333 0.121205
N21   N     N_R   0.445430 0.577570 0.294580 -0.061381
N22   N     N_R   0.554570 0.577570 0.705420 -0.060449
N23   N     N_R   0.945430 0.077570 0.294580 -0.062200
N24   N     N_R   0.054570 0.077570 0.705420 -0.061428
C33   C     C_R   0.666700 0.613039 0.795719 -0.045164
C34   C     C_R   0.348115 0.637557 0.237303 -0.035308
C35   C     C_R   0.167568 0.110144 0.798457 -0.082337
C36   C     C_R   0.832534 0.108810 0.200656 -0.083275
H21   H     H_    0.719161 0.615718 0.820165 0.141557
H22   H     H_    0.296505 0.647894 0.212596 0.129146
H23   H     H_    0.220547 0.110894 0.824941 0.151578
H24   H     H_    0.779328 0.108259 0.173386 0.152182
N25   N     N_R   0.611620 0.576500 0.705460 -0.045053
N26   N     N_R   0.388380 0.576500 0.294540 -0.038257
N27   N     N_R   0.111620 0.076500 0.705460 -0.048970
N28   N     N_R   0.888380 0.076500 0.294540 -0.047774
C37   C     C_R   0.403500 0.632183 0.594366 -0.132374
C38   C     C_R   0.612021 0.608725 0.409120 -0.121535
C39   C     C_R   0.913655 0.142785 0.593100 -0.104700
C40   C     C_R   0.090563 0.140149 0.407748 -0.109122
H25   H     H_    0.429845 0.644120 0.680512 0.117102
H26   H     H_    0.592604 0.606347 0.324820 0.104481
H27   H     H_    0.942941 0.158276 0.678923 0.113880
H28   H     H_    0.063277 0.154531 0.322151 0.114045
N29   N     N_R   0.421010 0.576890 0.556640 -0.052492
N30   N     N_R   0.578990 0.576890 0.443360 -0.052587
N31   N     N_R   0.921010 0.076890 0.556640 -0.054491
N32   N     N_R   0.078990 0.076890 0.443360 -0.053694
Ni1   Ni    Ni4+2 0.383200 0.500680 0.370150 0.287069
Ni2   Ni    Ni4+2 0.616800 0.500680 0.629850 0.287224
Ni3   Ni    Ni4+2 0.883200 0.000680 0.370150 0.305980
Ni4   Ni    Ni4+2 0.116800 0.000680 0.629850 0.279182
Ni5   Ni    Ni4+2 0.512440 0.500680 0.370150 0.214017
Ni6   Ni    Ni4+2 0.487560 0.500680 0.629850 0.213835
Ni7   Ni    Ni4+2 0.012440 0.000680 0.370150 0.211863
Ni8   Ni    Ni4+2 0.987560 0.000680 0.629850 0.215210
C41   C     C_R   0.344073 0.667279 0.502468 0.120707
C42   C     C_R   0.678669 0.631811 0.502030 0.122524
C43   C     C_R   0.863724 0.186741 0.500895 0.113448
C44   C     C_R   0.144218 0.181500 0.501089 0.123593
C45   C     C_R   0.383391 0.682864 0.212119 -0.029372
C46   C     C_R   0.647210 0.635176 0.858094 0.030686
C47   C     C_R   0.852388 0.131051 0.138825 0.040406
C48   C     C_R   0.148387 0.132020 0.861014 0.044293
C49   C     C_2   0.736343 0.654767 0.421639 -0.084238
C50   C     C_2   0.342438 0.786380 0.581841 -0.057609
C51   C     C_2   0.149660 0.296280 0.416448 -0.077335
C52   C     C_2   0.850014 0.291743 0.588785 -0.071840
C53   C     C_2   0.735532 0.662740 0.506237 -0.172920
C54   C     C_2   0.307546 0.732231 0.502155 -0.134624
C55   C     C_2   0.178039 0.251748 0.505631 -0.190532
C56   C     C_2   0.835851 0.261531 0.497872 -0.188574
H29   H     H_    0.695455 0.621509 0.348554 0.134289
H30   H     H_    0.398951 0.781553 0.650112 0.158096
H31   H     H_    0.096592 0.284508 0.339953 0.155462
H32   H     H_    0.895007 0.272595 0.670928 0.153247
H33   H     H_    0.774772 0.697349 0.578784 0.138839
H34   H     H_    0.250757 0.734540 0.434887 0.143268
H35   H     H_    0.231323 0.260780 0.582502 0.137026
H36   H     H_    0.793618 0.284859 0.416542 0.138423
C57   C     C_2   0.194821 0.347586 0.410171 -0.074894
C58   C     C_2   0.797038 0.337962 0.580911 -0.094491
C59   C     C_2   0.782307 0.703836 0.414513 -0.105115
C60   C     C_2   0.302942 0.845555 0.588357 -0.083516
C61   C     C_2   0.259094 0.369628 0.501555 -0.196584
C62   C     C_2   0.727515 0.326409 0.497571 -0.193714
C63   C     C_2   0.841457 0.735737 0.505222 -0.199236
C64   C     C_2   0.239569 0.867830 0.496497 -0.184833
H37   H     H_    0.179691 0.354106 0.328639 0.152517
H38   H     H_    0.815143 0.373869 0.651588 0.154289
H39   H     H_    0.759665 0.724044 0.332452 0.175878
H40   H     H_    0.320418 0.858341 0.670285 0.161791
H41   H     H_    0.272759 0.368347 0.582503 0.138291
H42   H     H_    0.708313 0.289280 0.427471 0.144562
H43   H     H_    0.866400 0.712029 0.586746 0.144172
H44   H     H_    0.224956 0.858999 0.415404 0.169880
C65   C     C_2   0.671355 0.273299 0.904051 -0.205710
C66   C     C_2   0.324186 0.279536 0.086713 -0.222559
C67   C     C_2   0.194678 0.852832 0.977762 -0.044436
C68   C     C_2   0.825632 0.778626 0.087796 -0.218391
C69   C     C_2   0.684344 0.208709 0.870534 0.214677
C70   C     C_2   0.318684 0.211942 0.124434 0.210135
C71   C     C_2   0.237491 0.792145 0.014610 0.109589
C72   C     C_2   0.817000 0.712196 0.124022 0.211026
C73   C     C_2   0.359615 0.758319 0.156401 0.168808
C74   C     C_2   0.694756 0.669907 0.970084 0.142999
C75   C     C_2   0.805789 0.166432 0.027337 0.151620
C76   C     C_2   0.195897 0.168361 0.972080 0.141896
C77   C     C_2   0.300740 0.788410 0.132746 0.167240
C78   C     C_2   0.765565 0.654585 0.039384 0.113721
C79   C     C_2   0.734650 0.151594 0.956417 0.105651
C80   C     C_2   0.266886 0.153512 0.041909 0.110851
H45   H     H_    0.695007 0.280554 0.990460 0.147875
H46   H     H_    0.291017 0.289981 0.998149 0.150563
H47   H     H_    0.201709 0.896030 0.034526 0.177063
H48   H     H_    0.797503 0.787039 0.999921 0.153704
N33   N     N_R   0.262739 0.407183 0.147113 0.240070
O1    O     O_R   0.214075 0.381300 0.047147 -0.321774
O2    O     O_R   0.249193 0.469287 0.177483 -0.442543
N34   N     N_R   0.736538 0.399821 0.848396 0.257983
O3    O     O_R   0.784137 0.371921 0.946965 -0.271780
O4    O     O_R   0.753302 0.460276 0.819688 -0.404288
N35   N     N_R   0.762397 0.901082 0.151007 0.261560
O5    O     O_R   0.713550 0.878855 0.049089 -0.256315
O6    O     O_R   0.746075 0.951503 0.193216 -0.382145
N36   N     N_R   0.237151 0.897554 0.839746 0.242179
O7    O     O_R   0.273785 0.836272 0.858258 -0.363941
O8    O     O_R   0.261031 0.965051 0.840348 -0.370173
N37   N     N_R   0.293342 0.795366 0.217032 0.225607
O9    O     O_R   0.349228 0.803222 0.320748 -0.381664
O10   O     O_R   0.230889 0.796074 0.190384 -0.431481
N38   N     N_R   0.792545 0.584169 0.030013 0.240291
O11   O     O_R   0.856718 0.582100 0.063319 -0.340806
O12   O     O_R   0.758294 0.519531 0.007837 -0.356057
N39   N     N_R   0.706148 0.081356 0.963794 0.238179
O13   O     O_R   0.641310 0.079331 0.927785 -0.334836
O14   O     O_R   0.739779 0.016702 0.986238 -0.360605
N40   N     N_R   0.294133 0.081811 0.036289 0.250776
O15   O     O_R   0.358808 0.078387 0.071856 -0.313775
O16   O     O_R   0.259105 0.017812 0.013865 -0.394440
N41   N     N_2   0.646435 0.192909 0.754925 -0.100733
H49   H     H_    0.629098 0.239206 0.702185 0.159338
C81   C     C_3   0.664195 0.124968 0.723075 -0.739679
H50   H     H_    0.628711 0.120892 0.631274 0.229910
H51   H     H_    0.656292 0.071880 0.753940 0.276375
H52   H     H_    0.719800 0.128435 0.755524 0.261705
N42   N     N_2   0.368282 0.191821 0.239561 -0.096142
H53   H     H_    0.407429 0.231559 0.293016 0.168509
C82   C     C_3   0.340878 0.150767 0.286045 -0.736028
H54   H     H_    0.385781 0.131720 0.371313 0.235781
H55   H     H_    0.310510 0.098461 0.236235 0.266730
H56   H     H_    0.306773 0.189508 0.290790 0.253887
N43   N     N_2   0.222389 0.731237 0.939909 -0.099879
H57   H     H_    0.265713 0.700653 0.961992 0.212383
C83   C     C_3   0.165286 0.680129 0.909124 -0.826865
H58   H     H_    0.180017 0.649002 0.983320 0.259381
H59   H     H_    0.154993 0.637033 0.847653 0.256394
H60   H     H_    0.115744 0.713056 0.870846 0.253168
N44   N     N_2   0.858918 0.695965 0.240290 -0.097711
H61   H     H_    0.878353 0.742049 0.294315 0.155986
C84   C     C_3   0.843021 0.627481 0.274371 -0.778277
H62   H     H_    0.787521 0.628798 0.242636 0.251888
H63   H     H_    0.879112 0.624763 0.366285 0.232206
H64   H     H_    0.851523 0.574713 0.243928 0.283145
N45   N     N_R   0.384233 0.786569 0.099336 0.251681
O17   O     O_R   0.405965 0.739376 0.061794 -0.378493
O18   O     O_R   0.385854 0.860622 0.086370 -0.254505
N46   N     N_R   0.665157 0.724224 0.000611 0.265633
O19   O     O_R   0.691539 0.730873 0.103414 -0.405401
O20   O     O_R   0.605917 0.759046 0.924281 -0.326844
N47   N     N_R   0.836941 0.221276 0.999628 0.264461
O21   O     O_R   0.812581 0.227834 0.897900 -0.388703
O22   O     O_R   0.895552 0.257116 0.077814 -0.341842
N48   N     N_R   0.166249 0.224912 0.999857 0.265207
O23   O     O_R   0.191680 0.233357 0.101940 -0.387406
O24   O     O_R   0.107484 0.259715 0.921756 -0.348388

loop_
_geom_bond_atom_site_label_1
_geom_bond_atom_site_label_2
_geom_bond_distance
_ccdc_geom_bond_type
C12   C24   1.383148 A    
N1    N14   1.360361 A    
C57   C61   1.339262 D    
N40   O15   1.301235 A    
C27   H15   1.077990 S    
N5    N9    1.366418 A    
N33   O1    1.299298 A    
N17   Ni1   1.840225 S    
N47   O21   1.301193 A    
C14   N14   1.349084 A    
N4    N15   1.360179 A    
C60   C64   1.336734 D    
N7    N11   1.366418 A    
C51   C55   1.339496 D    
C64   H44   1.086998 S    
C9    C21   1.378993 A    
N36   O7    1.299485 A    
C22   C61   1.450755 S    
N35   O6    1.301049 A    
N43   H57   1.029735 S    
C2    C18   1.382069 A    
C59   C63   1.337899 D    
N31   Ni8   1.829466 S    
C7    N7    1.335714 A    
C51   C57   1.463790 S    
N30   Ni5   1.817649 S    
C69   C79   1.484420 S    
C1    N1    1.332471 A    
N47   O22   1.301693 A    
C76   C80   1.364867 D    
C70   C80   1.482740 S    
C38   N30   1.336355 A    
C62   H42   1.084648 S    
C48   C76   1.478805 S    
C3    N3    1.333366 A    
C42   C53   1.448105 S    
C26   H14   1.081502 S    
C5    H1    1.081326 S    
C29   H17   1.077915 S    
C41   C54   1.436327 S    
N16   Ni7   1.850723 S    
N22   Ni6   1.834112 S    
C66   H46   1.086737 S    
C37   C41   1.377418 A    
C40   H28   1.078976 S    
C24   C63   1.454553 S    
C29   N21   1.339300 A    
N38   O11   1.301184 A    
C56   H36   1.086349 S    
C16   C19   1.392987 A    
C79   N39   1.438153 S    
C17   C66   1.463803 S    
C50   C54   1.340645 D    
C39   C43   1.384790 A    
C4    N4    1.335224 A    
C31   C47   1.389820 A    
C65   C69   1.355800 D    
C46   C74   1.477192 S    
N19   N31   1.366415 A    
C68   H48   1.086794 S    
N18   N30   1.366374 A    
C25   N17   1.337580 A    
C11   C23   1.376499 A    
C8    H4    1.079006 S    
N18   Ni2   1.839178 S    
N38   O12   1.300967 A    
N41   C81   1.448030 S    
N2    N13   1.360179 A    
C27   N19   1.339031 A    
C83   H60   1.110624 S    
C28   N20   1.334054 A    
N6    N10   1.366373 A    
C11   H7    1.074424 S    
C15   N15   1.341067 A    
C31   H19   1.081216 S    
C67   H47   1.086239 S    
C36   H24   1.080185 S    
C10   C22   1.376408 A    
C81   H52   1.108795 S    
C55   H35   1.082598 S    
C23   C64   1.448609 S    
C34   N26   1.332376 A    
C84   H63   1.110684 S    
C72   C78   1.481912 S    
N42   H53   1.030871 S    
N24   Ni8   1.834112 S    
N3    Ni3   1.839814 S    
C21   C62   1.446063 S    
C72   N44   1.437792 S    
C77   N37   1.444250 S    
C13   C18   1.397849 A    
C82   H55   1.110888 S    
C2    N2    1.330680 A    
C7    H3    1.081916 S    
N8    N12   1.366373 A    
C80   N40   1.439318 S    
C15   C20   1.373644 A    
C35   N27   1.336331 A    
N46   O19   1.301257 A    
C8    C24   1.376749 A    
N34   O4    1.300942 A    
C38   H26   1.080802 S    
N37   O10   1.301446 A    
N1    Ni1   1.839814 S    
N13   Ni6   1.862740 S    
C83   H58   1.111751 S    
C68   C72   1.354740 D    
N23   Ni7   1.846015 S    
C16   H12   1.081104 S    
C65   H45   1.086692 S    
C44   C55   1.442225 S    
N19   Ni3   1.840225 S    
C6    H2    1.081983 S    
C4    N36   1.426652 S    
C25   H13   1.077887 S    
C40   C44   1.384741 A    
C81   H50   1.110563 S    
C26   N18   1.335708 A    
N45   O17   1.301118 A    
C84   H62   1.109135 S    
C9    N9    1.335223 A    
C71   C77   1.474773 S    
C28   H16   1.078481 S    
C37   N29   1.330455 A    
C26   C42   1.375889 A    
C11   N11   1.334724 A    
N37   O9    1.301818 A    
C15   H11   1.081771 S    
C12   N12   1.341754 A    
C78   N38   1.438837 S    
N5    Ni5   1.846243 S    
C58   H38   1.085222 S    
C30   N22   1.344896 A    
C34   H22   1.074241 S    
N21   Ni5   1.846015 S    
N44   H61   1.029731 S    
C36   C47   1.382664 A    
C33   H21   1.080537 S    
C32   H20   1.081341 S    
C63   H43   1.085702 S    
C8    N8    1.339259 A    
C73   N45   1.440679 S    
C31   N23   1.346214 A    
N12   Ni3   1.856076 S    
C5    C21   1.377278 A    
C14   C17   1.394171 A    
N3    N16   1.360361 A    
N4    Ni4   1.839143 S    
N24   N27   1.393581 A    
C32   C48   1.390569 A    
N29   Ni6   1.829466 S    
C5    N5    1.336258 A    
N44   C84   1.448071 S    
N41   H49   1.029583 S    
N48   O24   1.301664 A    
C10   H6    1.075128 S    
C82   H56   1.110347 S    
C75   C79   1.364279 D    
C16   N16   1.348802 A    
C34   C45   1.391710 A    
N45   O18   1.301322 A    
C38   C42   1.380835 A    
C33   C46   1.384137 A    
C6    C22   1.374211 A    
C73   C77   1.344519 D    
C1    N33   1.435422 S    
N28   Ni3   1.822703 S    
C50   C60   1.457317 S    
N34   O3    1.298810 A    
C40   N32   1.335902 A    
N42   C82   1.447264 S    
C4    C20   1.384577 A    
C84   H64   1.109123 S    
C25   C41   1.377798 A    
N20   Ni4   1.839178 S    
C9    H5    1.075083 S    
N32   Ni7   1.817649 S    
N40   O16   1.300017 A    
C30   C46   1.391929 A    
C27   C43   1.379288 A    
C43   C56   1.451725 S    
C14   H10   1.080414 S    
C29   C45   1.384832 A    
N17   N29   1.366415 A    
C12   H8    1.072743 S    
N43   C83   1.446953 S    
C53   H33   1.084129 S    
C71   N43   1.434471 S    
C58   C62   1.343585 D    
N36   O8    1.300034 A    
C52   H32   1.084387 S    
C49   C59   1.464117 S    
C61   H41   1.084431 S    
C49   C53   1.342139 D    
C32   N24   1.347958 A    
C54   H34   1.085272 S    
C57   H37   1.084012 S    
C67   C71   1.331471 D    
C82   H54   1.110482 S    
N46   O20   1.301657 A    
C45   C73   1.471144 S    
N11   Ni4   1.857238 S    
C13   N13   1.350622 A    
N39   O13   1.301163 A    
C36   N28   1.337756 A    
N35   O5    1.299249 A    
C10   N10   1.335465 A    
C35   H23   1.079499 S    
C70   N42   1.435195 S    
C1    C17   1.380644 A    
C30   H18   1.081117 S    
N6    Ni6   1.834316 S    
C6    N6    1.335986 A    
C51   H31   1.085552 S    
C75   N47   1.441914 S    
N10   Ni1   1.856076 S    
C3    C19   1.379792 A    
C59   H39   1.083261 S    
C76   N48   1.441083 S    
N9    Ni2   1.857238 S    
C52   C58   1.461879 S    
N15   Ni8   1.862740 S    
N2    Ni2   1.839143 S    
N22   N25   1.393581 A    
C37   H25   1.080189 S    
N14   Ni5   1.850723 S    
C13   H9    1.081153 S    
N21   N26   1.393402 A    
N39   O14   1.300646 A    
C7    C23   1.371847 A    
C74   C78   1.363193 D    
C33   N25   1.333530 A    
N27   Ni4   1.823256 S    
N23   N28   1.393402 A    
N20   N32   1.366374 A    
C18   C65   1.467709 S    
C69   N41   1.437888 S    
C19   C68   1.463459 S    
C39   H27   1.077506 S    
C60   H40   1.083987 S    
N48   O23   1.300803 A    
C66   C70   1.353699 D    
C20   C67   1.452760 S    
C47   C75   1.480681 S    
C83   H59   1.110396 S    
C74   N46   1.441753 S    
C3    N35   1.435216 S    
C50   H30   1.086231 S    
C81   H51   1.109187 S    
C39   N31   1.337302 A    
C35   C48   1.379550 A    
N26   Ni1   1.822703 S    
C49   H29   1.084961 S    
C28   C44   1.377091 A    
N25   Ni2   1.823256 S    
C52   C56   1.336069 D    
C2    N34   1.434875 S    
N8    Ni8   1.834316 S    
N33   O2    1.300789 A    
N7    Ni7   1.846243 S    
