data_mof_unit_48323.cif
_audit_creation_date              2012-12-10T18:33:31-0500
_audit_creation_method            fapswitch 2.2
_symmetry_space_group_name_H-M    P1
_symmetry_Int_Tables_number       1
_space_group_crystal_system       triclinic
_cell_length_a                    8.712373
_cell_length_b                    15.091605
_cell_length_c                    13.894998
_cell_angle_alpha                 90.491133
_cell_angle_beta                  98.176889
_cell_angle_gamma                 90.404594
_cell_volume                      1808.26240186

loop_
_atom_site_label
_atom_site_type_symbol
_atom_type_description
_atom_site_fract_x
_atom_site_fract_y
_atom_site_fract_z
_atom_type_partial_charge
C1    C     C_R   0.500247 0.330132 0.499591 0.784148
C2    C     C_R   0.500850 0.670251 0.500493 0.792569
C3    C     C_R   0.617314 0.543792 0.119159 -0.284918
C4    C     C_R   0.423721 0.432365 0.884140 -0.294607
C5    C     C_R   0.612746 0.544799 0.219974 -0.021024
C6    C     C_R   0.422322 0.435133 0.782794 -0.019418
C7    C     C_R   0.390453 0.451858 0.199345 0.663924
C8    C     C_R   0.582551 0.563143 0.798765 0.645421
C9    C     C_R   0.386121 0.454069 0.097175 -0.369899
C10   C     C_R   0.578306 0.565366 0.900134 -0.377317
C11   C     C_R   0.501717 0.498858 0.054880 0.099553
C12   C     C_R   0.501233 0.498690 0.945432 0.110964
C13   C     C_R   0.203667 0.499865 0.475019 0.886954
C14   C     C_R   0.796323 0.500004 0.524981 0.877777
C15   C     C_2   0.037597 0.499714 0.461330 -0.359004
C16   C     C_2   0.962385 0.500050 0.538677 -0.392175
C17   C     C_R   0.411713 0.094227 0.550253 -0.199563
C18   C     C_R   0.465612 0.906122 0.418147 -0.211110
C19   C     C_R   0.407295 0.186031 0.550994 -0.195532
C20   C     C_R   0.461066 0.814247 0.416490 -0.194457
C21   C     C_R   0.504574 0.234038 0.498816 -0.044314
C22   C     C_R   0.504885 0.767125 0.502045 -0.053484
C23   C     C_R   0.606932 0.190280 0.446026 -0.238963
C24   C     C_R   0.552857 0.812877 0.589443 -0.221421
C25   C     C_R   0.617416 0.097720 0.447354 0.106145
C26   C     C_R   0.560978 0.905538 0.592297 0.094255
C27   C     C_R   0.518702 0.049457 0.501418 0.080837
C28   C     C_R   0.518551 0.952388 0.504494 0.085019
Cu1   Cu    Cu3+1 0.500000 0.499990 0.596430 0.966665
Cu2   Cu    Cu3+1 0.500000 0.500010 0.403570 0.965583
H1    H     H_    0.977075 0.499321 0.387276 0.180715
H2    H     H_    0.022887 0.500486 0.612738 0.176643
H3    H     H_    0.331381 0.057757 0.588136 0.132790
H4    H     H_    0.426852 0.941521 0.351700 0.134441
H5    H     H_    0.325885 0.219597 0.590616 0.134303
H6    H     H_    0.421066 0.780133 0.348549 0.155802
H7    H     H_    0.681592 0.228842 0.405917 0.137122
H8    H     H_    0.585656 0.776163 0.655626 0.196973
H9    H     H_    0.712427 0.577750 0.092750 0.140110
H10   H     H_    0.364873 0.377728 0.913440 0.137734
H11   H     H_    0.701144 0.580973 0.267456 0.146008
H12   H     H_    0.359792 0.384406 0.737334 0.141351
H13   H     H_    0.291026 0.421161 0.052090 0.145479
H14   H     H_    0.633362 0.620384 0.942145 0.136434
N1    N     N_R   0.500000 0.500020 0.258690 -0.210302
N2    N     N_R   0.500000 0.499980 0.741310 -0.202843
O1    O     O_R   0.500010 0.371450 0.581430 -0.594511
O2    O     O_R   0.499990 0.628550 0.418570 -0.597467
O3    O     O_R   0.500010 0.371460 0.418560 -0.578017
O4    O     O_R   0.499990 0.628540 0.581440 -0.534835
O5    O     O_R   0.274840 0.499990 0.562640 -0.590916
O6    O     O_R   0.725160 0.500010 0.437360 -0.590735
O7    O     O_R   0.274840 0.500000 0.399770 -0.535915
O8    O     O_R   0.725160 0.500000 0.600230 -0.571568
C29   C     C_3   0.733979 0.053992 0.390783 -0.417928
C30   C     C_3   0.873322 0.017148 0.458064 -0.349467
C31   C     C_3   0.999554 0.985134 0.400628 -0.842032
H15   H     H_    0.953250 0.932204 0.348185 0.254375
H16   H     H_    0.043882 0.040988 0.360563 0.251626
H17   H     H_    0.097598 0.957908 0.451353 0.245577
H18   H     H_    0.923419 0.069555 0.510183 0.214812
H19   H     H_    0.835703 0.960336 0.499350 0.226151
H20   H     H_    0.677634 0.000683 0.342633 0.195048
H21   H     H_    0.777636 0.103083 0.341659 0.194815
C32   C     C_3   0.612124 0.950899 0.689838 -0.416728
C33   C     C_3   0.773227 0.993706 0.695599 -0.350617
C34   C     C_3   0.828747 0.030480 0.797319 -0.851434
H22   H     H_    0.746833 0.081232 0.817385 0.256711
H23   H     H_    0.838164 0.976348 0.851464 0.251097
H24   H     H_    0.944750 0.061864 0.798881 0.237693
H25   H     H_    0.857762 0.943702 0.677119 0.213918
H26   H     H_    0.769689 0.049209 0.643639 0.228332
H27   H     H_    0.526154 0.001014 0.704964 0.196924
H28   H     H_    0.615783 0.901827 0.749413 0.198761
O9    O     O_3   0.276539 0.407020 0.239857 -0.563276
C35   C     C_3   0.275850 0.315211 0.217309 0.059058
H29   H     H_    0.303390 0.278262 0.286305 0.178811
H30   H     H_    0.362398 0.294268 0.169744 0.108291
C36   C     C_3   0.114457 0.287046 0.169795 -0.841379
H31   H     H_    0.083272 0.322199 0.099973 0.240421
H32   H     H_    0.111673 0.214534 0.155297 0.205258
H33   H     H_    0.027929 0.302927 0.218753 0.256138
O10   O     O_3   0.659770 0.628976 0.755812 -0.577801
C37   C     C_3   0.820843 0.623991 0.787706 0.046368
H34   H     H_    0.864686 0.555642 0.778497 0.148461
H35   H     H_    0.848925 0.644700 0.865249 0.128670
C38   C     C_3   0.905472 0.686642 0.727497 -0.787932
H36   H     H_    0.870463 0.756092 0.739263 0.235849
H37   H     H_    0.032648 0.681074 0.749393 0.205223
H38   H     H_    0.877098 0.669697 0.649028 0.248804

loop_
_geom_bond_atom_site_label_1
_geom_bond_atom_site_label_2
_ccdc_geom_bond_type
C38   H36   S    
C1    C21   S    
C8    O10   S    
Cu2   N1    S    
C37   C38   S    
C29   C30   S    
Cu1   O1    S    
C7    N1    A    
C22   C24   A    
Cu2   O2    S    
C19   C21   A    
C24   C26   A    
C31   H16   S    
Cu1   O8    S    
C15   C16   D    
C32   H27   S    
C30   C31   S    
Cu2   O6    S    
C2    O4    A    
C13   O5    A    
C14   O6    A    
C33   H25   S    
C29   H20   S    
C2    C22   S    
C24   H8    S    
C35   C36   S    
C4    C12   A    
C30   H19   S    
C33   C34   S    
C3    H9    S    
C17   H3    S    
C13   O7    A    
Cu1   O4    S    
Cu2   O7    S    
C33   H26   S    
C9    H13   S    
C35   H30   S    
C10   H14   S    
C34   H22   S    
C17   C27   A    
C4    H10   S    
C18   C28   A    
C35   H29   S    
C4    C6    A    
C36   H32   S    
C1    O1    A    
C31   H17   S    
C7    O9    S    
C2    O2    A    
C23   H7    S    
C5    N1    A    
C32   H28   S    
C34   H23   S    
O9    C35   S    
Cu1   Cu2   S    
C9    C11   A    
O10   C37   S    
C13   C15   S    
C29   H21   S    
C37   H34   S    
C18   H4    S    
C10   C12   A    
C14   O8    A    
Cu2   O3    S    
C20   C22   A    
C38   H37   S    
C14   C16   S    
C16   H2    S    
Cu1   O5    S    
C7    C9    A    
C5    H11   S    
C6    N2    A    
C26   C32   S    
C25   C29   S    
C37   H35   S    
C3    C5    A    
C36   H33   S    
C11   C12   S    
C15   H1    S    
C25   C27   A    
C26   C28   A    
Cu1   N2    S    
C34   H24   S    
C21   C23   A    
C19   H5    S    
C31   H15   S    
C17   C19   A    
C18   C20   A    
C23   C25   A    
C8    N2    A    
C3    C11   A    
C36   H31   S    
C20   H6    S    
C8    C10   A    
C32   C33   S    
C6    H12   S    
C38   H38   S    
C27   C28   S    
C30   H18   S    
C1    O3    A    
