data_mof_unit_58262.cif
_audit_creation_date              2012-12-10T20:30:09-0500
_audit_creation_method            fapswitch 2.2
_symmetry_space_group_name_H-M    P1
_symmetry_Int_Tables_number       1
_space_group_crystal_system       triclinic
_cell_length_a                    9.881544
_cell_length_b                    10.692345
_cell_length_c                    13.199432
_cell_angle_alpha                 90.043914
_cell_angle_beta                  72.481067
_cell_angle_gamma                 89.368448
_cell_volume                      1329.83229123

loop_
_atom_site_label
_atom_site_type_symbol
_atom_type_description
_atom_site_fract_x
_atom_site_fract_y
_atom_site_fract_z
_atom_type_partial_charge
C1    C     C_R   0.501048 0.740187 0.496410 0.895955
C2    C     C_R   0.450717 0.413336 0.974253 0.101310
C3    C     C_R   0.493218 0.413803 0.862435 0.094700
C4    C     C_R   0.555225 0.439664 0.025223 0.037909
C5    C     C_R   0.696759 0.467121 0.963492 0.160473
C6    C     C_R   0.739427 0.435694 0.855974 -0.272237
C7    C     C_R   0.639258 0.401217 0.807824 -0.206598
C8    C     C_R   0.521814 0.446778 0.134980 -0.267880
C9    C     C_R   0.753295 0.530248 0.122011 -0.215730
C10   C     C_R   0.388759 0.429494 0.809510 -0.128153
C11   C     C_R   0.392633 0.938182 0.466778 0.138610
C12   C     C_R   0.425762 0.477874 0.700151 0.877663
C13   C     C_R   0.509140 0.871672 0.478093 -0.111486
C14   C     C_R   0.637309 0.933977 0.467033 -0.224224
C15   C     C_R   0.638336 0.063314 0.466559 -0.227035
C16   C     C_R   0.511235 0.128931 0.477034 -0.098202
C17   C     C_R   0.393797 0.065960 0.466348 0.136003
C18   C     C_3   0.241137 0.076748 0.530055 -0.468874
C19   C     C_3   0.239705 0.935268 0.530789 -0.504335
C20   C     C_R   0.892666 0.534374 0.588841 0.208668
C21   C     C_R   0.962552 0.455103 0.415571 -0.145514
C22   C     C_R   0.106373 0.455095 0.415562 -0.129511
C23   C     C_R   0.502400 0.260064 0.495845 0.861533
C24   C     C_R   0.034956 0.533545 0.589103 0.202924
C25   C     C_3   0.017037 0.657033 0.643641 -0.528739
C26   C     C_3   0.863666 0.658210 0.643270 -0.489263
C27   C     C_R   0.576609 0.499245 0.297199 0.888294
C28   C     C_R   0.791938 0.521944 0.011685 0.204902
C29   C     C_R   0.619853 0.490627 0.182832 -0.096662
C30   C     C_R   0.247635 0.402827 0.863897 -0.202784
C31   C     C_R   0.206441 0.382762 0.972958 -0.144241
C32   C     C_R   0.305094 0.393900 0.028893 -0.186735
H1    H     H_    0.825020 0.571224 0.160499 0.157632
H2    H     H_    0.225383 0.118583 0.610038 0.205605
H3    H     H_    0.175126 0.118769 0.483693 0.203409
H4    H     H_    0.223384 0.895510 0.611381 0.206552
H5    H     H_    0.172637 0.896308 0.484524 0.202837
H6    H     H_    0.936633 0.420764 0.346655 0.147224
H7    H     H_    0.188250 0.420523 0.346649 0.139967
H8    H     H_    0.030057 0.650443 0.723961 0.207583
H9    H     H_    0.081282 0.729474 0.592285 0.218270
H10   H     H_    0.849543 0.436684 0.808390 0.157185
H11   H     H_    0.839660 0.732560 0.592162 0.212468
H12   H     H_    0.419760 0.418013 0.185289 0.154476
H13   H     H_    0.170029 0.397664 0.821349 0.147705
H14   H     H_    0.263766 0.386345 0.113980 0.118470
H15   H     H_    0.678079 0.367423 0.726979 0.183249
H16   H     H_    0.733446 0.884166 0.466874 0.168910
N1    N     N_R   0.856940 0.500860 0.500710 -0.108705
N2    N     N_R   0.142580 0.500820 0.500710 -0.102852
O1    O     O_R   0.385310 0.683210 0.499990 -0.608208
O2    O     O_R   0.614650 0.683240 0.500000 -0.618329
O3    O     O_R   0.328390 0.499940 0.653610 -0.614176
O4    O     O_R   0.557730 0.499980 0.653620 -0.620714
O5    O     O_R   0.385350 0.316760 0.500000 -0.622668
O6    O     O_R   0.614690 0.316790 0.500010 -0.633120
O7    O     O_R   0.442270 0.500020 0.346380 -0.624746
O8    O     O_R   0.671610 0.500060 0.346390 -0.625891
Zn1   Zn    Zn3+2 0.346870 0.499980 0.499990 0.939067
Zn2   Zn    Zn3+2 0.653130 0.500020 0.500010 0.932498
H17   H     H_    0.734787 0.110687 0.466356 0.171675
H18   H     H_    0.786575 0.652331 0.724044 0.217386
C33   C     C_3   0.924547 0.586708 0.947927 -0.959190
H19   H     H_    0.894551 0.667819 0.906517 0.248196
H20   H     H_    0.987716 0.621704 0.998646 0.251136
H21   H     H_    0.992449 0.522665 0.888713 0.232564
H22   H     H_    0.096321 0.364338 0.015060 0.153797

loop_
_geom_bond_atom_site_label_1
_geom_bond_atom_site_label_2
_ccdc_geom_bond_type
C2    C4    A    
C33   H20   S    
C23   O5    A    
C6    C7    A    
C19   H5    S    
O5    Zn1   S    
C27   C29   S    
C5    C28   A    
C18   H2    S    
C18   H3    S    
C10   C30   A    
C30   H13   S    
C31   C32   A    
C1    O1    A    
C9    C29   A    
C15   H17   S    
C4    C8    A    
C31   H22   S    
C21   N1    A    
C17   C18   S    
O3    Zn1   S    
C33   H21   S    
C23   O6    A    
C3    C10   A    
O4    Zn2   S    
C21   C22   A    
C24   N2    A    
C11   C13   A    
C30   C31   A    
C11   C19   S    
C20   N1    A    
N1    Zn2   S    
C10   C12   S    
C9    H1    S    
N2    Zn1   S    
C16   C17   A    
C26   H11   S    
C2    C3    A    
C16   C23   S    
C3    C7    A    
C19   H4    S    
C25   H8    S    
C26   H18   S    
C5    C6    A    
C1    O2    A    
C12   O4    A    
O7    Zn1   S    
O1    Zn1   S    
C8    C29   A    
O8    Zn2   S    
C15   C16   A    
C28   C33   S    
O6    Zn2   S    
C22   N2    A    
C1    C13   S    
C24   C25   S    
C2    C32   A    
C18   C19   S    
C27   O7    A    
C25   H9    S    
C20   C24   A    
C14   C15   A    
C4    C5    A    
C14   H16   S    
O2    Zn2   S    
C22   H7    S    
C25   C26   S    
C13   C14   A    
C32   H14   S    
C27   O8    A    
C11   C17   A    
C21   H6    S    
C12   O3    A    
C9    C28   A    
C7    H15   S    
C33   H19   S    
C20   C26   S    
C8    H12   S    
C6    H10   S    
