data_mof_unit_8543.cif
_audit_creation_date              2012-12-11T14:14:11-0500
_audit_creation_method            fapswitch 2.2
_symmetry_space_group_name_H-M    P1
_symmetry_Int_Tables_number       1
_space_group_crystal_system       triclinic
_cell_length_a                    17.181605
_cell_length_b                    7.234946
_cell_length_c                    16.836004
_cell_angle_alpha                 90.000041
_cell_angle_beta                  99.521279
_cell_angle_gamma                 89.999936
_cell_volume                      2064.0191197

loop_
_atom_site_label
_atom_site_type_symbol
_atom_type_description
_atom_site_fract_x
_atom_site_fract_y
_atom_site_fract_z
_atom_type_partial_charge
O1    O     O_R   0.414560 0.494370 0.416770 -0.537845
O2    O     O_R   0.585440 0.994370 0.583230 -0.537845
O3    O     O_R   0.578370 0.819590 0.429320 -0.539471
O4    O     O_R   0.421630 0.319590 0.570680 -0.539471
C1    C     C_R   0.603614 0.654813 0.413039 0.690347
C2    C     C_R   0.396386 0.154813 0.586961 0.690346
O5    O     O_R   0.414740 0.823790 0.407360 -0.540300
O6    O     O_R   0.585260 0.323790 0.592640 -0.540300
O7    O     O_R   0.420650 0.998510 0.561120 -0.533511
O8    O     O_R   0.579350 0.498510 0.438880 -0.533511
C3    C     C_R   0.387970 0.655859 0.385051 0.737625
C4    C     C_R   0.612030 0.155859 0.614949 0.737624
O9    O     O_3   0.502130 0.662240 0.550470 -0.379748
O10   O     O_3   0.497870 0.162240 0.449530 -0.379748
V1    V     V_3+5 0.499600 0.935390 0.490640 1.395279
V2    V     V_3+5 0.500400 0.435390 0.509360 1.395279
C5    C     C_2   0.793801 0.270857 0.775594 0.067060
C6    C     C_2   0.206197 0.770855 0.224407 0.067061
C7    C     C_2   0.817368 0.118624 0.820971 -0.334830
C8    C     C_2   0.182632 0.618624 0.179029 -0.334827
H1    H     H_    0.778144 0.999916 0.817082 0.153989
H2    H     H_    0.221858 0.499919 0.182916 0.153990
C9    C     C_2   0.710951 0.281598 0.730849 0.109547
C10   C     C_2   0.289047 0.781599 0.269152 0.109544
C11   C     C_2   0.684014 0.146214 0.677194 -0.349112
C12   C     C_2   0.315985 0.646214 0.322806 -0.349113
H3    H     H_    0.720655 0.024566 0.674531 0.117257
H4    H     H_    0.279346 0.524564 0.325468 0.117257
C13   C     C_R   0.332852 0.140892 0.635995 -0.061835
C14   C     C_R   0.667148 0.640891 0.364005 -0.061838
C15   C     C_R   0.164829 0.123441 0.860553 -0.236320
C16   C     C_R   0.835171 0.623442 0.139447 -0.236322
C17   C     C_R   0.298175 0.222395 0.847058 0.349845
C18   C     C_R   0.701827 0.722405 0.152944 0.349846
C19   C     C_R   0.238752 0.197841 0.894214 0.327847
C20   C     C_R   0.761249 0.697847 0.105788 0.327849
C21   C     C_R   0.150751 0.066170 0.778332 0.013713
C22   C     C_R   0.849249 0.566167 0.221667 0.013710
C23   C     C_R   0.212154 0.087072 0.730874 0.083626
C24   C     C_R   0.787845 0.587069 0.269126 0.083628
C25   C     C_R   0.285090 0.170982 0.765020 -0.034439
C26   C     C_R   0.714911 0.670986 0.234981 -0.034437
C27   C     C_R   0.343985 0.200173 0.716289 -0.138998
C28   C     C_R   0.656016 0.700178 0.283713 -0.138996
C29   C     C_R   0.262615 0.052560 0.603742 -0.172675
C30   C     C_R   0.737384 0.552551 0.396256 -0.172676
C31   C     C_R   0.203066 0.027509 0.649698 -0.125948
C32   C     C_R   0.796932 0.527499 0.350300 -0.125950
H5    H     H_    0.399685 0.264529 0.740460 0.152828
H6    H     H_    0.600318 0.764540 0.259543 0.152830
H7    H     H_    0.253558 0.003150 0.542103 0.107700
H8    H     H_    0.746439 0.503136 0.457894 0.107702
H9    H     H_    0.150544 0.960252 0.619545 0.119019
H10   H     H_    0.849453 0.460236 0.380451 0.119022
O11   O     O_R   0.920750 0.773600 0.061260 -0.520896
O12   O     O_R   0.079250 0.273600 0.938740 -0.520897
O13   O     O_R   0.085340 0.439850 0.092570 -0.533557
O14   O     O_R   0.914660 0.939850 0.907430 -0.533556
C33   C     C_R   0.111471 0.609052 0.115550 0.744040
C34   C     C_R   0.888529 0.109052 0.884450 0.744041
O15   O     O_R   0.921720 0.444130 0.070790 -0.541630
O16   O     O_R   0.078280 0.944130 0.929210 -0.541630
O17   O     O_R   0.914480 0.269530 0.916840 -0.538724
O18   O     O_R   0.085520 0.769530 0.083160 -0.538722
C35   C     C_R   0.897622 0.612724 0.087812 0.778990
C36   C     C_R   0.102378 0.112723 0.912188 0.778992
O19   O     O_3   0.997840 0.601520 0.949550 -0.384476
O20   O     O_3   0.002160 0.101520 0.050450 -0.384476
V3    V     V_3+5 0.000400 0.328340 0.009360 1.471509
V4    V     V_3+5 0.999600 0.828340 0.990640 1.471510
C37   C     C_3   0.847990 0.436591 0.770324 -0.297527
C38   C     C_3   0.841858 0.512386 0.684177 -0.346986
C39   C     C_3   0.901146 0.668085 0.680373 -0.790814
H11   H     H_    0.889645 0.783969 0.720156 0.228351
H12   H     H_    0.962374 0.617278 0.699551 0.228797
H13   H     H_    0.895478 0.720285 0.617654 0.220498
H14   H     H_    0.853146 0.399382 0.642861 0.198351
H15   H     H_    0.781944 0.568128 0.662705 0.193257
H16   H     H_    0.834031 0.547788 0.811240 0.189401
H17   H     H_    0.910439 0.397933 0.789465 0.175604
C40   C     C_3   0.152006 0.936583 0.229680 -0.297528
C41   C     C_3   0.158137 0.012367 0.315828 -0.346990
C42   C     C_3   0.098847 0.168060 0.319636 -0.790816
H18   H     H_    0.110347 0.283951 0.279855 0.228352
H19   H     H_    0.037620 0.117252 0.300455 0.228799
H20   H     H_    0.104514 0.220253 0.382355 0.220500
H21   H     H_    0.146850 0.899358 0.357142 0.198352
H22   H     H_    0.218050 0.068111 0.337302 0.193258
H23   H     H_    0.165964 0.047786 0.188766 0.189400
H24   H     H_    0.089558 0.897922 0.210537 0.175601
C43   C     C_3   0.068633 0.996721 0.741195 -0.332232
C44   C     C_3   0.013169 0.156488 0.709466 -0.316839
C45   C     C_3   0.027747 0.230997 0.628342 -0.733491
H25   H     H_    0.086571 0.297738 0.634555 0.236433
H26   H     H_    0.023347 0.118095 0.583137 0.216748
H27   H     H_    0.982656 0.336785 0.606121 0.209806
H28   H     H_    0.951163 0.106956 0.702345 0.177850
H29   H     H_    0.020197 0.270911 0.753968 0.183275
H30   H     H_    0.069742 0.889804 0.694482 0.163770
H31   H     H_    0.041304 0.920328 0.786352 0.149235
C46   C     C_3   0.931366 0.496713 0.258804 -0.332230
C47   C     C_3   0.986830 0.656474 0.290538 -0.316851
C48   C     C_3   0.972254 0.730963 0.371665 -0.733507
H32   H     H_    0.913432 0.797703 0.365457 0.236436
H33   H     H_    0.976655 0.618051 0.416864 0.216753
H34   H     H_    0.017347 0.836745 0.393889 0.209810
H35   H     H_    0.048836 0.606946 0.297655 0.177853
H36   H     H_    0.979800 0.770906 0.246041 0.183282
H37   H     H_    0.930255 0.389790 0.305514 0.163774
H38   H     H_    0.958696 0.420326 0.213647 0.149236
C49   C     C_3   0.663055 0.452793 0.744605 -0.337368
C50   C     C_3   0.588144 0.406065 0.779047 -0.274207
C51   C     C_3   0.541154 0.581358 0.788990 -0.635479
H39   H     H_    0.576980 0.678442 0.831292 0.260539
H40   H     H_    0.523448 0.650581 0.729857 0.209720
H41   H     H_    0.487016 0.545935 0.813430 0.264225
H42   H     H_    0.549877 0.309535 0.738868 0.179758
H43   H     H_    0.604692 0.338312 0.838726 0.241366
H44   H     H_    0.698927 0.545743 0.788733 0.185551
H45   H     H_    0.648858 0.535162 0.688549 0.181788
C52   C     C_3   0.336941 0.952797 0.255397 -0.337367
C53   C     C_3   0.411852 0.906073 0.220953 -0.274208
C54   C     C_3   0.458840 0.081368 0.211010 -0.635477
H46   H     H_    0.423012 0.178452 0.168709 0.260539
H47   H     H_    0.476546 0.150590 0.270143 0.209720
H48   H     H_    0.512977 0.045948 0.186567 0.264228
H49   H     H_    0.450120 0.809545 0.261131 0.179761
H50   H     H_    0.395303 0.838321 0.161274 0.241365
H51   H     H_    0.301068 0.045747 0.211271 0.185550
H52   H     H_    0.351139 0.035164 0.311454 0.181788
Cl1   Cl    Cl    0.390051 0.314332 0.893302 -0.557376
Cl2   Cl    Cl    0.609953 0.814350 0.106702 -0.557378
Cl3   Cl    Cl    0.258059 0.258378 0.997704 -0.587916
Cl4   Cl    Cl    0.741942 0.758389 0.002298 -0.587914

loop_
_geom_bond_atom_site_label_1
_geom_bond_atom_site_label_2
_ccdc_geom_bond_type
C15   C36   S    
C50   H43   S    
C45   H25   S    
C25   C27   A    
C39   H11   S    
C49   C50   S    
O1    C3    A    
C52   H52   S    
O2    C4    A    
C19   Cl3   S    
C2    O7    A    
C37   H16   S    
C40   C41   S    
C44   H29   S    
C54   H46   S    
C23   C25   A    
O5    C3    A    
C33   O18   A    
C46   C47   S    
C34   O17   A    
C6    C10   S    
C16   C20   A    
C7    H1    S    
C10   C12   D    
C1    C14   S    
C22   C46   S    
C50   H42   S    
O12   C36   A    
C54   H47   S    
C29   H7    S    
C46   H37   S    
C41   H21   S    
C30   H8    S    
C6    C40   S    
O16   V4    S    
C49   H44   S    
C53   H49   S    
C37   H17   S    
C38   H15   S    
C17   C19   A    
O17   V3    S    
O20   V3    S    
C18   C26   A    
C47   H36   S    
C16   C22   A    
C43   H31   S    
C18   C20   A    
C31   H9    S    
C51   H41   S    
C40   H23   S    
C17   Cl1   S    
C24   C26   A    
C18   Cl2   S    
O6    V2    S    
C13   C27   A    
C39   H12   S    
C14   C28   A    
C26   C28   A    
C50   C51   S    
O11   C35   A    
C44   H28   S    
C29   C31   A    
C30   C32   A    
O16   C36   A    
O4    C2    A    
C43   C44   S    
O12   V3    S    
C21   C43   S    
O14   V4    S    
C54   H48   S    
C3    C12   S    
C46   H38   S    
C15   C21   A    
C13   C29   A    
C49   H45   S    
O4    V2    S    
C32   H10   S    
C38   H14   S    
C42   H18   S    
O6    C4    A    
C2    C13   S    
C47   H35   S    
C48   H33   S    
O1    V2    S    
C5    C9    S    
C8    C33   S    
O2    V1    S    
C52   C53   S    
C40   H24   S    
C42   H19   S    
C8    H2    S    
C5    C37   S    
C45   H27   S    
O18   V4    S    
C39   H13   S    
C15   C19   A    
O3    V1    S    
C23   C31   A    
C51   H39   S    
O15   V3    S    
C24   C32   A    
C10   C52   S    
C14   C30   A    
C27   H5    S    
C52   H51   S    
C38   C39   S    
O3    C1    A    
C20   Cl4   S    
C7    C34   S    
C11   H3    S    
C9    C49   S    
C12   H4    S    
C4    C11   S    
O19   V4    S    
C17   C25   A    
O7    V1    S    
C1    O8    A    
C21   C23   A    
O8    V2    S    
C22   C24   A    
C41   H22   S    
O5    V1    S    
C44   C45   S    
C5    C7    D    
C48   H34   S    
C6    C8    D    
C9    C11   D    
C53   H50   S    
C47   C48   S    
O11   V4    S    
O13   C33   A    
O15   C35   A    
C37   C38   S    
C42   H20   S    
C28   H6    S    
C45   H26   S    
C41   C42   S    
O9    V2    S    
C48   H32   S    
C53   C54   S    
O10   V1    S    
O13   V3    S    
C43   H30   S    
O14   C34   A    
C16   C35   S    
C51   H40   S    
