data_mof_unit_36354.cif
_audit_creation_date              2012-12-10T20:42:38-0500
_audit_creation_method            fapswitch 2.2
_symmetry_space_group_name_H-M    P1
_symmetry_Int_Tables_number       1
_space_group_crystal_system       triclinic
_cell_length_a                    8.915843
_cell_length_b                    10.762056
_cell_length_c                    9.858758
_cell_angle_alpha                 89.514639
_cell_angle_beta                  90.02018
_cell_angle_gamma                 89.918334
_cell_volume                      945.94048571

loop_
_atom_site_label
_atom_site_type_symbol
_atom_type_description
_atom_site_fract_x
_atom_site_fract_y
_atom_site_fract_z
_atom_type_partial_charge
C1    C     C_R   0.499250 0.260159 0.500461 0.905873
C2    C     C_R   0.409714 0.420496 0.929596 0.210563
C3    C     C_3   0.243850 0.409289 0.921720 0.266584
C4    C     C_R   0.218664 0.500360 0.499915 0.947261
C5    C     C_3   0.242719 0.408461 0.076648 -0.577613
C6    C     C_R   0.504179 0.740215 0.499077 0.922246
C7    C     C_R   0.781342 0.500876 0.499973 0.910197
C8    C     C_1   0.065394 0.501150 0.499652 -0.216563
C9    C     C_1   0.934644 0.501370 0.499741 -0.221850
C10   C     C_R   0.539679 0.063026 0.618626 0.029447
C11   C     C_R   0.513216 0.128868 0.499574 -0.132511
C12   C     C_R   0.529903 0.939371 0.371925 0.474404
C13   C     C_R   0.514322 0.067205 0.375609 -0.320282
C14   C     C_3   0.057202 0.293717 0.819161 0.094747
C15   C     C_3   0.033651 0.179277 0.731198 -0.351348
C16   C     C_3   0.873919 0.172523 0.677395 -0.931408
C17   C     C_3   0.675744 0.882485 0.191418 0.096514
C18   C     C_3   0.716176 0.006816 0.122912 -0.392570
C19   C     C_3   0.852849 0.993885 0.031106 -0.997946
C20   C     C_3   0.253673 0.881531 0.878519 0.056625
C21   C     C_3   0.303239 0.775999 0.973792 -0.335604
C22   C     C_3   0.211975 0.774885 0.104703 -0.901952
C23   C     C_R   0.523443 0.872137 0.496248 -0.198794
C24   C     C_R   0.541482 0.936395 0.617910 -0.020596
C25   C     C_3   0.469765 0.927835 0.755654 0.371842
C26   C     C_3   0.466521 0.069667 0.753962 -0.501573
C27   C     C_R   0.409549 0.420174 0.071568 0.146808
C28   C     C_R   0.607152 0.561632 0.071654 -0.125138
C29   C     C_R   0.605625 0.563719 0.927395 -0.180045
H1    H     H_    0.498297 0.117202 0.280897 0.185496
H2    H     H_    0.032184 0.377324 0.755821 0.153438
H3    H     H_    0.979130 0.290951 0.907149 0.142571
H4    H     H_    0.112440 0.182569 0.643806 0.226866
H5    H     H_    0.057919 0.094183 0.791774 0.222602
H6    H     H_    0.792828 0.172515 0.762719 0.267017
H7    H     H_    0.859953 0.085665 0.618791 0.260928
H8    H     H_    0.850074 0.252769 0.609376 0.265962
H9    H     H_    0.677570 0.811584 0.111151 0.154305
H10   H     H_    0.762436 0.854901 0.267690 0.118708
H11   H     H_    0.619624 0.040578 0.061458 0.225938
H12   H     H_    0.186985 0.491404 0.120102 0.191125
H13   H     H_    0.743291 0.076963 0.201081 0.221695
H14   H     H_    0.950395 0.958927 0.090140 0.272231
H15   H     H_    0.881803 0.086237 0.988117 0.273848
H16   H     H_    0.828780 0.929464 0.946403 0.257968
H17   H     H_    0.131076 0.872782 0.860921 0.165867
H18   H     H_    0.270875 0.973005 0.928291 0.148114
H19   H     H_    0.289176 0.686093 0.921674 0.219601
H20   H     H_    0.423151 0.786959 0.000534 0.233914
H21   H     H_    0.218415 0.866681 0.155046 0.280090
H22   H     H_    0.257832 0.703532 0.175336 0.292660
H23   H     H_    0.206923 0.318339 0.122041 0.222105
H24   H     H_    0.092895 0.752362 0.082877 0.234062
H25   H     H_    0.547501 0.885858 0.831566 0.069152
H26   H     H_    0.352447 0.110492 0.747393 0.243937
H27   H     H_    0.540531 0.111513 0.831732 0.168994
H28   H     H_    0.694085 0.609701 0.126138 0.137362
H29   H     H_    0.688244 0.617932 0.872693 0.149617
H30   H     H_    0.190840 0.492597 0.873823 0.081272
N1    N     N_R   0.499010 0.499140 0.142800 -0.097325
N2    N     N_R   0.499010 0.499180 0.857150 -0.135465
O1    O     O_R   0.500020 0.316790 0.614690 -0.598239
O2    O     O_3   0.528889 0.882289 0.246695 -0.631782
O3    O     O_3   0.325260 0.873768 0.750404 -0.609690
O4    O     O_R   0.500000 0.316760 0.385350 -0.629816
O5    O     O_R   0.285350 0.500020 0.614650 -0.616891
O6    O     O_R   0.285340 0.499980 0.385310 -0.622268
O7    O     O_R   0.500000 0.683240 0.614650 -0.601552
O8    O     O_R   0.499980 0.683210 0.385310 -0.586719
O9    O     O_R   0.714660 0.500020 0.614690 -0.629592
O10   O     O_R   0.714650 0.499980 0.385350 -0.621615
O11   O     O_3   0.206615 0.293033 0.865922 -0.635075
Zn1   Zn    Zn3+2 0.500010 0.500020 0.653130 0.955306
Zn2   Zn    Zn3+2 0.499990 0.499980 0.346870 0.945960

loop_
_geom_bond_atom_site_label_1
_geom_bond_atom_site_label_2
_ccdc_geom_bond_type
C20   O3    S    
O10   Zn2   S    
C1    O4    A    
C23   C24   A    
C19   H16   S    
O1    Zn1   S    
C2    C27   A    
C6    O8    A    
C16   H8    S    
C15   H5    S    
C21   C22   S    
C1    C11   S    
C2    N2    A    
C22   H21   S    
C14   H2    S    
C4    C8    S    
C21   H19   S    
N2    Zn1   S    
C26   H26   S    
C10   C26   S    
O9    Zn1   S    
C6    O7    A    
C3    O11   S    
C25   C26   S    
O8    Zn2   S    
C5    H23   S    
O6    Zn2   S    
C28   H28   S    
C20   C21   S    
C4    O5    A    
C12   C13   A    
C11   C13   A    
C12   C23   A    
C16   H7    S    
C26   H27   S    
C25   H25   S    
C7    O9    A    
C6    C23   S    
C29   H29   S    
C21   H20   S    
C28   C29   A    
C19   H14   S    
C2    C3    S    
C22   H24   S    
C17   H9    S    
C27   N1    A    
C28   N1    A    
C16   H6    S    
C7    O10   A    
C29   N2    A    
C20   H17   S    
C20   H18   S    
C10   C11   A    
C15   C16   S    
C19   H15   S    
C13   H1    S    
C25   O3    S    
C24   C25   S    
C1    O1    A    
C17   C18   S    
C18   C19   S    
C17   H10   S    
N1    Zn2   S    
C7    C9    S    
C12   O2    S    
C5    H12   S    
C14   C15   S    
C8    C9    T    
C18   H11   S    
C18   H13   S    
C10   C24   A    
O7    Zn1   S    
C5    C27   S    
O5    Zn1   S    
C14   O11   S    
C15   H4    S    
C17   O2    S    
O4    Zn2   S    
C14   H3    S    
C22   H22   S    
C3    C5    S    
C4    O6    A    
C3    H30   S    
