data_mof_unit_44287.cif
_audit_creation_date              2012-12-10T16:52:05-0500
_audit_creation_method            fapswitch 2.2
_symmetry_space_group_name_H-M    P1
_symmetry_Int_Tables_number       1
_space_group_crystal_system       triclinic
_cell_length_a                    7.928998
_cell_length_b                    8.587519
_cell_length_c                    14.818219
_cell_angle_alpha                 94.799442
_cell_angle_beta                  84.9616
_cell_angle_gamma                 93.460878
_cell_volume                      1000.12634408

loop_
_atom_site_label
_atom_site_type_symbol
_atom_type_description
_atom_site_fract_x
_atom_site_fract_y
_atom_site_fract_z
_atom_type_partial_charge
C1    C     C_R   0.544849 0.793984 0.497811 0.936737
C2    C     C_R   0.455141 0.205999 0.502029 0.935048
C3    C     C_R   0.603213 0.780968 0.966515 0.394805
C4    C     C_R   0.346529 0.239525 0.036572 0.327804
C5    C     C_2   0.568242 0.957442 0.496089 -0.372062
C6    C     C_2   0.431717 0.042501 0.503476 -0.375963
C7    C     C_R   0.501945 0.509421 0.672588 0.850696
C8    C     C_R   0.498248 0.492259 0.327427 0.838049
C9    C     C_R   0.415273 0.368310 0.183418 -0.210999
C10   C     C_R   0.550085 0.648028 0.819220 -0.196543
C11   C     C_R   0.496168 0.492037 0.232017 -0.045109
C12   C     C_R   0.501947 0.511658 0.768245 -0.054020
C13   C     C_R   0.569190 0.621093 0.191279 -0.186469
C14   C     C_R   0.445767 0.376222 0.807886 -0.192179
C15   C     C_R   0.555644 0.633546 0.099821 -0.015452
C16   C     C_R   0.429883 0.375079 0.901534 -0.045254
C17   C     C_R   0.478729 0.506685 0.048313 -0.060366
C18   C     C_R   0.481239 0.511070 0.954735 -0.068966
C19   C     C_R   0.409046 0.371589 0.089936 -0.040253
C20   C     C_R   0.543506 0.648495 0.913537 -0.004143
C21   C     C_R   0.617191 0.770817 0.059825 0.352253
C22   C     C_R   0.370202 0.238028 0.941843 0.399664
H1    H     H_    0.363864 0.268485 0.218765 0.167695
H2    H     H_    0.595063 0.751242 0.784941 0.179100
H3    H     H_    0.631313 0.713382 0.232620 0.170676
H4    H     H_    0.412257 0.273064 0.764530 0.162949
H5    H     H_    0.697649 0.007288 0.488611 0.213973
H6    H     H_    0.302305 0.992651 0.510886 0.212381
N1    N     N_2   0.950330 0.457950 0.475660 0.089264
N2    N     N_2   0.049670 0.542050 0.524340 0.087689
O1    O     O_R   0.389250 0.738570 0.505970 -0.601565
O2    O     O_R   0.610750 0.261430 0.494030 -0.598942
O3    O     O_R   0.678390 0.711620 0.490370 -0.589028
O4    O     O_R   0.321610 0.288380 0.509630 -0.588494
O5    O     O_R   0.355420 0.513510 0.639950 -0.603460
O6    O     O_R   0.644580 0.486490 0.360050 -0.603942
O7    O     O_R   0.644560 0.486560 0.624350 -0.581248
O8    O     O_R   0.355440 0.513440 0.375650 -0.582212
Zn1   Zn    Zn3+2 0.306940 0.517990 0.510420 1.052773
Zn2   Zn    Zn3+2 0.693060 0.482010 0.489580 1.054550
O9    O     O_3   0.708291 0.886321 0.109515 -0.656468
C23   C     C_3   0.597896 0.993142 0.157396 0.131003
H7    H     H_    0.470570 0.938700 0.177307 0.173963
H8    H     H_    0.586739 0.089944 0.114296 0.225612
C24   C     C_3   0.672318 0.064062 0.244002 -0.865406
H9    H     H_    0.786169 0.141039 0.226883 0.268669
H10   H     H_    0.577730 0.135827 0.285426 0.220836
H11   H     H_    0.706594 0.971104 0.285663 0.256243
O10   O     O_3   0.374079 0.096134 0.890141 -0.525524
C25   C     C_3   0.215337 0.056508 0.857051 0.063299
H12   H     H_    0.158495 0.158247 0.831584 0.121756
H13   H     H_    0.130893 0.006536 0.911622 0.154059
C26   C     C_3   0.235424 0.931876 0.778413 -0.748104
H14   H     H_    0.272817 0.821650 0.803128 0.262719
H15   H     H_    0.112936 0.909015 0.747781 0.230098
H16   H     H_    0.332960 0.971787 0.725620 0.249999
O11   O     O_3   0.618060 0.924883 0.930358 -0.542368
C27   C     C_3   0.788527 0.979688 0.917714 0.113578
H17   H     H_    0.868667 0.940971 0.968421 0.147473
H18   H     H_    0.841756 0.936360 0.848991 0.142129
C28   C     C_3   0.794780 0.158183 0.924301 -0.773628
H19   H     H_    0.741136 0.199380 0.864365 0.271111
H20   H     H_    0.721043 0.203547 0.986981 0.252491
H21   H     H_    0.926191 0.207869 0.927410 0.162697
O12   O     O_3   0.303195 0.099010 0.073935 -0.621385
C29   C     C_3   0.135800 0.097061 0.114675 0.057375
H22   H     H_    0.044480 0.086574 0.061870 0.155700
H23   H     H_    0.109009 0.203969 0.160231 0.162134
C30   C     C_3   0.109640 0.955114 0.170479 -0.748316
H24   H     H_    0.186127 0.972600 0.230111 0.234223
H25   H     H_    0.975538 0.937111 0.195713 0.266150
H26   H     H_    0.148283 0.848106 0.128193 0.256285
Br1   Br    Br    0.040595 0.304590 0.390226 -0.454380
Br2   Br    Br    0.958242 0.695086 0.609298 -0.453458

loop_
_geom_bond_atom_site_label_1
_geom_bond_atom_site_label_2
_ccdc_geom_bond_type
C28   H21   S    
C25   H13   S    
C15   C17   A    
N1    N2    D    
C29   H23   S    
C30   H26   S    
C4    C22   A    
O9    C23   S    
O5    Zn1   S    
C13   C15   A    
C1    O1    A    
C2    O4    A    
C27   C28   S    
C26   H15   S    
C17   C18   A    
C7    O7    A    
C1    O3    A    
C3    C20   A    
O12   C29   S    
C24   H9    S    
C14   H4    S    
C9    C11   A    
C13   H3    S    
O11   C27   S    
C2    C6    S    
C15   C21   A    
C23   H8    S    
C8    O8    A    
C8    C11   S    
C1    C5    S    
C5    C6    D    
C10   C12   A    
N1    Zn2   S    
C16   C18   A    
C17   C19   A    
O1    Zn1   S    
N2    Zn1   S    
C25   H12   S    
O7    Zn2   S    
C18   C20   A    
C30   H24   S    
C24   H10   S    
C8    O6    A    
C28   H19   S    
N2    Br2   S    
C14   C16   A    
C7    C12   S    
C3    C21   A    
C29   C30   S    
N1    Br1   S    
C23   H7    S    
C27   H18   S    
O4    Zn1   S    
O3    Zn2   S    
C3    O11   S    
C12   C14   A    
C11   C13   A    
O2    Zn2   S    
C29   H22   S    
C2    O2    A    
O10   C25   S    
C21   O9    S    
C26   H16   S    
C22   O10   S    
C30   H25   S    
C4    O12   S    
C9    H1    S    
O6    Zn2   S    
C16   C22   A    
C24   H11   S    
C10   H2    S    
C27   H17   S    
C5    H5    S    
C4    C19   A    
C7    O5    A    
C9    C19   A    
C28   H20   S    
C6    H6    S    
C26   H14   S    
C10   C20   A    
C25   C26   S    
C23   C24   S    
O8    Zn1   S    
