data_mof_unit_24330.cif
_audit_creation_date              2012-10-26T20:57:28-0400
_audit_creation_method            fapswitch 2.2
_symmetry_space_group_name_H-M    P1
_symmetry_Int_Tables_number       1
_space_group_crystal_system       triclinic
_cell_length_a                    14.690299
_cell_length_b                    14.628117
_cell_length_c                    15.850484
_cell_angle_alpha                 76.948264
_cell_angle_beta                  102.586756
_cell_angle_gamma                 115.014537
_cell_volume                      2977.84585535

loop_
_atom_site_label
_atom_site_type_symbol
_atom_type_description
_atom_site_fract_x
_atom_site_fract_y
_atom_site_fract_z
_atom_type_partial_charge
Br1   Br    Br    0.774001 0.462360 0.032558 -0.489332
Br2   Br    Br    0.226113 0.539227 0.966472 -0.477134
Br3   Br    Br    0.835433 0.939417 0.669337 -0.453708
Br4   Br    Br    0.162440 0.039968 0.289997 -0.436046
Br5   Br    Br    0.569785 0.791169 0.318130 -0.491133
Br6   Br    Br    0.448979 0.234177 0.711031 -0.491422
C1    C     C_R   0.880230 0.311949 0.513457 0.571601
C2    C     C_R   0.357784 0.925554 0.479210 0.005378
C3    C     C_R   0.673637 0.998951 0.554580 0.043230
C4    C     C_R   0.321994 0.996483 0.421656 0.031026
C5    C     C_R   0.532812 0.051873 0.481221 -0.016169
C6    C     C_R   0.463535 0.950512 0.501338 0.005718
C7    C     C_R   0.500523 0.873690 0.536408 -0.073442
C8    C     C_R   0.492585 0.126363 0.442188 -0.078106
C9    C     C_R   0.603911 0.895914 0.564930 0.297816
C10   C     C_R   0.390067 0.099521 0.408582 0.275959
C11   C     C_R   0.723218 0.678747 0.364251 -0.105292
C12   C     C_R   0.119844 0.688022 0.488423 0.534460
C13   C     C_R   0.282021 0.329560 0.645069 -0.122434
C14   C     C_R   0.800444 0.643200 0.381889 0.052927
C15   C     C_R   0.200613 0.359193 0.620605 0.044346
C16   C     C_R   0.999531 0.500082 0.659984 0.540233
C17   C     C_R   0.000382 0.499805 0.340013 0.549920
C18   C     C_R   0.714471 0.509199 0.488011 0.057881
C19   C     C_R   0.288361 0.494181 0.515994 0.016383
C20   C     C_R   0.632168 0.540612 0.472590 -0.024913
C21   C     C_R   0.375189 0.469347 0.539032 -0.038366
C22   C     C_R   0.638967 0.628965 0.409990 0.059784
C23   C     C_R   0.777725 0.028487 0.591143 0.193211
C24   C     C_R   0.369591 0.383173 0.603930 0.040151
C25   C     C_R   0.544923 0.488564 0.517597 -0.031645
C26   C     C_R   0.464981 0.524582 0.497878 -0.029477
C27   C     C_R   0.477874 0.615542 0.438685 -0.094501
C28   C     C_R   0.535356 0.402156 0.582058 -0.121252
C29   C     C_R   0.562574 0.666851 0.395391 0.187389
C30   C     C_R   0.450572 0.351183 0.625322 0.145136
C31   C     C_3   0.027207 0.425282 0.048560 -0.104564
C32   C     C_3   0.972976 0.575676 0.951181 -0.101483
C33   C     C_3   0.933140 0.409743 0.977126 -0.104401
C34   C     C_R   0.218971 0.961761 0.383657 0.172374
C35   C     C_3   0.067020 0.591218 0.022637 -0.100497
C36   C     C_1   0.998801 0.500602 0.749429 0.004594
C37   C     C_1   0.001233 0.499621 0.250499 -0.003935
C38   C     C_3   0.092257 0.516149 0.986773 0.189107
C39   C     C_3   0.907912 0.484828 0.012962 0.185322
C40   C     C_3   0.999155 0.500753 0.916729 0.019504
C41   C     C_3   0.000993 0.500187 0.083041 0.018472
C42   C     C_1   0.998683 0.500823 0.824934 0.003094
C43   C     C_1   0.001404 0.499771 0.174914 -0.003307
C44   C     C_R   0.812217 0.203374 0.522974 -0.027091
C45   C     C_R   0.844145 0.130594 0.577973 -0.156116
C46   C     C_R   0.187007 0.796609 0.475296 -0.016854
C47   C     C_3   0.589530 0.742269 0.654194 0.008199
C48   C     C_3   0.644991 0.670998 0.688702 -0.312621
C49   C     C_3   0.331571 0.213483 0.427275 0.011276
C50   C     C_3   0.295413 0.297546 0.380438 -0.323166
C51   C     C_3   0.290826 0.714737 0.646441 0.001189
C52   C     C_3   0.348551 0.711785 0.738455 -0.343826
C53   C     C_3   0.704887 0.215207 0.331410 -0.016892
C54   C     C_3   0.687631 0.291389 0.253534 -0.317263
C55   C     C_R   0.154452 0.861033 0.407769 -0.137596
C56   C     C_R   0.713017 0.173551 0.478975 0.234011
C57   C     C_R   0.287689 0.834083 0.518987 0.232544
C58   C     C_R   0.639047 0.075738 0.504762 -0.030470
Cu1   Cu    Cu3+1 0.081740 0.475690 0.522610 0.927085
Cu2   Cu    Cu3+1 0.918260 0.524310 0.477390 0.984206
H1    H     H_    0.877692 0.335659 0.957320 0.156278
H2    H     H_    0.592868 0.371422 0.601024 0.138312
H3    H     H_    0.050174 0.364150 0.089500 0.156165
H4    H     H_    0.950005 0.636800 0.910226 0.156234
H5    H     H_    0.078052 0.832820 0.373036 0.163592
H6    H     H_    0.921402 0.153237 0.611096 0.165849
H7    H     H_    0.448666 0.795115 0.536655 0.107048
H8    H     H_    0.538035 0.206936 0.437963 0.192753
H9    H     H_    0.510680 0.694505 0.628655 0.108387
H10   H     H_    0.589574 0.777282 0.709719 0.150164
H11   H     H_    0.722319 0.712809 0.721310 0.206626
H12   H     H_    0.122454 0.665301 0.042453 0.158182
H13   H     H_    0.602615 0.607309 0.736852 0.125351
H14   H     H_    0.651104 0.638884 0.634082 0.174412
H15   H     H_    0.398003 0.245903 0.476864 0.136929
H16   H     H_    0.268900 0.151759 0.460999 0.167045
H17   H     H_    0.265871 0.321022 0.426943 0.111340
H18   H     H_    0.359246 0.364631 0.353341 0.169650
H19   H     H_    0.233499 0.269637 0.326368 0.209519
H20   H     H_    0.317300 0.677890 0.608204 0.134025
H21   H     H_    0.209277 0.671892 0.653112 0.180127
H22   H     H_    0.319025 0.741077 0.780723 0.203988
H23   H     H_    0.283996 0.554821 0.464460 0.129374
H24   H     H_    0.339110 0.632060 0.766633 0.144519
H25   H     H_    0.430348 0.759850 0.737025 0.151190
H26   H     H_    0.649285 0.137253 0.319976 0.166149
H27   H     H_    0.783438 0.219783 0.335658 0.138336
H28   H     H_    0.743255 0.369810 0.262506 0.191369
H29   H     H_    0.697306 0.272685 0.192815 0.155618
H30   H     H_    0.609598 0.288345 0.246959 0.191593
H31   H     H_    0.717693 0.445581 0.536285 0.130810
H32   H     H_    0.133206 0.317360 0.652150 0.143576
H33   H     H_    0.866241 0.683278 0.348054 0.138041
H34   H     H_    0.731028 0.745652 0.315593 0.170953
H35   H     H_    0.274929 0.264272 0.695448 0.175046
H36   H     H_    0.423954 0.650651 0.425745 0.125656
N1    N     N_R   0.795440 0.560790 0.443380 -0.233439
N2    N     N_R   0.204560 0.439210 0.556620 -0.239672
O1    O     O_R   0.977900 0.338120 0.529810 -0.515304
O2    O     O_3   0.358095 0.176297 0.365431 -0.509954
O3    O     O_3   0.308927 0.816971 0.610100 -0.551401
O4    O     O_3   0.691524 0.239552 0.407853 -0.567998
O5    O     O_R   0.022100 0.661880 0.470190 -0.500039
O6    O     O_R   0.839850 0.379180 0.491620 -0.452635
O7    O     O_R   0.160150 0.620820 0.508380 -0.532683
O8    O     O_R   0.069010 0.479460 0.640020 -0.506924
O9    O     O_R   0.930990 0.520540 0.359980 -0.491952
O10   O     O_R   0.930960 0.520530 0.601820 -0.495858
O11   O     O_R   0.069040 0.479470 0.398180 -0.492362
O12   O     O_3   0.639196 0.817834 0.587353 -0.503058

loop_
_geom_bond_atom_site_label_1
_geom_bond_atom_site_label_2
_ccdc_geom_bond_type
C49   C50   S    
C32   H4    S    
Cu2   O9    S    
C31   H3    S    
C3    C58   A    
C12   O5    A    
C51   C52   S    
C12   C46   S    
C41   C43   S    
C14   N1    A    
C47   C48   S    
C8    H8    S    
C13   C15   A    
C18   C20   A    
C46   C55   A    
C5    C8    A    
C56   O4    S    
C11   C14   A    
C17   C37   S    
C51   H20   S    
C4    C34   A    
Br3   C23   S    
Cu1   O7    S    
C32   C39   S    
C56   C58   A    
C15   N2    A    
Br4   C34   S    
C22   C29   A    
Br2   C38   S    
C1    O1    A    
C49   H15   S    
C52   H25   S    
C47   O12   S    
C3    C23   A    
C33   C39   S    
C48   H11   S    
C55   H5    S    
C53   C54   S    
C21   C24   A    
Cu1   O11   S    
C47   H9    S    
Cu1   O1    S    
C38   C40   S    
C50   H18   S    
C48   H14   S    
C39   C41   S    
C40   C42   S    
C49   O2    S    
C27   H36   S    
C12   O7    A    
C32   C35   S    
C5    C58   A    
C28   H2    S    
C35   H12   S    
C37   C43   T    
C19   H23   S    
C34   C55   A    
C51   H21   S    
Cu1   O8    S    
C17   O9    A    
C25   C26   A    
C16   O10   A    
C2    C6    A    
C44   C45   A    
C35   C41   S    
C25   C28   A    
C36   C42   T    
Cu2   O6    S    
C49   H16   S    
C52   H24   S    
C33   C40   S    
C54   H30   S    
C51   O3    S    
C7    H7    S    
C16   O8    A    
C7    C9    A    
C44   C56   A    
C35   C38   S    
C8    C10   A    
C47   H10   S    
C31   C41   S    
C45   H6    S    
C57   O3    S    
C50   H17   S    
C48   H13   S    
C23   C45   A    
Cu2   O10   S    
C21   C26   A    
C11   C22   A    
C33   H1    S    
Cu2   N1    S    
C1    C44   S    
C46   C57   A    
C52   H22   S    
C5    C6    A    
C19   N2    A    
C10   O2    S    
C19   C21   A    
C20   C22   A    
C53   O4    S    
C1    O6    A    
C24   C30   A    
C18   N1    A    
C26   C27   A    
C31   C38   S    
C3    C9    A    
C31   C33   S    
C4    C10   A    
C15   H32   S    
C13   H35   S    
Br1   C39   S    
C50   H19   S    
C16   C36   S    
C14   H33   S    
Br5   C29   S    
C27   C29   A    
Br6   C30   S    
C28   C30   A    
C18   H31   S    
Cu2   O5    S    
C11   H34   S    
C32   C40   S    
C2    C57   A    
C17   O11   A    
C54   H29   S    
C20   C25   A    
C6    C7    A    
C2    C4    A    
Cu1   Cu2   S    
C9    O12   S    
C53   H26   S    
C53   H27   S    
Cu1   N2    S    
C13   C24   A    
C54   H28   S    
