data_mof_unit_45631.cif
_audit_creation_date              2012-12-11T16:56:18-0500
_audit_creation_method            fapswitch 2.2
_symmetry_space_group_name_H-M    P1
_symmetry_Int_Tables_number       1
_space_group_crystal_system       triclinic
_cell_length_a                    6.97276
_cell_length_b                    14.53419
_cell_length_c                    16.189973
_cell_angle_alpha                 90.446193
_cell_angle_beta                  90.002474
_cell_angle_gamma                 90.067482
_cell_volume                      1640.69631978

loop_
_atom_site_label
_atom_site_type_symbol
_atom_type_description
_atom_site_fract_x
_atom_site_fract_y
_atom_site_fract_z
_atom_type_partial_charge
O1    O     O_R   0.505830 0.583360 0.413880 -0.536494
O2    O     O_R   0.175830 0.595460 0.585520 -0.538844
O3    O     O_R   0.005520 0.416640 0.586120 -0.546691
C1    C     C_R   0.344608 0.617562 0.614286 0.693765
O4    O     O_R   0.176120 0.594390 0.414490 -0.536239
O5    O     O_R   0.005810 0.415570 0.413870 -0.545336
C2    C     C_R   0.345010 0.616093 0.385843 0.726835
O6    O     O_R   0.505540 0.584430 0.586130 -0.544147
O7    O     O_3   0.339200 0.441330 0.500000 -0.375378
V1    V     V_3+5 0.064350 0.510880 0.500000 1.437454
O8    O     O_R   0.676100 0.404540 0.414480 -0.528220
C3    C     C_R   0.844974 0.382424 0.385905 0.735926
O9    O     O_R   0.675810 0.405610 0.585510 -0.545297
C4    C     C_R   0.844963 0.383736 0.613603 0.721296
V2    V     V_3+5 0.564340 0.489120 0.500000 1.438813
O10   O     O_3   0.839360 0.558670 0.500000 -0.370627
C5    C     C_2   0.721440 0.208466 0.785792 -0.127947
C6    C     C_2   0.885754 0.181597 0.822477 -0.305904
H1    H     H_    0.586261 0.179545 0.806577 0.137343
H2    H     H_    0.022617 0.209768 0.803749 0.125573
C7    C     C_2   0.708932 0.276989 0.717838 -0.136056
C8    C     C_2   0.861463 0.315449 0.680420 -0.305300
H3    H     H_    0.565624 0.295726 0.697822 0.134208
H4    H     H_    0.005889 0.297347 0.698574 0.130014
C9    C     C_R   0.719274 0.186560 0.237878 0.042664
C10   C     C_R   0.881952 0.180614 0.187412 -0.072582
C11   C     C_R   0.035715 0.240125 0.205401 -0.194982
H5    H     H_    0.160297 0.240478 0.165932 0.130378
C12   C     C_R   0.023780 0.304505 0.270619 -0.162562
H6    H     H_    0.139295 0.352489 0.280631 0.150430
C13   C     C_R   0.857766 0.312257 0.319163 -0.043350
C14   C     C_R   0.706104 0.252405 0.301217 0.058069
C15   C     C_3   0.507448 0.277762 0.276549 0.192554
C16   C     C_3   0.519066 0.203199 0.210362 -0.455220
H7    H     H_    0.401081 0.265275 0.326292 0.090353
H8    H     H_    0.511364 0.228944 0.145895 0.181223
H9    H     H_    0.425259 0.143094 0.223247 0.143582
C17   C     C_R   0.506526 0.748962 0.690061 -0.000246
C18   C     C_R   0.352491 0.687492 0.681675 -0.092758
C19   C     C_R   0.202295 0.695581 0.739593 -0.152217
H10   H     H_    0.080162 0.649925 0.735735 0.106669
C20   C     C_R   0.214638 0.757907 0.806723 -0.105437
H11   H     H_    0.100692 0.759064 0.852016 0.123942
C21   C     C_R   0.377850 0.813902 0.818250 -0.126368
C22   C     C_R   0.518155 0.810851 0.756423 0.015710
C23   C     C_3   0.730610 0.798184 0.763329 0.169535
C24   C     C_3   0.717019 0.730622 0.690319 -0.277010
H12   H     H_    0.772496 0.765266 0.822313 0.102340
H13   H     H_    0.750822 0.658299 0.706569 0.094086
C25   C     C_R   0.506654 0.680749 0.259498 0.093275
C26   C     C_R   0.353323 0.681185 0.315642 -0.118255
C27   C     C_R   0.202722 0.743448 0.300618 -0.160552
H14   H     H_    0.080936 0.746176 0.341819 0.138109
C28   C     C_R   0.213537 0.807173 0.235532 -0.177970
H15   H     H_    0.098962 0.856549 0.228352 0.127111
C29   C     C_R   0.376277 0.811334 0.183942 -0.101163
C30   C     C_R   0.518335 0.744827 0.195873 0.088119
C31   C     C_3   0.729094 0.756808 0.206856 -0.448676
C32   C     C_3   0.716937 0.686213 0.275753 -0.234340
H16   H     H_    0.765418 0.826994 0.229701 0.164805
H17   H     H_    0.810663 0.734121 0.151254 0.176422
H18   H     H_    0.751284 0.713713 0.338268 0.136794
O11   O     O_R   0.229930 0.912420 0.917160 -0.528100
O12   O     O_R   0.559420 0.902500 0.088780 -0.541374
O13   O     O_R   0.729660 0.081330 0.089380 -0.538102
C33   C     C_R   0.390310 0.880969 0.117574 0.687662
O14   O     O_R   0.559650 0.901420 0.917750 -0.534406
O15   O     O_R   0.729880 0.080250 0.917130 -0.535416
C34   C     C_R   0.390614 0.879330 0.889011 0.709990
O16   O     O_R   0.229700 0.913500 0.089410 -0.543123
O17   O     O_3   0.396250 0.055540 0.003280 -0.376103
V3    V     V_3+5 0.671130 0.986010 0.003260 1.429651
O18   O     O_R   0.059600 0.091310 0.917720 -0.543208
C35   C     C_R   0.890968 0.113089 0.889522 0.774018
O19   O     O_R   0.059370 0.092380 0.088750 -0.548736
C36   C     C_R   0.890644 0.114594 0.117247 0.684547
V4    V     V_3+5 0.171120 0.007820 0.003230 1.416967
O20   O     O_3   0.896130 0.938240 0.003240 -0.368198
O21   O     O_3   0.836161 0.879088 0.747689 -0.626036
H19   H     H_    0.767558 0.915910 0.705548 0.299065
C37   C     C_1   0.808881 0.760912 0.613234 0.421338
N1    N     N_1   0.881222 0.784526 0.552642 -0.377564
C38   C     C_1   0.814825 0.599463 0.255163 0.386486
N2    N     N_1   0.892448 0.531484 0.238573 -0.357820
O22   O     O_3   0.503537 0.367355 0.244248 -0.622457
H20   H     H_    0.400507 0.369252 0.202133 0.289688

loop_
_geom_bond_atom_site_label_1
_geom_bond_atom_site_label_2
_ccdc_geom_bond_type
C11   C12   A    
C16   H9    S    
O18   C35   A    
C1    O6    A    
C37   N1    T    
C24   H13   S    
C33   O16   A    
V4    O20   S    
C27   H14   S    
C10   C11   A    
O13   C36   A    
C25   C32   S    
C32   C38   S    
O5    C3    A    
C17   C18   A    
C31   H16   S    
V2    O10   S    
C29   C30   A    
O14   V3    S    
C15   O22   S    
C17   C22   A    
V3    O20   S    
C15   H7    S    
C28   H15   S    
O8    V2    S    
C38   N2    T    
C10   C36   S    
O1    V2    S    
O7    V1    S    
C16   H8    S    
C9    C16   S    
C31   H17   S    
C19   C20   A    
C6    C35   S    
O9    C4    A    
O16   V4    S    
C20   C21   A    
C9    C10   A    
C27   C28   A    
C15   C16   S    
C23   H12   S    
C28   C29   A    
C26   C27   A    
O11   C34   A    
C18   C19   A    
O4    C2    A    
C24   C37   S    
C25   C26   A    
C31   C32   S    
O22   H20   S    
C5    C7    S    
O14   C34   A    
O12   C33   A    
O2    C1    A    
O19   C36   A    
C12   H6    S    
C13   C14   A    
C1    C18   S    
O15   V3    S    
C5    C6    D    
C21   C34   S    
O19   V4    S    
C17   C24   S    
O3    C4    A    
C19   H10   S    
O6    V2    S    
O9    V2    S    
C3    C13   S    
C8    H4    S    
C20   H11   S    
O2    V1    S    
O17   V4    S    
C21   C22   A    
O11   V4    S    
C23   C24   S    
C32   H18   S    
O1    C2    A    
C25   C30   A    
O5    V1    S    
O8    C3    A    
O13   V3    S    
C14   C15   S    
C4    C8    S    
C7    H3    S    
O7    V2    S    
C2    C26   S    
O17   V3    S    
C12   C13   A    
O3    V1    S    
V1    O10   S    
C30   C31   S    
C23   O21   S    
C9    C14   A    
C29   C33   S    
C5    H1    S    
C6    H2    S    
O12   V3    S    
O21   H19   S    
C22   C23   S    
O4    V1    S    
C11   H5    S    
O18   V4    S    
C7    C8    D    
O15   C35   A    
