data_mof_unit_67379.cif
_audit_creation_date              2013-03-05T16:10:58-0500
_audit_creation_method            fapswitch 2.2
_symmetry_space_group_name_H-M    P1
_symmetry_Int_Tables_number       1
_space_group_crystal_system       triclinic
_cell_length_a                    17.613885
_cell_length_b                    28.269562
_cell_length_c                    8.635259
_cell_angle_alpha                 90.232925
_cell_angle_beta                  103.799766
_cell_angle_gamma                 89.863432
_cell_volume                      4175.66140439

loop_
_atom_site_label
_atom_site_type_symbol
_atom_site_description
_atom_site_fract_x
_atom_site_fract_y
_atom_site_fract_z
_atom_type_partial_charge
P1    P     P_3+3 0.171820 0.553000 0.158080 0.624948
P2    P     P_3+3 0.171820 0.447000 0.658080 0.634164
P3    P     P_3+3 0.671820 0.053000 0.158080 0.645090
P4    P     P_3+3 0.671820 0.947000 0.658080 0.641466
O1    O     O_2   0.163830 0.569270 0.980510 -0.274260
O2    O     O_2   0.163830 0.430730 0.480510 -0.365045
O3    O     O_2   0.663830 0.069270 0.980510 -0.289546
O4    O     O_2   0.663830 0.930730 0.480510 -0.292883
O5    O     O_3   0.095420 0.524330 0.188510 -0.314495
O6    O     O_3   0.095420 0.475670 0.688510 -0.236498
O7    O     O_3   0.595420 0.024330 0.188510 -0.278754
O8    O     O_3   0.595420 0.975670 0.688510 -0.279439
O9    O     O_3   0.028940 0.612400 0.656050 -0.287447
O10   O     O_3   0.028940 0.387600 0.156050 -0.317092
O11   O     O_3   0.528940 0.112400 0.656050 -0.271172
O12   O     O_3   0.528940 0.887600 0.156050 -0.279544
O13   O     O_2   0.152138 0.644555 0.841201 -0.232808
O14   O     O_2   0.154022 0.354274 0.334952 -0.226939
O15   O     O_2   0.646641 0.146341 0.848680 -0.241909
O16   O     O_2   0.649772 0.852582 0.331309 -0.225676
O17   O     O_3   0.260553 0.522050 0.196368 -0.545426
O18   O     O_3   0.248165 0.488448 0.708353 -0.506788
O19   O     O_3   0.745930 0.010500 0.174229 -0.530322
O20   O     O_3   0.749193 0.987496 0.681571 -0.520120
O21   O     O_3   0.056213 0.711091 0.715747 -0.527501
O22   O     O_3   0.051505 0.289208 0.212129 -0.489900
O23   O     O_3   0.548358 0.210473 0.731544 -0.497910
O24   O     O_3   0.543206 0.789260 0.212265 -0.486443
C1    C     C_3   0.980386 0.779834 0.584020 0.484829
C2    C     C_3   0.970216 0.223476 0.065260 0.510959
C3    C     C_3   0.475480 0.284884 0.636227 0.490695
C4    C     C_3   0.469101 0.719638 0.064210 0.508541
P5    P     P_3+3 0.829210 0.554130 0.532500 0.541959
P6    P     P_3+3 0.829210 0.445870 0.032500 0.545695
P7    P     P_3+3 0.329210 0.054130 0.532500 0.501154
P8    P     P_3+3 0.329210 0.945870 0.032500 0.553885
P9    P     P_3+3 0.903042 0.658319 0.027480 0.671370
P10   P     P_3+3 0.912579 0.338148 0.553815 0.645080
P11   P     P_3+3 0.404081 0.158400 0.017502 0.679969
P12   P     P_3+3 0.405298 0.841522 0.525631 0.594597
O25   O     O_2   0.837400 0.570350 0.710350 -0.292027
O26   O     O_2   0.837400 0.429650 0.210350 -0.291746
O27   O     O_2   0.337400 0.070350 0.710350 -0.312878
O28   O     O_2   0.337400 0.929650 0.210350 -0.329746
O29   O     O_3   0.972820 0.612580 0.035550 -0.260407
O30   O     O_3   0.972820 0.387420 0.535550 -0.220922
O31   O     O_3   0.472820 0.112580 0.035550 -0.262240
O32   O     O_3   0.472820 0.887420 0.535550 -0.320165
O33   O     O_2   0.836331 0.646438 0.880239 -0.244488
O34   O     O_2   0.843682 0.346002 0.406713 -0.252216
O35   O     O_2   0.341578 0.148802 0.861648 -0.236987
O36   O     O_2   0.339669 0.853226 0.376784 -0.269821
O37   O     O_3   0.743479 0.520485 0.483685 -0.630098
O38   O     O_3   0.743388 0.480025 0.988978 -0.630307
O39   O     O_3   0.254834 0.011147 0.487718 -0.627831
O40   O     O_3   0.242830 0.979385 0.988526 -0.597582
O41   O     O_3   0.940728 0.712331 0.973609 -0.495119
O42   O     O_3   0.950929 0.283708 0.500730 -0.502204
O43   O     O_3   0.451322 0.211496 0.983396 -0.515709
O44   O     O_3   0.445465 0.787329 0.475580 -0.501015
C5    C     C_3   0.999486 0.731212 0.099578 0.506959
C6    C     C_3   0.019141 0.267165 0.612075 0.522184
C7    C     C_3   0.499079 0.228126 0.128823 0.467894
C8    C     C_3   0.510608 0.771296 0.595393 0.541285
C9    C     C_3   0.033405 0.778485 0.052414 0.239198
C10   C     C_3   0.019315 0.210925 0.611585 0.278533
C11   C     C_3   0.540793 0.276478 0.111626 0.240430
C12   C     C_3   0.513336 0.715378 0.601823 0.281587
C13   C     C_3   0.743654 0.515951 0.100843 0.683499
C14   C     C_3   0.741811 0.485228 0.595480 0.686399
C15   C     C_3   0.243180 0.015939 0.098182 0.657928
C16   C     C_3   0.216610 0.004242 0.611661 0.669221
C17   C     C_3   0.660867 0.520733 0.126411 -0.697287
C18   C     C_3   0.657399 0.480391 0.610187 -0.735851
C19   C     C_3   0.161068 0.019925 0.127843 -0.660471
C20   C     C_3   0.155697 0.043227 0.609491 -0.711179
H1    H     H_    0.617612 0.525337 0.010558 0.278029
H2    H     H_    0.617386 0.474420 0.491197 0.292282
H3    H     H_    0.116684 0.024756 0.013660 0.282707
H4    H     H_    0.114987 0.045199 0.489927 0.258524
Ba1   Ba    Ba6+2 0.000400 0.534870 0.845190 1.895474
Ba2   Ba    Ba6+2 0.000400 0.465130 0.345190 1.884908
Ba3   Ba    Ba6+2 0.500400 0.034870 0.845190 1.887436
Ba4   Ba    Ba6+2 0.500400 0.965130 0.345190 1.886436
C21   C     C_3   0.252731 0.475072 0.148533 0.046980
C22   C     C_3   0.292213 0.491169 0.592987 0.114003
C23   C     C_3   0.793593 0.009503 0.330240 0.143608
C24   C     C_3   0.795165 0.986247 0.839526 0.146650
C25   C     C_3   0.334458 0.452492 0.196127 0.303080
C26   C     C_3   0.368823 0.517880 0.664892 0.290336
C27   C     C_3   0.878566 0.997099 0.326777 0.287750
C28   C     C_3   0.882111 0.995079 0.844805 0.292249
O45   O     O_3   0.904940 0.476110 0.001150 -0.326762
O46   O     O_3   0.904940 0.523890 0.501150 -0.330105
O47   O     O_3   0.404940 0.976110 0.001150 -0.336270
O48   O     O_3   0.404940 0.023890 0.501150 -0.346703
P13   P     P_3+3 0.097355 0.342437 0.174917 0.630120
P14   P     P_3+3 0.099270 0.656831 0.677919 0.668387
P15   P     P_3+3 0.593561 0.840561 0.170824 0.665236
P16   P     P_3+3 0.596137 0.158789 0.682723 0.686196
C29   C     C_3   0.992443 0.724047 0.588074 0.414268
C30   C     C_3   0.985435 0.278975 0.085675 0.499251
C31   C     C_3   0.492418 0.230390 0.600960 0.464099
C32   C     C_3   0.481958 0.775894 0.079144 0.523552
C33   C     C_2   0.875916 0.370220 0.836339 -0.327312
C34   C     C_2   0.874865 0.621883 0.307600 -0.337772
C35   C     C_2   0.370349 0.882245 0.792645 -0.437257
C36   C     C_2   0.371946 0.119613 0.294091 -0.256099
C37   C     C_R   0.158475 0.610149 0.439525 0.099976
C38   C     C_R   0.139510 0.384158 0.908755 -0.036078
C39   C     C_R   0.659069 0.110115 0.445894 0.134199
C40   C     C_R   0.645567 0.885564 0.918064 0.056508
C41   C     C_2   0.737133 0.377103 0.837186 -0.268954
C42   C     C_2   0.746766 0.631675 0.371953 -0.236765
C43   C     C_2   0.249156 0.866731 0.877777 -0.153389
C44   C     C_2   0.242510 0.129585 0.352494 -0.301399
C45   C     C_2   0.813959 0.391041 0.907295 0.253515
C46   C     C_2   0.819200 0.608794 0.408006 0.198757
C47   C     C_2   0.318253 0.892567 0.902706 0.243583
C48   C     C_2   0.315275 0.106657 0.393130 0.181879
C49   C     C_2   0.857353 0.338436 0.714835 0.131791
C50   C     C_2   0.856616 0.657912 0.199666 0.109827
C51   C     C_2   0.355504 0.844380 0.691668 0.103531
C52   C     C_2   0.354752 0.155736 0.185551 0.117780
C53   C     C_3   0.782422 0.315276 0.696325 0.104994
C54   C     C_3   0.790678 0.688024 0.206561 0.042247
C55   C     C_3   0.292472 0.812808 0.703613 0.022971
C56   C     C_3   0.289160 0.185724 0.189975 -0.000968
C57   C     C_3   0.721193 0.349894 0.692675 0.371471
C58   C     C_3   0.725672 0.659993 0.231761 0.436852
C59   C     C_3   0.226942 0.838530 0.737293 0.450039
C60   C     C_3   0.222464 0.158658 0.212595 0.526487
C61   C     C_2   0.759208 0.273868 0.580315 -0.143616
C62   C     C_2   0.764665 0.726810 0.081081 -0.161096
C63   C     C_2   0.266645 0.773423 0.579955 -0.149731
C64   C     C_2   0.270105 0.228256 0.077166 -0.220707
C65   C     C_2   0.241045 0.730945 0.622137 0.411908
C66   C     C_2   0.243078 0.270042 0.123144 0.447460
C67   C     C_2   0.742730 0.229662 0.627619 0.410029
C68   C     C_2   0.741633 0.770920 0.118127 0.473019
C69   C     C_R   0.250946 0.685060 0.366684 0.326351
C70   C     C_R   0.257820 0.318615 0.879135 0.373682
C71   C     C_R   0.759252 0.181786 0.383902 0.359696
C72   C     C_R   0.752205 0.815570 0.865890 0.433089
C73   C     C_R   0.215862 0.691101 0.505062 -0.278229
C74   C     C_R   0.217434 0.310547 0.007954 -0.234439
C75   C     C_R   0.717422 0.190389 0.510894 -0.292274
C76   C     C_R   0.711061 0.807524 0.993590 -0.242082
C77   C     C_R   0.234214 0.642573 0.262273 -0.058666
C78   C     C_R   0.240869 0.360536 0.774058 -0.093859
C79   C     C_R   0.741833 0.139841 0.277848 -0.119546
C80   C     C_R   0.737539 0.858321 0.764832 -0.145092
C81   C     C_R   0.188034 0.607548 0.290460 0.099039
C82   C     C_R   0.186144 0.392189 0.787454 0.099185
C83   C     C_R   0.692560 0.106047 0.300888 0.005622
C84   C     C_R   0.686830 0.891654 0.786424 0.023327
C85   C     C_R   0.164031 0.651907 0.533654 0.186122
C86   C     C_R   0.154334 0.345587 0.017794 0.017596
C87   C     C_R   0.663545 0.152401 0.539022 0.169774
C88   C     C_R   0.651778 0.843901 0.012087 0.038216
N1    N     N_R   0.921401 0.698548 0.598239 0.233706
O49   O     O_R   0.924607 0.663909 0.696403 -0.270756
O50   O     O_R   0.853054 0.712059 0.518317 -0.338874
N2    N     N_R   0.916414 0.303917 0.109981 0.224854
O51   O     O_R   0.923489 0.339077 0.208191 -0.266050
O52   O     O_R   0.846811 0.291813 0.032419 -0.333123
N3    N     N_R   0.420686 0.202427 0.565992 0.221386
O53   O     O_R   0.414510 0.165258 0.648896 -0.284975
O54   O     O_R   0.357603 0.219464 0.474766 -0.363214
N4    N     N_R   0.409493 0.800484 0.085960 0.222539
O55   O     O_R   0.412161 0.840017 0.162559 -0.298036
O56   O     O_R   0.341427 0.782514 0.022391 -0.340348
H5    H     H_    0.645489 0.488306 0.184333 0.259887
H6    H     H_    0.639468 0.513423 0.661939 0.271172
H7    H     H_    0.146894 0.987080 0.185124 0.267908
H8    H     H_    0.184353 0.078060 0.638509 0.253052
H9    H     H_    0.657113 0.551621 0.203987 0.220807
H10   H     H_    0.651266 0.450666 0.688892 0.205777
H11   H     H_    0.157726 0.050248 0.207802 0.201378
H12   H     H_    0.121571 0.035929 0.699528 0.268921
H13   H     H_    0.229050 0.472451 0.017712 0.136005
H14   H     H_    0.307966 0.455385 0.557487 0.109457
H15   H     H_    0.770843 0.982318 0.399111 0.174950
H16   H     H_    0.774381 0.014458 0.908380 0.164166
H17   H     H_    0.214421 0.457228 0.215123 0.132215
H18   H     H_    0.257873 0.510406 0.487782 0.099791
H19   H     H_    0.795797 0.043596 0.394420 0.069209
H20   H     H_    0.792466 0.952151 0.901032 0.058641
N5    N     N_R   0.378366 0.459387 0.073947 0.274627
O57   O     O_R   0.444596 0.481941 0.109319 -0.280606
O58   O     O_R   0.356806 0.438308 0.936443 -0.394555
N6    N     N_R   0.408427 0.531682 0.541261 0.221806
O59   O     O_R   0.476591 0.513953 0.541061 -0.355311
O60   O     O_R   0.378482 0.563749 0.436658 -0.300064
N7    N     N_R   0.913026 0.032930 0.242111 0.235094
O61   O     O_R   0.870558 0.065963 0.159221 -0.336338
O62   O     O_R   0.988007 0.032708 0.253514 -0.324859
N8    N     N_R   0.912639 0.963583 0.738963 0.243701
O63   O     O_R   0.867563 0.934497 0.641698 -0.347740
O64   O     O_R   0.987241 0.963424 0.746394 -0.276238
N9    N     N_R   0.327850 0.402601 0.230247 0.213421
O65   O     O_R   0.359576 0.370094 0.159120 -0.282412
O66   O     O_R   0.299430 0.391367 0.350527 -0.371451
N10   N     N_R   0.354488 0.559715 0.754291 0.291103
O67   O     O_R   0.312136 0.594481 0.682342 -0.341028
O68   O     O_R   0.384319 0.562497 0.907067 -0.226146
N11   N     N_R   0.885337 0.950160 0.257905 0.247532
O69   O     O_R   0.824635 0.923034 0.208759 -0.337536
O70   O     O_R   0.954183 0.933906 0.255180 -0.230942
N12   N     N_R   0.895961 0.044370 0.808880 0.260512
O71   O     O_R   0.856027 0.064183 0.679199 -0.379626
O72   O     O_R   0.953220 0.067551 0.900561 -0.217029
H21   H     H_    0.367428 0.469301 0.308424 0.125534
H22   H     H_    0.407755 0.493355 0.748481 0.139749
H23   H     H_    0.913119 0.996893 0.452193 0.113462
H24   H     H_    0.915437 0.987447 0.968451 0.093474
H25   H     H_    0.006445 0.714116 0.473629 -0.006576
H26   H     H_    0.997086 0.292053 0.972791 -0.081935
H27   H     H_    0.517228 0.229843 0.494807 0.029899
H28   H     H_    0.498182 0.787415 0.968757 -0.074864
N13   N     N_R   0.947507 0.795328 0.421193 0.230752
O73   O     O_R   0.955694 0.839047 0.381279 -0.164200
O74   O     O_R   0.895922 0.769357 0.328092 -0.440958
N14   N     N_R   0.933311 0.211992 0.899284 0.197295
O75   O     O_R   0.925691 0.168002 0.853281 -0.228670
O76   O     O_R   0.903017 0.244592 0.798649 -0.547347
N15   N     N_R   0.444481 0.311387 0.488797 0.271288
O77   O     O_R   0.442346 0.357374 0.493222 -0.216647
O78   O     O_R   0.416676 0.290359 0.353799 -0.393967
N16   N     N_R   0.434547 0.707241 0.897599 0.206226
O79   O     O_R   0.428286 0.663145 0.852252 -0.226798
O80   O     O_R   0.402125 0.739350 0.796823 -0.536136
N17   N     N_R   0.928859 0.798393 0.682406 0.233277
O81   O     O_R   0.914479 0.843533 0.679473 -0.238404
O82   O     O_R   0.886998 0.771354 0.750034 -0.340674
N18   N     N_R   0.919377 0.204319 0.163318 0.249779
O83   O     O_R   0.894266 0.229479 0.266780 -0.358224
O84   O     O_R   0.894783 0.160986 0.139853 -0.231375
N19   N     N_R   0.419865 0.291412 0.738705 0.207248
O85   O     O_R   0.410958 0.333580 0.792932 -0.345782
O86   O     O_R   0.367423 0.260000 0.747754 -0.326328
N20   N     N_R   0.416794 0.700805 0.159671 0.251348
O87   O     O_R   0.391774 0.726229 0.262615 -0.368344
O88   O     O_R   0.394973 0.656750 0.141971 -0.238201
N21   N     N_R   0.977058 0.817695 0.033887 0.277457
O89   O     O_R   0.997081 0.859513 0.995327 -0.215209
O90   O     O_R   0.907335 0.811807 0.055950 -0.338882
N22   N     N_R   0.072631 0.188895 0.749025 0.250611
O91   O     O_R   0.145058 0.202151 0.790697 -0.329957
O92   O     O_R   0.057645 0.145791 0.784713 -0.234216
N23   N     N_R   0.547399 0.306524 0.251614 0.247278
O93   O     O_R   0.593293 0.293765 0.385972 -0.412908
O94   O     O_R   0.524830 0.350437 0.233344 -0.227073
N24   N     N_R   0.565433 0.697805 0.748509 0.248191
O95   O     O_R   0.609715 0.726488 0.847712 -0.439864
O96   O     O_R   0.573391 0.652467 0.772911 -0.231341
H29   H     H_    0.688932 0.392049 0.879092 0.216374
H30   H     H_    0.701808 0.621580 0.432120 0.209547
H31   H     H_    0.207128 0.873563 0.948887 0.210045
H32   H     H_    0.197062 0.120158 0.411664 0.190151
H33   H     H_    0.258290 0.640625 0.158663 0.227086
H34   H     H_    0.273746 0.365560 0.684486 0.217488
H35   H     H_    0.767189 0.137432 0.176252 0.236903
H36   H     H_    0.767976 0.862164 0.670841 0.235491
H37   H     H_    0.933838 0.381414 0.882024 0.183594
H38   H     H_    0.922642 0.598188 0.304222 0.201429
H39   H     H_    0.413411 0.908069 0.780444 0.201133
H40   H     H_    0.420665 0.096184 0.294532 0.195031
N25   N     N_R   0.122823 0.569905 0.488913 0.211460
O97   O     O_R   0.149205 0.556264 0.634971 -0.317797
O98   O     O_R   0.050615 0.560813 0.418875 -0.369339
N26   N     N_R   0.080575 0.417827 0.918027 0.220436
O99   O     O_R   0.094155 0.450298 0.026412 -0.377755
O100  O     O_R   0.019536 0.422276 0.801893 -0.383868
N27   N     N_R   0.625180 0.069704 0.498090 0.220845
O101  O     O_R   0.652107 0.057141 0.645252 -0.334050
O102  O     O_R   0.553665 0.058996 0.427673 -0.355307
N28   N     N_R   0.612397 0.926370 0.971076 0.232482
O103  O     O_R   0.644711 0.942653 0.111840 -0.313986
O104  O     O_R   0.540112 0.936834 0.906656 -0.388886
H41   H     H_    0.751578 0.280786 0.454161 0.204048
H42   H     H_    0.758703 0.717636 0.956698 0.199660
H43   H     H_    0.264983 0.780303 0.455843 0.200436
H44   H     H_    0.275133 0.224209 0.955317 0.212487
N29   N     N_R   0.241494 0.722854 0.786381 0.275041
O105  O     O_R   0.279498 0.687017 0.860889 -0.255934
O106  O     O_R   0.199180 0.748728 0.858192 -0.300392
N30   N     N_R   0.235870 0.274623 0.284386 0.283348
O107  O     O_R   0.278622 0.304291 0.381768 -0.217989
O108  O     O_R   0.194482 0.244747 0.341574 -0.249370
N31   N     N_R   0.754058 0.218021 0.793585 0.275266
O109  O     O_R   0.780487 0.176454 0.843152 -0.290288
O110  O     O_R   0.727405 0.245041 0.889944 -0.221010
N32   N     N_R   0.749486 0.784639 0.281315 0.277463
O111  O     O_R   0.783196 0.824599 0.332424 -0.252404
O112  O     O_R   0.723434 0.757932 0.379002 -0.228814
N33   N     N_R   0.057097 0.801591 0.633692 0.222484
O113  O     O_R   0.070779 0.835037 0.740665 -0.315492
O114  O     O_R   0.105464 0.794766 0.543640 -0.430674
N34   N     N_R   0.045017 0.198644 0.104396 0.242852
O115  O     O_R   0.047181 0.153277 0.130878 -0.238890
O116  O     O_R   0.102859 0.217505 0.058794 -0.444936
N35   N     N_R   0.549388 0.307434 0.714502 0.230603
O117  O     O_R   0.551171 0.351376 0.761294 -0.303747
O118  O     O_R   0.614257 0.287633 0.705052 -0.390284
N36   N     N_R   0.543821 0.694729 0.111512 0.246242
O119  O     O_R   0.546657 0.648685 0.113599 -0.254950
O120  O     O_R   0.608587 0.718098 0.140818 -0.397278
N37   N     N_R   0.060811 0.697114 0.151236 0.195097
O121  O     O_R   0.054415 0.668965 0.264947 -0.555031
O122  O     O_R   0.104946 0.685472 0.057158 -0.322038
N38   N     N_R   0.088417 0.288319 0.574944 0.242880
O123  O     O_R   0.155695 0.267151 0.607330 -0.290351
O124  O     O_R   0.088327 0.333564 0.554503 -0.356115
N39   N     N_R   0.553715 0.191503 0.198753 0.205845
O125  O     O_R   0.535196 0.166588 0.309916 -0.554125
O126  O     O_R   0.593774 0.171491 0.108275 -0.323616
N40   N     N_R   0.583210 0.791384 0.570633 0.245300
O127  O     O_R   0.649054 0.768751 0.613398 -0.315339
O128  O     O_R   0.586681 0.836572 0.554034 -0.357706
H45   H     H_    0.975357 0.738147 0.200591 0.054004
H46   H     H_    0.018382 0.278847 0.733962 -0.055216
H47   H     H_    0.459687 0.234550 0.207918 0.045687
H48   H     H_    0.504631 0.783960 0.713354 -0.032861
N41   N     N_R   0.105736 0.791900 0.168800 0.221177
O129  O     O_R   0.108069 0.829747 0.256117 -0.243071
O130  O     O_R   0.171495 0.771973 0.162191 -0.328796
N42   N     N_R   0.032359 0.188152 0.468877 0.248300
O131  O     O_R   0.994030 0.149209 0.423781 -0.281430
O132  O     O_R   0.100351 0.192142 0.437800 -0.287500
N43   N     N_R   0.618846 0.273433 0.080077 0.288053
O133  O     O_R   0.672102 0.247716 0.171684 -0.327574
O134  O     O_R   0.643772 0.311109 0.022325 -0.260562
N44   N     N_R   0.534686 0.691646 0.467552 0.245924
O135  O     O_R   0.501456 0.651128 0.423381 -0.253853
O136  O     O_R   0.603711 0.698132 0.442903 -0.280074
H49   H     H_    0.048109 0.772616 0.936273 0.129751
H50   H     H_    0.959040 0.201129 0.615409 0.131606
H51   H     H_    0.502662 0.295019 0.010947 0.123033
H52   H     H_    0.453212 0.703570 0.599419 0.130971
H53   H     H_    0.783563 0.508686 0.218471 0.054043
H54   H     H_    0.778214 0.493457 0.716160 0.064959
H55   H     H_    0.284590 0.009758 0.214830 0.054424
H56   H     H_    0.259249 0.003328 0.728521 0.079474
N45   N     N_R   0.768347 0.559156 0.037581 0.167869
O137  O     O_R   0.839912 0.560729 0.023743 -0.386472
O138  O     O_R   0.717365 0.588551 0.955651 -0.372758
N46   N     N_R   0.769521 0.441697 0.538243 0.169195
O139  O     O_R   0.844541 0.436626 0.561361 -0.387606
O140  O     O_R   0.724112 0.418084 0.422831 -0.371418
N47   N     N_R   0.265608 0.059017 0.030138 0.160128
O141  O     O_R   0.336154 0.061166 0.010581 -0.395557
O142  O     O_R   0.213572 0.089103 0.956000 -0.405726
N48   N     N_R   0.177215 0.958298 0.589098 0.221791
O143  O     O_R   0.181848 0.930954 0.470018 -0.320528
O144  O     O_R   0.139127 0.943633 0.691490 -0.324741

loop_
_geom_bond_atom_site_label_1
_geom_bond_atom_site_label_2
_geom_bond_distance
_ccdc_geom_bond_type
Ba2   O46   2.906722 S    
C23   C27   1.543625 S    
N9    O66   1.296811 A    
C70   C74   1.475045 S    
N31   O109  1.298912 A    
P6    O26   1.577784 D    
C67   N31   1.438454 S    
C72   C76   1.475466 S    
N35   O118  1.290939 A    
C10   N22   1.466236 S    
C28   N8    1.463829 S    
O12   Ba4   2.842766 S    
C63   C65   1.364729 D    
C76   C88   1.498821 S    
C36   C48   1.507818 S    
N24   O96   1.301555 A    
C1    N33   1.453720 S    
C14   N46   1.450567 S    
C80   C84   1.339596 D    
N26   O99   1.289588 A    
C14   C18   1.528614 S    
N20   O88   1.301865 A    
C4    C32   1.607238 S    
O31   Ba3   2.847919 S    
P4    O8    1.642746 S    
C19   H11   1.108768 S    
O13   P14   1.533516 D    
C69   C73   1.479541 S    
C71   C79   1.482485 S    
N21   O89   1.301524 A    
C34   C46   1.503297 S    
C42   C58   1.427007 A    
C36   C52   1.372550 D    
C77   H33   1.078822 S    
N1    O50   1.294234 A    
N22   O92   1.301112 A    
C26   N10   1.463746 S    
C4    N16   1.463689 S    
C22   C26   1.542044 S    
O28   Ba4   3.002370 S    
P7    O39   1.761926 S    
P11   C52   1.862562 S    
C73   C85   1.495533 S    
O24   C32   1.426471 S    
N35   O117  1.302849 A    
C18   H10   1.104429 S    
P14   C85   1.883682 S    
C2    C30   1.594253 S    
N36   O119  1.302519 A    
N16   O80   1.293924 A    
C1    N17   1.477408 S    
C64   C66   1.365027 D    
P6    O38   1.756031 S    
N25   O98   1.297227 A    
P3    Ba3   3.575439 S    
P8    O28   1.577784 D    
P9    O29   1.771908 S    
C26   H22   1.112479 S    
N34   O115  1.302529 A    
P11   O31   1.752770 S    
P12   O32   1.750218 S    
C40   C88   1.422393 A    
C4    N20   1.476486 S    
O29   Ba1   2.847919 S    
O41   C5    1.414262 S    
O7    Ba4   2.923103 S    
O43   C7    1.413788 S    
O44   C8    1.423884 S    
N29   O106  1.299698 A    
C3    N35   1.462406 S    
P2    O18   1.759145 S    
O22   C30   1.422394 S    
C38   N26   1.422780 S    
C2    N34   1.458773 S    
O16   P15   1.536064 D    
C77   C81   1.342202 D    
N46   O139  1.296137 A    
C7    N39   1.444224 S    
C64   H44   1.082349 S    
C55   C59   1.449161 A    
P10   C49   1.877431 S    
P3    O7    1.646962 S    
N7    O61   1.300241 A    
C53   C57   1.449448 A    
C54   C62   1.535141 S    
N41   O129  1.301460 A    
C17   H1    1.111406 S    
C43   H31   1.085172 S    
N5    O58   1.299759 A    
C19   H3    1.111251 S    
P9    O41   1.773788 S    
N6    O60   1.301149 A    
O3    Ba3   2.999516 S    
N43   O134  1.298817 A    
C31   N3    1.460587 S    
P12   O44   1.780365 S    
O27   Ba3   3.000958 S    
C9    H49   1.105796 S    
N47   O141  1.294904 A    
C37   C85   1.420773 A    
P5    O46   1.657808 S    
N3    O54   1.292329 A    
C26   N6    1.462383 S    
P7    O48   1.657808 S    
C15   H55   1.107918 S    
C8    C12   1.582191 S    
N31   O110  1.294495 A    
C18   H6    1.110849 S    
C23   H15   1.106222 S    
C24   H16   1.105506 S    
N4    O55   1.291557 A    
C33   H37   1.051259 S    
C14   H54   1.109603 S    
N18   O83   1.296751 A    
N41   O130  1.300128 A    
P8    C47   1.857012 S    
N40   O128  1.289251 A    
O30   Ba2   2.859990 S    
N38   O124  1.291848 A    
C37   N25   1.416208 S    
P7    O27   1.574352 D    
N17   O81   1.299579 A    
P5    C46   1.869934 S    
P2    C82   1.894824 S    
N33   O114  1.296830 A    
P7    C48   1.893549 S    
N5    O57   1.301030 A    
C9    N41   1.471534 S    
C40   N28   1.414808 S    
N37   O122  1.292481 A    
C21   H17   1.108838 S    
C15   C19   1.531607 S    
C6    C10   1.589846 S    
N44   O135  1.301220 A    
C23   H19   1.105946 S    
C44   C48   1.403291 A    
Ba4   O47   3.061305 S    
N30   O108  1.291002 A    
C8    N40   1.462340 S    
C49   C53   1.448725 A    
N13   O73   1.301948 A    
C5    C9    1.559829 S    
C42   H30   1.084899 S    
C51   C55   1.449139 A    
Ba3   Ba4   4.739158 S    
C44   C60   1.436240 A    
C34   C50   1.368428 D    
N19   O86   1.298768 A    
C16   N48   1.464270 S    
C27   H23   1.108567 S    
C41   C45   1.400972 A    
O24   P15   1.783193 S    
N15   O78   1.294442 A    
N12   O72   1.300555 A    
C32   N4    1.465321 S    
C21   H13   1.109194 S    
C20   H4    1.109216 S    
N42   O131  1.301553 A    
C27   N11   1.468118 S    
C74   C86   1.504263 S    
C43   C47   1.392469 A    
C79   C83   1.339150 D    
P13   C86   1.872729 S    
C72   C80   1.479327 S    
Ba1   O46   3.059667 S    
P16   C87   1.918898 S    
C39   C83   1.509976 S    
C66   C74   1.515614 S    
Ba3   O48   3.059667 S    
C16   H56   1.105267 S    
C7    H47   1.097900 S    
P10   O30   1.783147 S    
C30   H26   1.108034 S    
O22   P13   1.775754 S    
N10   O67   1.299519 A    
C30   N2    1.461384 S    
N48   O143  1.301860 A    
C40   C84   1.498797 S    
N11   O70   1.301177 A    
N28   O103  1.296152 A    
P6    Ba2   3.576478 S    
C2    N18   1.476455 S    
N7    O62   1.300745 A    
O42   C6    1.427105 S    
P11   O35   1.545497 D    
N19   O85   1.301740 A    
C35   C51   1.363624 D    
O11   P16   1.746037 S    
N14   O75   1.301417 A    
N1    O49   1.290064 A    
N23   O93   1.297787 A    
C1    N13   1.455867 S    
C4    N36   1.461600 S    
C62   H42   1.084427 S    
P1    O1    1.576400 D    
C65   C73   1.505570 S    
N2    O51   1.290742 A    
C55   C63   1.532265 S    
P3    O3    1.576400 D    
C56   C64   1.535868 S    
N32   O111  1.302918 A    
P4    O20   1.755765 S    
C54   C58   1.452906 A    
P1    Ba1   3.575439 S    
O9    Ba1   2.854830 S    
N9    O65   1.300292 A    
C39   C87   1.429786 A    
O1    Ba1   2.999516 S    
P10   O42   1.780999 S    
C28   N12   1.462398 S    
N36   O120  1.290868 A    
C13   C17   1.531595 S    
O14   P13   1.535518 D    
N45   O138  1.302144 A    
C37   C81   1.500735 S    
C38   C86   1.425973 A    
C79   H35   1.077068 S    
O5    Ba2   2.923103 S    
C52   C56   1.439109 A    
C80   H36   1.080066 S    
N39   O125  1.296099 A    
Ba2   O45   3.061305 S    
N25   O97   1.295717 A    
C33   C45   1.491933 S    
C41   H29   1.083450 S    
O37   C14   1.395600 S    
C35   C47   1.497649 S    
N34   O116  1.293473 A    
O17   C21   1.386560 S    
O23   P16   1.782989 S    
C34   H38   1.080102 S    
C19   H7    1.110354 S    
N11   O69   1.302361 A    
C5    H45   1.074706 S    
C20   H8    1.107803 S    
P1    O5    1.646962 S    
N3    O53   1.293142 A    
P7    Ba3   3.577631 S    
O11   Ba3   2.854830 S    
O8    Ba3   2.912218 S    
N43   O133  1.296788 A    
C11   H51   1.097768 S    
N29   O105  1.298083 A    
P8    O40   1.754211 S    
P9    O33   1.547845 D    
O40   C15   1.397777 S    
O25   Ba1   3.000958 S    
N46   O140  1.302080 A    
N20   O87   1.296623 A    
C63   H43   1.083515 S    
P1    C81   1.896899 S    
O20   C24   1.410936 S    
C78   H34   1.081098 S    
P4    C84   1.902237 S    
C22   H18   1.107789 S    
N21   O90   1.298108 A    
P2    Ba2   3.576523 S    
C15   N47   1.450239 S    
O10   Ba2   2.842766 S    
N22   O91   1.295988 A    
C25   H21   1.110081 S    
C3    N19   1.479227 S    
C21   C25   1.537579 S    
O4    Ba4   2.998147 S    
C10   N42   1.453881 S    
C20   H12   1.110510 S    
O15   P16   1.537323 D    
N47   O142  1.301563 A    
O6    Ba1   2.912218 S    
P5    O25   1.574352 D    
C70   C78   1.481454 S    
N8    O64   1.300233 A    
N30   O107  1.293379 A    
C68   N32   1.434623 S    
O21   C29   1.421922 S    
O38   C13   1.398019 S    
N4    O56   1.297468 A    
C13   N45   1.449393 S    
O23   C31   1.425460 S    
N18   O84   1.299241 A    
C28   H24   1.110587 S    
O18   C22   1.403546 S    
N16   O79   1.302115 A    
P9    C50   1.860073 S    
C12   N24   1.463464 S    
C18   H2    1.111157 S    
C22   H14   1.109521 S    
C25   N5    1.463186 S    
C6    N38   1.463235 S    
C31   H27   1.105625 S    
C25   N9    1.452614 S    
P1    O17   1.751269 S    
O2    Ba2   2.998147 S    
C3    N15   1.467801 S    
C10   H50   1.105954 S    
N33   O113  1.301193 A    
P3    O19   1.753271 S    
O26   Ba2   3.002370 S    
P6    O45   1.662216 S    
P4    O4    1.572956 D    
C75   C87   1.493257 S    
C68   C76   1.499132 S    
Ba1   Ba2   4.739158 S    
C69   C77   1.486096 S    
C43   C59   1.423918 A    
N37   O121  1.292136 A    
N38   O123  1.296326 A    
C71   C75   1.478844 S    
C67   C75   1.492057 S    
N24   O95   1.295484 A    
C41   C57   1.433098 A    
N27   O102  1.297315 A    
C62   C68   1.370438 D    
N44   O136  1.296890 A    
N23   O94   1.301276 A    
C11   N43   1.466175 S    
C66   N30   1.433306 S    
C13   H53   1.108351 S    
C36   H40   1.082055 S    
Ba4   O48   2.906722 S    
O9    P14   1.744071 S    
C32   H28   1.108734 S    
N15   O77   1.301147 A    
P4    Ba4   3.576523 S    
N8    O63   1.300504 A    
C39   N27   1.414343 S    
P8    O47   1.662216 S    
C44   H32   1.081727 S    
C17   H9    1.109826 S    
P6    C45   1.869060 S    
P11   O43   1.777244 S    
C29   N1    1.466408 S    
O19   C23   1.407542 S    
P15   C88   1.900360 S    
C12   N44   1.461642 S    
P2    O2    1.572956 D    
C56   C60   1.455579 A    
P3    C83   1.917220 S    
P5    O37   1.750011 S    
C7    C11   1.577585 S    
N39   O126  1.298400 A    
C1    C29   1.590215 S    
C24   C28   1.542137 S    
N42   O132  1.293517 A    
C2    N14   1.461129 S    
P12   O36   1.546177 D    
O32   Ba4   2.859990 S    
C3    C31   1.610050 S    
C50   C54   1.450853 A    
N40   O127  1.298027 A    
C38   C82   1.495561 S    
Ba1   O45   2.917539 S    
C5    N37   1.436530 S    
C65   N29   1.435689 S    
Ba3   O47   2.917539 S    
C9    N21   1.469608 S    
C33   C49   1.358362 D    
C16   C20   1.533319 S    
N17   O82   1.296424 A    
C42   C46   1.396891 A    
C8    H48   1.106732 S    
N26   O100  1.289749 A    
N27   O101  1.296647 A    
N10   O68   1.300531 A    
N48   O144  1.300394 A    
C35   H39   1.077386 S    
N28   O104  1.296040 A    
P2    O6    1.642746 S    
O10   P13   1.734790 S    
C53   C61   1.529160 S    
P12   C51   1.852043 S    
O39   C16   1.408188 S    
N14   O76   1.293112 A    
O12   P15   1.733504 S    
C61   C67   1.369391 D    
P10   O34   1.549571 D    
C27   N7    1.466136 S    
N6    O59   1.300318 A    
N2    O52   1.295036 A    
N13   O74   1.288737 A    
N32   O112  1.297544 A    
P8    Ba4   3.576478 S    
C61   H41   1.083882 S    
C17   H5    1.110599 S    
C6    H46   1.104950 S    
C12   H52   1.106582 S    
C29   H25   1.109051 S    
O21   P14   1.772946 S    
C24   H20   1.108969 S    
N12   O71   1.299989 A    
C78   C82   1.338465 D    
N45   O137  1.295141 A    
P5    Ba1   3.577631 S    
C11   N23   1.456469 S    
