data_mof_unit_35186.cif
_audit_creation_date              2013-03-05T15:59:22-0500
_audit_creation_method            fapswitch 2.2
_symmetry_space_group_name_H-M    P1
_symmetry_Int_Tables_number       1
_space_group_crystal_system       triclinic
_cell_length_a                    10.498254
_cell_length_b                    12.698542
_cell_length_c                    13.14025
_cell_angle_alpha                 82.324524
_cell_angle_beta                  91.091684
_cell_angle_gamma                 102.189093
_cell_volume                      1696.8515376

loop_
_atom_site_label
_atom_site_type_symbol
_atom_site_description
_atom_site_fract_x
_atom_site_fract_y
_atom_site_fract_z
_atom_type_partial_charge
O1    O     O_R   0.467970 0.366730 0.627150 -0.593621
O2    O     O_R   0.510820 0.544830 0.662520 -0.623044
C1    C     C_R   0.474155 0.439007 0.690832 0.857067
O3    O     O_R   0.664630 0.410960 0.482340 -0.615121
O4    O     O_R   0.707470 0.589060 0.517710 -0.617493
C2    C     C_R   0.742129 0.500581 0.499662 0.875479
Zn1   Zn    Zn3+2 0.471390 0.381080 0.476380 0.938119
Zn2   Zn    Zn3+2 0.528610 0.618920 0.523620 0.920060
O5    O     O_R   0.489180 0.455170 0.337480 -0.648392
O6    O     O_R   0.532030 0.633270 0.372850 -0.632471
O7    O     O_R   0.292530 0.410940 0.482290 -0.646622
O8    O     O_R   0.335370 0.589040 0.517660 -0.646011
C3    C     C_R   0.513414 0.560862 0.308938 0.847802
C4    C     C_R   0.258008 0.499678 0.499705 0.833139
C5    C     C_3   0.933785 0.404221 0.476017 -0.107448
C6    C     C_3   0.022919 0.419684 0.569926 -0.161668
H1    H     H_    0.045952 0.353996 0.627294 0.145126
H2    H     H_    0.876547 0.325680 0.456367 0.158588
C7    C     C_3   0.122631 0.499971 0.499419 0.025563
C8    C     C_3   0.036188 0.484767 0.405591 -0.193931
C9    C     C_3   0.977540 0.581062 0.428502 -0.180627
C10   C     C_3   0.066806 0.596569 0.522354 -0.136917
C11   C     C_3   0.964419 0.516019 0.592851 -0.180721
C12   C     C_3   0.877794 0.500722 0.499083 0.022374
H3    H     H_    0.070171 0.471831 0.329618 0.145746
H4    H     H_    0.954551 0.646758 0.371131 0.141426
H5    H     H_    0.124822 0.675223 0.541220 0.154851
H6    H     H_    0.930686 0.528898 0.668914 0.138770
C13   C     C_R   0.437771 0.717152 0.060262 -0.199715
H7    H     H_    0.468051 0.756324 0.213830 0.155260
H8    H     H_    0.359625 0.728349 0.865148 0.154797
H9    H     H_    0.411745 0.793976 0.032288 0.139373
C14   C     C_R   0.505076 0.597226 0.199891 -0.049739
C15   C     C_R   0.433896 0.290155 0.842800 0.003496
C16   C     C_R   0.437575 0.262958 0.948758 -0.175737
C17   C     C_R   0.450682 0.342922 0.012657 -0.177985
C18   C     C_R   0.448690 0.451488 0.972210 0.082281
C19   C     C_R   0.426344 0.476026 0.866633 0.072985
C20   C     C_R   0.463223 0.535630 0.034235 0.089323
C21   C     C_R   0.431027 0.636403 0.995887 0.172844
C22   C     C_R   0.389313 0.653506 0.894978 -0.258443
C23   C     C_R   0.386717 0.574327 0.831070 -0.181786
C24   C     C_R   0.509937 0.521878 0.133650 -0.257987
C25   C     C_R   0.472029 0.696657 0.162989 -0.203538
C26   C     C_R   0.441053 0.400173 0.800261 -0.184072
H10   H     H_    0.547580 0.450870 0.162352 0.152810
H11   H     H_    0.453058 0.316068 0.094015 0.157196
H12   H     H_    0.431648 0.179283 0.982424 0.148056
H13   H     H_    0.348632 0.589478 0.754703 0.178278
C27   C     C_R   0.318440 0.084681 0.349834 -0.253618
H14   H     H_    0.290086 0.882566 0.316442 0.151672
H15   H     H_    0.250586 0.059720 0.289916 0.190427
N1    N     N_R   0.432930 0.222190 0.444670 -0.166527
C28   C     C_R   0.641558 0.792792 0.638753 0.028218
C29   C     C_R   0.651629 0.887210 0.682829 -0.257610
C30   C     C_R   0.589176 0.967257 0.636959 -0.186104
C31   C     C_R   0.523370 0.956607 0.542620 0.022579
C32   C     C_R   0.505635 0.853944 0.507140 0.236601
C33   C     C_R   0.467711 0.039450 0.485327 -0.042438
C34   C     C_R   0.380397 0.009683 0.405028 0.132114
C35   C     C_R   0.356536 0.905176 0.377886 -0.280284
C36   C     C_R   0.421134 0.829409 0.426559 -0.214177
C37   C     C_R   0.497573 0.151150 0.499391 0.060380
C38   C     C_R   0.343600 0.191260 0.370796 0.099127
N2    N     N_R   0.566370 0.776980 0.554790 -0.137210
H16   H     H_    0.686082 0.728369 0.675646 0.145543
H17   H     H_    0.587362 0.032369 0.680818 0.170195
H18   H     H_    0.703308 0.896602 0.754236 0.157678
H19   H     H_    0.401109 0.751145 0.401187 0.208775
C39   C     C_1   0.411992 0.201457 0.782096 0.199934
N3    N     N_1   0.392147 0.129298 0.734687 -0.229357
C40   C     C_2   0.273874 0.268236 0.309530 0.375562
H20   H     H_    0.281674 0.349832 0.325043 0.143063
O9    O     O_2   0.203934 0.240376 0.238301 -0.605531
C41   C     C_1   0.603460 0.195593 0.562854 0.242999
N4    N     N_1   0.688512 0.230235 0.614516 -0.229732

loop_
_geom_bond_atom_site_label_1
_geom_bond_atom_site_label_2
_geom_bond_distance
_ccdc_geom_bond_type
C32   C36   1.393134 A    
C5    H2    1.110087 S    
C9    H4    1.110244 S    
C27   C38   1.386782 A    
C22   C23   1.389254 A    
C7    C8    1.525743 S    
H14   C35   1.084828 S    
C29   C30   1.388914 A    
C29   H18   1.082663 S    
C28   N2    1.356364 A    
Zn1   O7    1.997428 S    
C17   C18   1.414053 A    
C19   C23   1.416228 A    
C13   H9    1.083697 S    
O4    C2    1.303113 A    
N1    C38   1.373926 A    
C31   C33   1.430436 A    
C8    H3    1.110410 S    
C5    C6    1.542739 S    
C30   C31   1.415977 A    
C17   H11   1.079359 S    
C15   C16   1.390840 A    
O5    C3    1.315941 A    
C19   C26   1.415848 A    
C16   C17   1.385412 A    
C6    H1    1.110313 S    
C27   H15   1.085242 S    
C11   C12   1.526297 S    
C39   N3    1.156736 T    
C15   C39   1.442707 S    
Zn2   N2    2.056916 S    
C9    C10   1.542973 S    
H7    C25   1.082483 S    
O3    Zn1   1.985570 S    
C16   H12   1.084511 S    
C5    C8    1.542407 S    
C14   C24   1.385821 A    
C7    C10   1.532329 S    
O3    C2    1.296178 A    
C20   C21   1.417609 A    
C20   C24   1.388653 A    
C1    C26   1.479461 S    
C36   H19   1.068021 S    
C34   C35   1.390601 A    
O1    C1    1.313294 A    
C41   N4    1.158626 T    
C3    C14   1.452469 S    
C18   C19   1.407038 A    
C32   N2    1.355813 A    
Zn2   O8    1.985572 S    
C2    C12   1.424032 S    
C15   C26   1.420767 A    
C11   H6    1.110291 S    
C40   O9    1.221834 D    
C5    C12   1.532711 S    
O8    C4    1.295376 A    
C6    C11   1.545040 S    
C10   H5    1.110626 S    
C13   C25   1.395137 A    
Zn1   N1    2.069248 S    
Zn1   O5    1.931689 S    
C28   C29   1.383386 A    
C21   C22   1.392210 A    
H8    C22   1.083953 S    
O1    Zn1   1.965446 S    
C14   C25   1.401699 A    
C4    C7    1.421942 S    
O2    Zn2   1.931688 S    
C40   H20   1.068555 S    
O6    C3    1.308834 A    
O4    Zn2   1.997425 S    
C28   H16   1.081499 S    
C30   H17   1.072622 S    
C33   C37   1.422823 A    
C27   C34   1.383903 A    
O2    C1    1.321311 A    
C18   C20   1.410048 A    
N1    C37   1.363091 A    
C31   C32   1.417082 A    
C37   C41   1.440527 S    
C6    C7    1.525631 S    
C13   C21   1.403832 A    
O7    C4    1.303073 A    
C38   C40   1.486241 S    
C35   C36   1.374511 A    
C24   H10   1.079550 S    
C23   H13   1.081414 S    
C33   C34   1.421204 A    
C8    C9    1.545416 S    
Zn2   O6    1.965449 S    
C9    C12   1.526645 S    
C10   C11   1.542840 S    
