data_mof_unit_64023.cif
_audit_creation_date              2012-12-10T19:34:12-0500
_audit_creation_method            fapswitch 2.2
_symmetry_space_group_name_H-M    P1
_symmetry_Int_Tables_number       1
_space_group_crystal_system       triclinic
_cell_length_a                    18.715615
_cell_length_b                    18.615799
_cell_length_c                    18.780222
_cell_angle_alpha                 109.368494
_cell_angle_beta                  110.022574
_cell_angle_gamma                 109.106664
_cell_volume                      5031.42602235

loop_
_atom_site_label
_atom_site_type_symbol
_atom_type_description
_atom_site_fract_x
_atom_site_fract_y
_atom_site_fract_z
_atom_type_partial_charge
C1    C     C_R   0.619506 0.620470 0.499691 0.866600
C2    C     C_3   0.193130 0.416877 0.187549 0.203067
C3    C     C_3   0.214515 0.453506 0.283419 -0.156817
C4    C     C_3   0.311860 0.499112 0.312091 -0.064568
C5    C     C_R   0.763784 0.687297 0.515179 0.078768
C6    C     C_R   0.686370 0.688080 0.502424 -0.079358
C7    C     C_R   0.677990 0.760084 0.501735 -0.181780
C8    C     C_R   0.741998 0.824187 0.501187 -0.184246
C9    C     C_R   0.815097 0.817050 0.504129 -0.085192
C10   C     C_R   0.828042 0.751846 0.517077 0.150893
C11   C     C_3   0.848960 0.688673 0.467454 -0.508866
C12   C     C_R   0.378810 0.499436 0.379220 0.894787
C13   C     C_3   0.777852 0.617351 0.465177 -0.406259
C14   C     C_R   0.754823 0.497942 0.684307 0.056860
C15   C     C_R   0.680946 0.494320 0.687312 -0.174472
C16   C     C_R   0.672798 0.491857 0.759315 -0.044564
C17   C     C_R   0.741501 0.495758 0.825387 -0.231401
C18   C     C_R   0.816180 0.501935 0.819909 -0.094006
C19   C     C_R   0.820594 0.504020 0.748898 0.126934
C20   C     C_3   0.874490 0.505689 0.706022 -0.519011
C21   C     C_3   0.799382 0.500001 0.631921 -0.257829
C22   C     C_R   0.264916 0.227768 0.433750 0.028582
C23   C     C_R   0.379685 0.379703 0.499737 0.951427
C24   C     C_R   0.313560 0.314526 0.500230 -0.124349
C25   C     C_R   0.295461 0.337774 0.568899 -0.160704
C26   C     C_R   0.231331 0.273814 0.569936 0.125063
C27   C     C_R   0.184684 0.186270 0.501299 -0.111869
C28   C     C_R   0.202703 0.166444 0.434077 -0.011480
C29   C     C_3   0.183760 0.092757 0.353981 -0.045684
C30   C     C_3   0.254871 0.163894 0.352716 0.004160
C31   C     C_R   0.003938 0.620479 0.123652 0.862448
C32   C     C_R   0.124726 0.499860 0.124315 0.904494
C33   C     C_R   0.005004 0.379967 0.885128 0.904997
C34   C     C_R   0.618710 0.497909 0.620892 0.920670
C35   C     C_R   0.882960 0.500523 0.883570 0.883373
C36   C     C_R   0.999080 0.120298 0.619463 0.900039
C37   C     C_R   0.879939 0.879937 0.500142 0.851627
C38   C     C_R   0.000810 0.879918 0.380648 0.852388
C39   C     C_R   0.119709 0.119318 0.499627 0.916681
C40   C     C_R   0.926152 0.688333 0.173112 0.076085
C41   C     C_R   0.004133 0.688248 0.187768 -0.070503
C42   C     C_R   0.083977 0.759812 0.260630 -0.198834
C43   C     C_R   0.083491 0.823995 0.324730 -0.195399
C44   C     C_R   0.003257 0.817322 0.313905 -0.099395
C45   C     C_3   0.311561 0.582525 0.316470 -0.188430
C46   C     C_R   0.925822 0.753081 0.235148 0.145312
C47   C     C_3   0.840539 0.689736 0.219795 -0.270955
C48   C     C_3   0.841073 0.618350 0.150795 -0.495856
C49   C     C_R   0.936310 0.270922 0.733254 -0.059791
C50   C     C_R   0.005297 0.315273 0.818974 -0.099246
C51   C     C_R   0.080509 0.306962 0.836128 0.164601
C52   C     C_R   0.078492 0.243085 0.769595 -0.168157
C53   C     C_R   0.003704 0.190977 0.685638 -0.139746
C54   C     C_R   0.936200 0.210689 0.666838 0.131551
C55   C     C_3   0.838962 0.152363 0.618942 -0.056679
C56   C     C_3   0.212744 0.536839 0.286125 -0.223659
C57   C     C_3   0.838866 0.219219 0.692988 -0.296024
C58   C     C_3   0.192145 0.499853 0.191044 -0.097878
C59   C     C_3   0.289917 0.545329 0.220657 0.198634
C60   C     C_3   0.291536 0.461939 0.217236 -0.205245
H1    H     H_    0.179127 0.567545 0.312679 0.160205
H2    H     H_    0.915887 0.701417 0.507790 0.216844
H3    H     H_    0.720621 0.568530 0.398221 0.234319
H4    H     H_    0.804041 0.589121 0.504212 0.227838
H5    H     H_    0.736408 0.492624 0.880211 0.193917
H6    H     H_    0.936370 0.569541 0.743546 0.212274
H7    H     H_    0.882535 0.446755 0.687927 0.221340
H8    H     H_    0.818036 0.560445 0.626760 0.139428
H9    H     H_    0.331458 0.404853 0.622169 0.204269
H10   H     H_    0.361768 0.650392 0.370924 0.164683
H11   H     H_    0.204648 0.047868 0.369679 0.113885
H12   H     H_    0.314555 0.157617 0.366555 0.134278
H13   H     H_    0.145752 0.763395 0.270027 0.160243
H14   H     H_    0.144850 0.877036 0.383158 0.161478
H15   H     H_    0.847318 0.681426 0.277275 0.120871
H16   H     H_    0.848415 0.568897 0.168729 0.218485
H17   H     H_    0.789062 0.590272 0.082327 0.223137
H18   H     H_    0.134435 0.232984 0.784211 0.201619
H19   H     H_    0.819961 0.086947 0.614106 0.145953
H20   H     H_    0.806178 0.254961 0.672722 0.197487
H21   H     H_    0.324773 0.431145 0.190067 0.195181
H22   H     H_    0.185588 0.415716 0.310771 0.166073
H23   H     H_    0.620268 0.764190 0.497068 0.162116
H24   H     H_    0.733641 0.877671 0.496499 0.168315
H25   H     H_    0.833010 0.681403 0.401889 0.198759
O1    O     O_R   0.592030 0.539910 0.448670 -0.612857
O2    O     O_R   0.054880 0.643340 0.094730 -0.615951
O3    O     O_R   0.044460 0.448310 0.096120 -0.607814
O4    O     O_R   0.147900 0.551710 0.096100 -0.593932
O5    O     O_R   0.952840 0.356700 0.912890 -0.593763
O6    O     O_R   0.056280 0.460110 0.912860 -0.602666
O7    O     O_R   0.859820 0.448330 0.911520 -0.609779
O8    O     O_R   0.963270 0.551730 0.911500 -0.621261
O9    O     O_R   0.947110 0.091620 0.538800 -0.598996
O10   O     O_R   0.051340 0.091660 0.643070 -0.615935
O11   O     O_R   0.856270 0.908420 0.447910 -0.613117
O12   O     O_R   0.591210 0.643320 0.551340 -0.623203
O13   O     O_R   0.960500 0.908460 0.552180 -0.617499
O14   O     O_R   0.948660 0.908440 0.357030 -0.573485
O15   O     O_R   0.052890 0.908480 0.461300 -0.633019
O16   O     O_R   0.039500 0.091640 0.447920 -0.585998
O17   O     O_R   0.143730 0.091680 0.552190 -0.615633
O18   O     O_R   0.408090 0.448300 0.356360 -0.611047
O19   O     O_R   0.407280 0.551720 0.459030 -0.630808
O20   O     O_R   0.408790 0.356680 0.448660 -0.614898
O21   O     O_R   0.407970 0.460090 0.551330 -0.611106
O22   O     O_R   0.592720 0.448280 0.540970 -0.610610
O23   O     O_R   0.591910 0.551700 0.643640 -0.601942
O24   O     O_R   0.951440 0.539930 0.094760 -0.629250
Zn1   Zn    Zn3+2 0.500550 0.430950 0.431450 1.034687
Zn2   Zn    Zn3+2 0.499450 0.569050 0.568550 1.013971
Zn3   Zn    Zn3+2 0.934790 0.430980 0.003830 1.031175
Zn4   Zn    Zn3+2 0.072930 0.569070 0.003790 1.033870
Zn5   Zn    Zn3+2 0.930400 0.000020 0.430430 1.086970
Zn6   Zn    Zn3+2 0.069600 0.000080 0.569670 1.000573
C61   C     C_2   0.593454 0.480779 0.766086 0.943962
O25   O     O_2   0.521587 0.442255 0.700241 -0.640194
O26   O     O_R   0.600593 0.511897 0.848389 -0.791764
H26   H     H_    0.542145 0.499678 0.844718 0.360886
C62   C     C_2   0.750678 0.416052 0.545695 1.016350
O27   O     O_2   0.724790 0.344861 0.542329 -0.591770
O28   O     O_R   0.734731 0.420218 0.469274 -0.820127
H27   H     H_    0.701202 0.360021 0.415293 0.350694
I1    I     I_    0.208550 0.314138 0.675535 -0.325424
I2    I     I_    0.049390 0.026083 0.251677 -0.198828
I3    I     I_    0.215074 0.194886 0.250243 -0.229928
C63   C     C_2   0.765872 0.705685 0.182380 0.992998
O29   O     O_2   0.779348 0.773516 0.179982 -0.582206
O30   O     O_R   0.680644 0.642141 0.151164 -0.776149
H28   H     H_    0.635639 0.659590 0.127814 0.358104
I4    I     I_    0.358384 0.622801 0.178729 -0.277697
I5    I     I_    0.195939 0.382884 0.960765 -0.264114
I6    I     I_    0.777004 0.147727 0.496953 -0.245473
C64   C     C_2   0.809974 0.183943 0.745864 0.977590
O31   O     O_2   0.841011 0.143867 0.773533 -0.604744
O32   O     O_R   0.747565 0.198091 0.763484 -0.776978
H29   H     H_    0.733491 0.172205 0.799890 0.347435
I7    I     I_    0.097622 0.284150 0.086866 -0.214091

loop_
_geom_bond_atom_site_label_1
_geom_bond_atom_site_label_2
_ccdc_geom_bond_type
C7    H23   S    
O20   Zn1   S    
C30   I3    S    
C29   I2    S    
C41   C42   A    
C48   H16   S    
C20   H7    S    
C19   C20   S    
O5    Zn3   S    
C11   H2    S    
O14   Zn5   S    
O9    Zn5   S    
C7    C8    A    
C53   C54   A    
C52   C53   A    
C40   C46   A    
C59   I4    S    
C26   C27   A    
O18   Zn1   S    
C34   O22   A    
C14   C21   S    
C20   H6    S    
C28   C29   S    
O1    Zn1   S    
C12   O19   A    
C21   C62   S    
C33   O6    A    
C5    C6    A    
O12   Zn2   S    
C2    C60   S    
C15   C16   A    
C32   O3    A    
C49   C57   S    
C61   O25   D    
C17   C18   A    
C18   C19   A    
C60   H21   S    
O26   H26   S    
O17   Zn6   S    
C33   C50   S    
C54   C55   S    
C47   C48   S    
C45   C56   S    
C27   C39   S    
C8    C9    A    
C23   C24   S    
C36   C53   S    
C32   C58   S    
C56   C58   S    
C4    C12   S    
C31   C41   S    
C18   C35   S    
C15   C34   S    
C5    C13   S    
O21   Zn2   S    
C35   O7    A    
C43   H14   S    
C59   C60   S    
C49   C54   A    
C22   C28   A    
O16   Zn5   S    
C57   H20   S    
O11   Zn5   S    
O15   Zn6   S    
C26   I1    S    
C52   H18   S    
C16   C61   S    
C37   O13   A    
C62   O28   S    
C39   O16   A    
C4    C45   S    
C35   O8    A    
O4    Zn4   S    
C31   O2    A    
C51   C52   A    
C2    I7    S    
C24   C25   A    
C12   O18   A    
C38   O15   A    
O24   Zn3   S    
C1    O12   A    
C16   C17   A    
C64   O32   S    
C44   C46   A    
C58   C59   S    
C55   I6    S    
C23   O21   A    
C1    C6    S    
C37   O11   A    
C48   H17   S    
C43   C44   A    
C63   O30   S    
C38   C44   S    
C29   C30   S    
C36   O9    A    
C55   H19   S    
C3    C56   S    
C32   O4    A    
C13   H3    S    
C4    C60   S    
C3    H22   S    
C9    C37   S    
C50   C51   A    
C31   O24   A    
O8    Zn4   S    
C6    C7    A    
C40   C41   A    
C55   C57   S    
C21   H8    S    
O22   Zn1   S    
C22   C24   A    
C57   C64   S    
C25   H9    S    
C42   C43   A    
C3    C4    S    
C62   O27   D    
C39   O17   A    
O30   H28   S    
C9    C10   A    
C1    O1    A    
C40   C48   S    
C46   C47   S    
C45   C59   S    
C42   H13   S    
C22   C30   S    
C45   H10   S    
C8    H24   S    
C14   C19   A    
O7    Zn3   S    
C14   C15   A    
C38   O14   A    
O19   Zn2   S    
C30   H12   S    
C51   I5    S    
C2    C58   S    
C47   C63   S    
C64   O31   D    
C17   H5    S    
O23   Zn2   S    
C34   O23   A    
C2    C3    S    
C25   C26   A    
O10   Zn6   S    
C5    C10   A    
C33   O5    A    
C11   C13   S    
C36   O10   A    
O13   Zn6   S    
C13   H4    S    
C11   H25   S    
C61   O26   S    
O2    Zn4   S    
C10   C11   S    
C47   H15   S    
O3    Zn3   S    
O6    Zn4   S    
C20   C21   S    
C49   C50   A    
C27   C28   A    
C56   H1    S    
O32   H29   S    
O28   H27   S    
C63   O29   D    
C29   H11   S    
C23   O20   A    
