data_mof_unit_10711.cif
_audit_creation_date              2012-12-10T18:57:41-0500
_audit_creation_method            fapswitch 2.2
_symmetry_space_group_name_H-M    P1
_symmetry_Int_Tables_number       1
_space_group_crystal_system       triclinic
_cell_length_a                    10.9188
_cell_length_b                    10.818733
_cell_length_c                    9.566537
_cell_angle_alpha                 90.451203
_cell_angle_beta                  89.63961
_cell_angle_gamma                 91.490379
_cell_volume                      1129.6336274

loop_
_atom_site_label
_atom_site_type_symbol
_atom_type_description
_atom_site_fract_x
_atom_site_fract_y
_atom_site_fract_z
_atom_type_partial_charge
C1    C     C_R   0.496389 0.262474 0.499258 0.821088
C2    C     C_R   0.484791 0.129263 0.494568 -0.140383
C3    C     C_R   0.526749 0.064403 0.376497 -0.198078
C4    C     C_R   0.527304 0.935621 0.377241 -0.231542
C5    C     C_R   0.488047 0.870610 0.496949 -0.096006
C6    C     C_R   0.429605 0.936005 0.603373 0.075253
C7    C     C_3   0.434849 0.933305 0.759407 -0.537855
C8    C     C_3   0.426713 0.074002 0.756162 0.211516
C9    C     C_R   0.605621 0.525463 0.073317 0.136539
C10   C     C_R   0.397909 0.466852 0.074538 -0.031998
C11   C     C_R   0.397433 0.468650 0.926311 0.012239
C12   C     C_R   0.265325 0.495583 0.500485 0.871773
C13   C     C_R   0.606947 0.519815 0.926172 0.103190
C14   C     C_3   0.696317 0.626961 0.916116 0.226330
C15   C     C_3   0.681211 0.643841 0.073636 0.201168
C16   C     C_R   0.497274 0.737522 0.500111 0.772060
C17   C     C_R   0.734533 0.497323 0.499910 0.813975
C18   C     C_2   0.932375 0.461981 0.390416 -0.127565
C19   C     C_2   0.866730 0.496195 0.502311 -0.353778
C20   C     C_2   0.066668 0.470745 0.387725 -0.156958
C21   C     C_2   0.133224 0.482660 0.504468 -0.285512
C22   C     C_R   0.425371 0.062770 0.600673 0.124865
Cu1   Cu    Cu3+1 0.499990 0.499980 0.640670 1.001046
Cu2   Cu    Cu3+1 0.500010 0.500020 0.359330 0.962352
H1    H     H_    0.886612 0.433572 0.294448 0.198945
H2    H     H_    0.509331 0.124193 0.796964 0.093848
H3    H     H_    0.314582 0.440677 0.129381 0.159874
H4    H     H_    0.313244 0.446078 0.872409 0.187621
H5    H     H_    0.789010 0.594403 0.885295 0.095225
H6    H     H_    0.624956 0.725135 0.102473 0.099267
H7    H     H_    0.908751 0.527438 0.598811 0.140388
H8    H     H_    0.111234 0.467471 0.285981 0.170454
H9    H     H_    0.092168 0.478234 0.607621 0.162255
H10   H     H_    0.565682 0.112702 0.287237 0.171825
H11   H     H_    0.565175 0.888027 0.287585 0.157035
H12   H     H_    0.354845 0.883080 0.806183 0.243102
H13   H     H_    0.524312 0.904982 0.799374 0.215463
N1    N     N_R   0.500780 0.500930 0.147930 -0.211844
N2    N     N_R   0.500780 0.500890 0.852020 -0.175266
O1    O     O_R   0.500000 0.319640 0.618810 -0.566428
O2    O     O_R   0.500010 0.319680 0.381230 -0.575960
O3    O     O_R   0.321940 0.499980 0.618760 -0.575492
O4    O     O_R   0.321950 0.500020 0.381180 -0.594019
O5    O     O_R   0.499990 0.680320 0.618770 -0.533998
O6    O     O_R   0.500000 0.680360 0.381190 -0.600401
O7    O     O_R   0.678050 0.499980 0.618820 -0.587967
O8    O     O_R   0.678060 0.500020 0.381240 -0.562236
O9    O     O_3   0.649994 0.726952 0.840479 -0.603844
C23   C     C_3   0.739656 0.778518 0.748258 0.089249
H14   H     H_    0.691103 0.821851 0.660902 0.157780
H15   H     H_    0.799329 0.708639 0.698621 0.114733
C24   C     C_3   0.816649 0.879466 0.821096 -0.430817
H16   H     H_    0.755669 0.941019 0.881692 0.222073
H17   H     H_    0.881381 0.835637 0.893100 0.227783
C25   C     C_3   0.889561 0.957402 0.715768 -0.808297
H18   H     H_    0.954199 0.898869 0.656409 0.259203
H19   H     H_    0.942387 0.031078 0.771994 0.303672
H20   H     H_    0.826857 0.002213 0.641731 0.236933
O10   O     O_3   0.794898 0.633147 0.142713 -0.620411
C26   C     C_3   0.809224 0.724189 0.249368 0.080960
H21   H     H_    0.882409 0.694212 0.320079 0.179377
H22   H     H_    0.725351 0.732521 0.314740 0.142434
C27   C     C_3   0.849943 0.850264 0.191167 -0.405958
H23   H     H_    0.934617 0.839638 0.127768 0.242753
H24   H     H_    0.776832 0.887118 0.124512 0.207478
C28   C     C_3   0.876531 0.943059 0.308869 -0.890050
H25   H     H_    0.793975 0.954596 0.375537 0.248280
H26   H     H_    0.903208 0.034151 0.263700 0.273778
H27   H     H_    0.952925 0.911199 0.374517 0.262612
S1    S     S_3+6 0.284660 0.130048 0.823375 -0.003092
O11   O     O_2   0.250583 0.243377 0.744358 -0.280778
O12   O     O_2   0.183636 0.034031 0.807612 -0.304535
O13   O     O_3   0.301007 0.166800 0.993403 -0.530417
H28   H     H_    0.329193 0.090237 0.037768 0.343689

loop_
_geom_bond_atom_site_label_1
_geom_bond_atom_site_label_2
_ccdc_geom_bond_type
C16   O6    A    
C2    C22   A    
C8    C22   S    
Cu1   Cu2   S    
C27   H24   S    
S1    O11   D    
Cu2   N1    S    
C8    H2    S    
O13   H28   S    
C16   O5    A    
C28   H26   S    
C3    H10   S    
C24   C25   S    
C10   N1    A    
C23   C24   S    
C19   H7    S    
S1    O13   S    
C2    C3    A    
C7    H13   S    
C4    H11   S    
C10   H3    S    
C7    C8    S    
Cu1   O7    S    
C20   H8    S    
C13   C14   S    
C20   C21   D    
C4    C5    A    
C11   N2    A    
Cu2   O2    S    
Cu1   O3    S    
C6    C7    S    
C18   H1    S    
C15   O10   S    
C11   H4    S    
C26   C27   S    
Cu1   N2    S    
Cu2   O6    S    
C1    O2    A    
O9    C23   S    
C17   C19   S    
C24   H17   S    
C28   H25   S    
C12   O4    A    
C18   C20   S    
C25   H19   S    
C9    C15   S    
C5    C6    A    
Cu2   O4    S    
C9    C13   A    
C25   H18   S    
C27   C28   S    
C28   H27   S    
C13   N2    A    
C10   C11   A    
Cu1   O5    S    
C14   H5    S    
Cu1   O1    S    
C6    C22   A    
O10   C26   S    
C21   H9    S    
C17   O7    A    
C15   H6    S    
C26   H22   S    
C1    C2    S    
C7    H12   S    
C25   H20   S    
C23   H14   S    
C18   C19   D    
C14   O9    S    
C14   C15   S    
C9    N1    A    
C5    C16   S    
C12   O3    A    
C1    O1    A    
C27   H23   S    
Cu2   O8    S    
C8    S1    S    
C12   C21   S    
S1    O12   D    
C3    C4    A    
C17   O8    A    
C24   H16   S    
C26   H21   S    
C23   H15   S    
