data_mof_unit_57635.cif
_audit_creation_date              2012-12-11T15:54:41-0500
_audit_creation_method            fapswitch 2.2
_symmetry_space_group_name_H-M    P1
_symmetry_Int_Tables_number       1
_space_group_crystal_system       triclinic
_cell_length_a                    6.916224
_cell_length_b                    14.579608
_cell_length_c                    16.126781
_cell_angle_alpha                 89.831429
_cell_angle_beta                  89.862432
_cell_angle_gamma                 89.782249
_cell_volume                      1626.13399858

loop_
_atom_site_label
_atom_site_type_symbol
_atom_type_description
_atom_site_fract_x
_atom_site_fract_y
_atom_site_fract_z
_atom_type_partial_charge
O1    O     O_R   0.638180 0.333920 0.163320 -0.515004
O2    O     O_R   0.361820 0.666080 0.836680 -0.515816
O3    O     O_R   0.308470 0.344960 0.336080 -0.511523
O4    O     O_R   0.691530 0.655040 0.663920 -0.516527
O5    O     O_R   0.138140 0.166110 0.336680 -0.556249
O6    O     O_R   0.861860 0.833890 0.663320 -0.559357
C1    C     C_R   0.477278 0.367022 0.365272 0.871784
C2    C     C_R   0.522721 0.632976 0.634730 0.853915
O7    O     O_R   0.308460 0.344950 0.163930 -0.561395
O8    O     O_R   0.691540 0.655050 0.836070 -0.555726
O9    O     O_R   0.138140 0.166100 0.163310 -0.581199
O10   O     O_R   0.861860 0.833900 0.836690 -0.537053
C3    C     C_R   0.476676 0.365409 0.133624 0.742490
C4    C     C_R   0.523321 0.634536 0.866343 0.775695
O11   O     O_R   0.638180 0.333930 0.336700 -0.508489
O12   O     O_R   0.361820 0.666070 0.663300 -0.513630
O13   O     O_3   0.471670 0.191340 0.250000 -0.390784
O14   O     O_3   0.528330 0.808660 0.750000 -0.364268
V1    V     V_3+5 0.196830 0.260900 0.250000 1.621949
V2    V     V_3+5 0.803170 0.739100 0.750000 1.679230
O15   O     O_R   0.808420 0.155070 0.163920 -0.499640
O16   O     O_R   0.191580 0.844930 0.836080 -0.489647
C5    C     C_R   0.978799 0.134398 0.133795 0.834125
C6    C     C_R   0.021274 0.865956 0.865924 0.850389
O17   O     O_R   0.808420 0.155080 0.336070 -0.525768
O18   O     O_R   0.191580 0.844920 0.663930 -0.530474
C7    C     C_R   0.977644 0.132154 0.363957 0.806013
C8    C     C_R   0.022355 0.867825 0.636021 0.790019
V3    V     V_3+5 0.696830 0.239130 0.250000 1.683558
V4    V     V_3+5 0.303170 0.760870 0.750000 1.740442
O19   O     O_3   0.971850 0.308690 0.250010 -0.341962
O20   O     O_3   0.028150 0.691310 0.749990 -0.352722
C9    C     C_R   0.069982 0.188522 0.529418 -0.363368
C10   C     C_R   0.930003 0.811459 0.470550 -0.364553
C11   C     C_R   0.112590 0.219828 0.608611 0.557881
C12   C     C_R   0.887279 0.780159 0.391367 0.564702
C13   C     C_R   0.119576 0.158723 0.674676 0.580533
C14   C     C_R   0.880116 0.841274 0.325310 0.559654
C15   C     C_R   0.085348 0.065561 0.662136 0.422405
C16   C     C_R   0.914330 0.934440 0.337842 0.420059
C17   C     C_R   0.045042 0.030965 0.581533 -0.140390
C18   C     C_R   0.954836 0.969022 0.418438 -0.137379
C19   C     C_R   0.035352 0.094381 0.513993 -0.111333
C20   C     C_R   0.964611 0.905601 0.485975 -0.111148
C21   C     C_R   0.010988 0.936081 0.567134 -0.010520
C22   C     C_R   0.988982 0.063899 0.432835 -0.015219
H1    H     H_    0.063919 0.239399 0.480566 0.217339
H2    H     H_    0.936151 0.760580 0.519399 0.215519
C23   C     C_R   0.152039 0.001326 0.941921 0.759849
C24   C     C_R   0.847607 0.000182 0.056613 0.665238
C25   C     C_R   0.149963 0.065729 0.006785 -0.233042
C26   C     C_R   0.851016 0.935669 0.992279 -0.186061
C27   C     C_R   0.994227 0.066059 0.065061 -0.308838
C28   C     C_R   0.006087 0.935056 0.934008 -0.307394
C29   C     C_R   0.330783 0.493109 0.452936 0.598549
C30   C     C_R   0.669215 0.506886 0.547068 0.599758
C31   C     C_R   0.342247 0.556981 0.517518 0.568755
C32   C     C_R   0.657751 0.443014 0.482486 0.570232
C33   C     C_R   0.511614 0.564863 0.565751 -0.507336
C34   C     C_R   0.488384 0.435134 0.434252 -0.512982
C35   C     C_R   0.340197 0.439285 0.002355 -0.205599
C36   C     C_R   0.659871 0.560600 0.997585 -0.201887
C37   C     C_R   0.356365 0.505963 0.939243 0.706637
C38   C     C_R   0.643646 0.493952 0.060716 0.706444
C39   C     C_R   0.514048 0.566774 0.935815 -0.345912
C40   C     C_R   0.485971 0.433146 0.064142 -0.330749
F1    F     F_    0.841174 0.809990 0.247982 -0.576262
F2    F     F_    0.158320 0.190015 0.752019 -0.532532
F3    F     F_    0.221958 0.508594 0.877818 -0.606611
F4    F     F_    0.778026 0.491327 0.122154 -0.608426
F5    F     F_    0.145310 0.310393 0.621319 -0.563176
F6    F     F_    0.854568 0.689594 0.378662 -0.567535
F7    F     F_    0.088590 0.010939 0.730211 -0.633385
F8    F     F_    0.910770 0.989076 0.269767 -0.638903
F9    F     F_    0.299356 0.003489 0.885914 -0.552083
F10   F     F_    0.699291 0.997464 0.112188 -0.631683
C41   C     C_2   0.314152 0.131048 0.010684 0.536495
H3    H     H_    0.387023 0.145346 0.068460 0.045134
O21   O     O_2   0.374559 0.167995 0.947735 -0.452841
C42   C     C_2   0.692191 0.868081 0.992063 0.475722
H4    H     H_    0.670777 0.824186 0.045742 0.093314
O22   O     O_2   0.575079 0.866070 0.935693 -0.495624
F11   F     F_    0.165721 0.489811 0.407647 -0.534193
F12   F     F_    0.834276 0.510183 0.592357 -0.534207
F13   F     F_    0.187492 0.612464 0.531367 -0.588512
F14   F     F_    0.812504 0.387530 0.468638 -0.586502
C43   C     C_2   0.174702 0.374151 0.000174 0.716121
H5    H     H_    0.183675 0.308177 0.030591 -0.053911
O23   O     O_2   0.024971 0.393253 0.963948 -0.466006
C44   C     C_2   0.825556 0.625626 0.999716 0.656939
H6    H     H_    0.816943 0.691490 0.969124 -0.071482
O24   O     O_2   0.975138 0.606519 0.036054 -0.472069

loop_
_geom_bond_atom_site_label_1
_geom_bond_atom_site_label_2
_ccdc_geom_bond_type
C14   C16   A    
C43   H5    S    
C37   C39   A    
O13   V3    S    
O4    C2    A    
V1    O19   S    
C15   C17   A    
C41   H3    S    
O9    V1    S    
C11   C13   A    
O3    C1    A    
C2    C33   S    
C30   F12   S    
C31   C33   A    
O12   V4    S    
C23   C28   A    
C13   F2    S    
C18   C22   A    
C35   C37   A    
O7    C3    A    
C36   C38   A    
C35   C43   S    
C9    C11   A    
O5    C7    A    
C35   C40   A    
O7    V1    S    
O6    C8    A    
C37   F3    S    
C30   C32   A    
C23   C25   A    
C24   C26   A    
C23   F9    S    
O3    V1    S    
O14   V4    S    
C38   F4    S    
C16   C18   A    
C10   C12   A    
C1    O11   A    
C11   F5    S    
C2    O12   A    
C29   C34   A    
C17   C19   A    
C18   C20   A    
C32   F14   S    
C26   C28   A    
O11   V3    S    
C3    C40   S    
C41   O21   D    
O17   V3    S    
C8    C21   S    
C24   C27   A    
C9    C19   A    
C10   C20   A    
C42   O22   D    
O8    C4    A    
O8    V2    S    
O15   V3    S    
C25   C27   A    
C38   C40   A    
C6    C28   S    
C25   C41   S    
C24   F10   S    
C44   O24   D    
O10   V2    S    
O1    V3    S    
C7    C22   S    
O18   V4    S    
O15   C5    A    
C9    H1    S    
O16   C6    A    
O1    C3    A    
C29   F11   S    
C12   C14   A    
C1    C34   S    
C20   C21   A    
V2    O20   S    
C16   F8    S    
O16   V4    S    
C36   C39   A    
C42   H4    S    
O5    V1    S    
O17   C7    A    
O6    V2    S    
O10   C6    A    
O18   C8    A    
C30   C33   A    
O2    V4    S    
C29   C31   A    
V3    O19   S    
V4    O20   S    
C44   H6    S    
C36   C44   S    
C5    C27   S    
O9    C5    A    
O13   V1    S    
C4    C39   S    
C31   F13   S    
O14   V2    S    
C15   F7    S    
O2    C4    A    
C19   C22   A    
O4    V2    S    
C10   H2    S    
C14   F1    S    
C13   C15   A    
C43   O23   D    
C17   C21   A    
C26   C42   S    
C32   C34   A    
C12   F6    S    
