data_mof_unit_9495.cif
_audit_creation_date              2012-12-10T16:39:35-0500
_audit_creation_method            fapswitch 2.2
_symmetry_space_group_name_H-M    P1
_symmetry_Int_Tables_number       1
_space_group_crystal_system       triclinic
_cell_length_a                    16.852848
_cell_length_b                    16.884035
_cell_length_c                    16.990188
_cell_angle_alpha                 66.748125
_cell_angle_beta                  66.440076
_cell_angle_gamma                 66.515507
_cell_volume                      3901.69900691

loop_
_atom_site_label
_atom_site_type_symbol
_atom_type_description
_atom_site_fract_x
_atom_site_fract_y
_atom_site_fract_z
_atom_type_partial_charge
C1    C     C_R   0.332426 0.928412 0.460627 0.002772
C2    C     C_R   0.329930 0.458154 0.934371 0.000513
C3    C     C_R   0.552747 0.425539 0.956874 0.029069
C4    C     C_R   0.032990 0.446542 0.582623 0.018797
C5    C     C_R   0.041304 0.520316 0.400973 0.030753
C6    C     C_2   0.281361 0.903552 0.276617 1.076247
C7    C     C_2   0.690124 0.124181 0.706528 1.001440
C8    C     C_2   0.885621 0.296573 0.289394 1.066279
C9    C     C_2   0.946013 0.748245 0.747340 0.968423
C10   C     C_2   0.244400 0.250115 0.051108 1.008681
C11   C     C_2   0.703980 0.693561 0.120068 1.004673
C12   C     C_2   0.504893 0.873391 0.828268 0.959105
C13   C     C_R   0.061770 0.668373 0.541668 -0.032652
C14   C     C_2   0.616617 0.872016 0.238635 0.962686
C15   C     C_2   0.149233 0.753914 0.398864 0.976293
C16   C     C_2   0.860556 0.262846 0.611442 0.979326
C17   C     C_2   0.827503 0.496936 0.872733 0.981565
C18   C     C_2   0.245173 0.604634 0.844083 0.970695
C19   C     C_2   0.243213 0.842805 0.604893 0.947118
C20   C     C_2   0.744220 0.133877 0.395486 0.994769
C21   C     C_2   0.534169 0.207388 0.083593 0.973113
C22   C     C_2   0.388935 0.740962 0.113541 0.979263
C23   C     C_2   0.142125 0.471364 0.184708 0.951022
C24   C     C_R   0.959404 0.323434 0.456428 0.012434
C25   C     C_2   0.144474 0.388524 0.755065 0.956182
C26   C     C_R   0.464807 0.955377 0.461802 -0.045168
C27   C     C_R   0.554610 0.987894 0.551086 -0.044407
C28   C     C_R   0.013374 0.441938 0.449600 -0.037666
C29   C     C_R   0.047583 0.531514 0.537300 -0.033189
C30   C     C_R   0.464395 0.466558 0.949844 -0.038716
C31   C     C_R   0.555607 0.561069 0.971739 -0.040638
C32   C     C_R   0.964295 0.179207 0.437505 0.916794
C33   C     C_R   0.675068 0.039155 0.545621 0.031854
C34   C     C_R   0.031226 0.821315 0.564303 0.884834
C35   C     C_R   0.178495 0.436579 0.965773 0.956300
C36   C     C_R   0.823673 0.568631 0.020369 0.910165
C37   C     C_R   0.437068 0.964560 0.178740 0.915542
C38   C     C_R   0.569259 0.019324 0.823911 0.913928
C39   C     C_R   0.563020 0.820645 0.033936 0.927319
C40   C     C_R   0.432196 0.176609 0.978145 0.937435
C41   C     C_R   0.030605 0.564550 0.821826 0.949283
C42   C     C_R   0.976846 0.431837 0.177248 0.941820
C43   C     C_R   0.820359 0.035617 0.562884 0.907712
C44   C     C_R   0.010395 0.428659 0.312302 0.024332
C45   C     C_R   0.179436 0.961856 0.437778 0.898792
C46   C     C_R   0.418465 0.943439 0.415729 0.073166
C47   C     C_R   0.599536 0.004789 0.595350 0.083098
C48   C     C_R   0.993192 0.398718 0.406314 0.051040
C49   C     C_R   0.054346 0.580241 0.584372 0.070094
C50   C     C_R   0.415373 0.415514 0.950264 0.061460
C51   C     C_R   0.598400 0.604277 0.992205 0.077101
C52   C     C_R   0.279573 0.935906 0.408117 -0.146880
C53   C     C_R   0.721242 0.051441 0.593013 -0.170392
C54   C     C_R   0.976020 0.393706 0.271603 -0.125167
C55   C     C_R   0.057959 0.539459 0.673411 0.020337
C56   C     C_R   0.040700 0.596839 0.726111 -0.104793
C57   C     C_R   0.396113 0.270009 0.979404 -0.149530
C58   C     C_R   0.593008 0.723336 0.043926 -0.119932
C59   C     C_R   0.606516 0.019256 0.730055 -0.177590
C60   C     C_R   0.408290 0.941625 0.276919 -0.164909
C61   C     C_R   0.730241 0.605933 0.018351 -0.156051
C62   C     C_R   0.273877 0.401601 0.957247 -0.130680
C63   C     C_R   0.041433 0.724362 0.597412 -0.196065
C64   C     C_R   0.946808 0.277792 0.408444 -0.097995
C65   C     C_R   0.506798 0.933707 0.737412 -0.155248
C66   C     C_R   0.449510 0.320901 0.973284 0.001530
C67   C     C_R   0.553909 0.938377 0.289414 -0.162618
C68   C     C_R   0.089315 0.694934 0.446137 -0.157013
C69   C     C_R   0.940962 0.296642 0.551833 -0.112169
C70   C     C_R   0.741146 0.494990 0.945255 -0.162391
C71   C     C_R   0.300450 0.554920 0.908225 -0.179417
C72   C     C_R   0.306715 0.899274 0.556007 -0.087023
C73   C     C_R   0.701997 0.059581 0.450794 -0.196210
C74   C     C_R   0.531439 0.280829 0.998075 -0.095500
C75   C     C_R   0.452108 0.711768 0.032863 -0.026815
C76   C     C_R   0.063038 0.490800 0.263354 -0.112317
C77   C     C_R   0.547287 0.681450 0.022628 0.046813
C78   C     C_R   0.074645 0.443879 0.705810 -0.043657
C79   C     C_R   0.321985 0.931148 0.320487 -0.119401
C80   C     C_R   0.676026 0.059472 0.678369 -0.110298
C81   C     C_R   0.938481 0.322346 0.322783 -0.275609
C82   C     C_R   0.016093 0.689489 0.689870 -0.111257
C83   C     C_R   0.305529 0.308246 0.989599 -0.119024
C84   C     C_R   0.677042 0.676434 0.056572 -0.160688
C85   C     C_R   0.667226 0.027729 0.409756 0.038567
C86   C     C_R   0.355530 0.908152 0.602475 0.035620
C87   C     C_R   0.044377 0.402472 0.668856 0.058353
C88   C     C_R   0.570992 0.984715 0.689517 0.016563
C89   C     C_R   0.062622 0.547443 0.307151 0.037306
C90   C     C_R   0.417471 0.682754 0.988526 0.056765
C91   C     C_R   0.590521 0.333090 0.968541 0.012908
C92   C     C_R   0.592056 0.968918 0.328139 0.023359
C93   C     C_R   0.455417 0.926128 0.693172 0.037413
C94   C     C_R   0.340113 0.602141 0.928880 0.045657
C95   C     C_R   0.693888 0.439288 0.950505 0.029332
C96   C     C_R   0.981380 0.326874 0.589731 0.042414
C97   C     C_R   0.078713 0.648257 0.398443 0.046427
C98   C     C_R   0.708747 0.023380 0.321094 -0.166608
C99   C     C_R   0.460168 0.942845 0.325564 0.051930
C100  C     C_R   0.335438 0.877458 0.695943 -0.157820
C101  C     C_R   0.024983 0.319303 0.714392 -0.102368
C102  C     C_R   0.087082 0.627817 0.260085 -0.119652
C103  C     C_R   0.334095 0.728839 0.968958 -0.117882
C104  C     C_R   0.683297 0.295719 0.959991 -0.098859
C105  C     C_R   0.675907 0.987432 0.283984 -0.216742
C106  C     C_R   0.385239 0.884468 0.739703 -0.219403
C107  C     C_R   0.299175 0.691681 0.933795 -0.233022
C108  C     C_R   0.735398 0.349427 0.946333 -0.161628
C109  C     C_R   0.992680 0.282954 0.676079 -0.146728
C110  C     C_R   0.691887 0.569321 0.983180 0.045753
C111  C     C_R   0.094981 0.677240 0.304637 -0.184396
C112  C     C_R   0.547437 0.976552 0.415525 0.062839
C113  C     C_R   0.478536 0.954953 0.599566 0.055277
C114  C     C_R   0.009347 0.404959 0.540570 0.036439
C115  C     C_R   0.053177 0.568239 0.445970 0.052268
C116  C     C_R   0.423741 0.557111 0.947650 0.058764
C117  C     C_R   0.601199 0.475668 0.958712 0.058090
C118  C     C_R   0.589379 0.998039 0.458853 0.055966
C119  C     C_R   0.430783 0.942860 0.554298 0.038799
C120  C     C_R   0.466202 0.601297 0.967607 0.011841
H1    H     H_    0.366599 0.856138 0.810762 0.166510
H2    H     H_    0.297353 0.795783 0.976213 0.204130
H3    H     H_    0.097564 0.654736 0.188569 0.187071
H4    H     H_    0.028402 0.284409 0.782125 0.206742
H5    H     H_    0.203585 0.940801 0.195854 0.346130
H6    H     H_    0.639202 0.247496 0.726656 0.338505
H7    H     H_    0.996125 0.218069 0.221175 0.323209
H8    H     H_    0.813265 0.803833 0.799372 0.353286
H9    H     H_    0.168756 0.175579 0.064809 0.339403
H10   H     H_    0.783710 0.744960 0.136349 0.368112
H11   H     H_    0.374974 0.938399 0.882218 0.298628
H12   H     H_    0.714822 0.980344 0.218019 0.165705
H13   H     H_    0.666767 0.963346 0.127300 0.314569
H14   H     H_    0.231485 0.680947 0.478859 0.329586
H15   H     H_    0.771307 0.241679 0.735290 0.358367
H16   H     H_    0.902053 0.375123 0.929106 0.301556
H17   H     H_    0.139781 0.673759 0.925721 0.305175
H18   H     H_    0.210326 0.735919 0.615251 0.361565
H19   H     H_    0.860804 0.056203 0.332096 0.300462
H20   H     H_    0.605643 0.116396 0.166713 0.341055
H21   H     H_    0.258880 0.787592 0.182286 0.370264
H22   H     H_    0.256987 0.498373 0.096096 0.350926
H23   H     H_    0.113088 0.738548 0.263975 0.186253
H24   H     H_    0.206017 0.267847 0.826706 0.373137
H25   H     H_    0.978929 0.218813 0.713800 0.184843
H26   H     H_    0.806013 0.316855 0.940075 0.154026
H27   H     H_    0.237387 0.732369 0.916597 0.159635
H28   H     H_    0.282695 0.845257 0.737299 0.185874
H29   H     H_    0.769466 0.042870 0.280364 0.162383
H30   H     H_    0.715985 0.225444 0.962354 0.188412
O1    O     O_R   0.982940 0.138950 0.510160 -0.633320
O2    O     O_R   0.982940 0.510160 0.138950 -0.639644
O3    O     O_R   0.861050 0.017060 0.489840 -0.658536
O4    O     O_R   0.138950 0.982940 0.510160 -0.626997
O5    O     O_R   0.867700 0.025880 0.612340 -0.567479
O6    O     O_R   0.132300 0.974120 0.387660 -0.566481
O7    O     O_R   0.025880 0.612340 0.867700 -0.575666
O8    O     O_R   0.974120 0.387660 0.132300 -0.616561
O9    O     O_R   0.612340 0.867700 0.025880 -0.575341
O10   O     O_R   0.387660 0.132300 0.974120 -0.596895
O11   O     O_R   0.387660 0.974120 0.132300 -0.605487
O12   O     O_R   0.017060 0.861050 0.489840 -0.614058
O13   O     O_R   0.612340 0.025880 0.867700 -0.601157
O14   O     O_R   0.132300 0.387660 0.974120 -0.595097
O15   O     O_R   0.867700 0.612340 0.025880 -0.594932
O16   O     O_R   0.974120 0.132300 0.387660 -0.605151
O17   O     O_R   0.025880 0.867700 0.612340 -0.571779
O18   O     O_2   0.308707 0.825626 0.275406 -0.535968
O19   O     O_R   0.221353 0.967587 0.227995 -0.754904
O20   O     O_2   0.749466 0.100501 0.741903 -0.599428
O21   O     O_R   0.629690 0.210597 0.698325 -0.757720
O22   O     O_2   0.803870 0.329297 0.307569 -0.491159
O23   O     O_R   0.138950 0.510160 0.982940 -0.656968
O24   O     O_R   0.927974 0.239175 0.234216 -0.702546
O25   O     O_2   0.968165 0.783101 0.783220 -0.534783
O26   O     O_R   0.854724 0.763218 0.759312 -0.764889
O27   O     O_2   0.230111 0.230513 0.131953 -0.571284
O28   O     O_R   0.207561 0.214754 0.016288 -0.773046
O29   O     O_2   0.682550 0.653212 0.199394 -0.540138
O30   O     O_R   0.759522 0.749318 0.088458 -0.714851
O31   O     O_2   0.573817 0.815825 0.842193 -0.598519
O32   O     O_R   0.424887 0.882048 0.898345 -0.787049
O33   O     O_2   0.614821 0.793985 0.271588 -0.530201
O34   O     O_R   0.861050 0.489840 0.017060 -0.653187
O35   O     O_R   0.677647 0.896102 0.154771 -0.762423
O36   O     O_2   0.132958 0.819198 0.336312 -0.616227
O37   O     O_R   0.221180 0.738897 0.429369 -0.728319
O38   O     O_2   0.815774 0.248104 0.579990 -0.606135
O39   O     O_R   0.830178 0.257527 0.702535 -0.813893
O40   O     O_2   0.833333 0.566913 0.813659 -0.561578
O41   O     O_R   0.901347 0.420262 0.868515 -0.785822
O42   O     O_2   0.270570 0.584406 0.774638 -0.546849
O43   O     O_R   0.164563 0.672800 0.861005 -0.726623
O44   O     O_2   0.178301 0.861066 0.668023 -0.586481
O45   O     O_R   0.510160 0.982940 0.138950 -0.646152
O46   O     O_R   0.257160 0.769702 0.576744 -0.755181
O47   O     O_2   0.704996 0.207868 0.408405 -0.503719
O48   O     O_R   0.827401 0.121579 0.329858 -0.721070
O49   O     O_2   0.464094 0.191478 0.137524 -0.605119
O50   O     O_R   0.615436 0.159304 0.104732 -0.840106
O51   O     O_2   0.416074 0.719464 0.177959 -0.560125
O52   O     O_R   0.297637 0.785052 0.119614 -0.833149
O53   O     O_2   0.161806 0.402171 0.165228 -0.617694
O54   O     O_R   0.200029 0.525959 0.138998 -0.821676
O55   O     O_2   0.195009 0.423635 0.756035 -0.609711
O56   O     O_R   0.489840 0.017060 0.861050 -0.635611
O57   O     O_R   0.155871 0.296575 0.796858 -0.818508
O58   O     O_R   0.489840 0.861050 0.017060 -0.593577
O59   O     O_R   0.510160 0.138950 0.982940 -0.642485
O60   O     O_R   0.017060 0.489840 0.861050 -0.615040
Zn1   Zn    Zn3+2 0.004880 0.004880 0.583590 1.112192
Zn2   Zn    Zn3+2 0.995120 0.995120 0.416410 1.067347
Zn3   Zn    Zn3+2 0.004880 0.583590 0.004880 1.050914
Zn4   Zn    Zn3+2 0.995120 0.416410 0.995120 1.047320
Zn5   Zn    Zn3+2 0.583590 0.004880 0.004880 1.066447
Zn6   Zn    Zn3+2 0.416410 0.995120 0.995120 1.058320

loop_
_geom_bond_atom_site_label_1
_geom_bond_atom_site_label_2
_ccdc_geom_bond_type
C78   C87   A    
C44   C48   A    
C62   C83   A    
C60   C79   A    
C32   O16   A    
C89   C102  A    
O6    Zn2   S    
C23   C76   S    
C46   C99   A    
C69   C96   A    
C2    C50   A    
C14   O33   D    
C19   C72   S    
H19   O48   S    
C41   C56   S    
C71   C94   A    
C30   C116  A    
C95   C117  A    
C18   O42   D    
O59   Zn5   S    
C98   C105  A    
O1    Zn1   S    
C37   O45   A    
C11   C84   S    
C4    C114  A    
C7    O21   S    
C97   C111  A    
H11   O32   S    
C8    O24   S    
C1    C46   A    
C27   C47   A    
O10   Zn6   S    
C10   C83   S    
C28   C114  A    
C9    O26   S    
C3    C91   A    
C104  H30   S    
C44   C76   A    
C59   C88   A    
H15   O39   S    
C85   C98   A    
C70   C110  A    
C58   C77   A    
O16   Zn2   S    
C113  C119  A    
O13   Zn5   S    
C43   C53   S    
C31   C117  A    
O15   Zn3   S    
C6    O19   S    
C14   C67   S    
C57   C83   A    
C86   C119  A    
C36   O34   A    
C97   C115  A    
C52   C79   A    
H5    O19   S    
C116  C120  A    
C91   C104  A    
O45   Zn5   S    
C4    C29   A    
C75   C90   A    
C67   C99   A    
C9    C82   S    
H24   O57   S    
C60   C99   A    
H7    O24   S    
C65   C93   A    
C29   C115  A    
C101  C109  A    
C19   O46   S    
C24   C64   A    
C87   C101  A    
C5    C115  A    
C18   O43   S    
C96   C114  A    
C102  C111  A    
C42   O8    A    
C22   C75   S    
C21   O49   D    
C43   O5    A    
C61   C110  A    
C24   C69   A    
C105  H12   S    
C108  H26   S    
C33   C53   A    
C31   C120  A    
C15   O36   D    
C12   O32   S    
C94   C107  A    
H8    O26   S    
C1    C72   A    
O9    Zn5   S    
C22   O52   S    
C63   C82   A    
C8    C81   S    
C101  H4    S    
C53   C80   A    
C26   C119  A    
C32   C64   S    
C16   O38   D    
C4    C87   A    
C14   O35   S    
C94   C116  A    
C92   C112  A    
C29   C49   A    
H16   O41   S    
C45   C52   S    
O14   Zn4   S    
C49   C55   A    
C39   C58   S    
C15   O37   S    
C40   O59   A    
C17   O41   S    
C25   C78   S    
C23   O53   D    
C10   O28   S    
C74   C91   A    
C3    C30   A    
O23   Zn3   S    
C51   C77   A    
H17   O43   S    
O4    Zn1   S    
C58   C84   A    
C93   C106  A    
C5    C28   A    
C107  H27   S    
C24   C48   A    
O34   Zn4   S    
C12   O31   D    
C13   C63   A    
C34   C63   S    
C73   C85   A    
C39   O58   A    
C55   C56   A    
C68   C97   A    
C45   O6    A    
C93   C113  A    
C2    C71   A    
H21   O52   S    
C75   C77   A    
C20   O48   S    
C96   C109  A    
H10   O30   S    
C41   O7    A    
C41   O60   A    
C27   C113  A    
C33   C73   A    
C38   O13   A    
O11   Zn6   S    
C90   C120  A    
C51   C110  A    
H18   O46   S    
C33   C47   A    
C13   C49   A    
C11   O29   D    
C21   O50   S    
C102  H3    S    
C26   C112  A    
C64   C81   A    
C104  C108  A    
C86   C100  A    
C20   O47   D    
C65   C88   A    
C37   O11   A    
C12   C65   S    
C27   C118  A    
O56   Zn6   S    
C18   C71   S    
C55   C78   A    
C6    O18   D    
C28   C48   A    
C40   C57   S    
C38   O56   A    
C22   O51   D    
C39   O9    A    
C10   O27   D    
C100  C106  A    
H14   O37   S    
C40   O10   A    
C109  H25   S    
C16   C69   S    
C31   C51   A    
C34   O12   A    
C61   C84   A    
C59   C80   A    
O3    Zn2   S    
C72   C86   A    
C50   C66   A    
C56   C82   A    
C36   C61   S    
C45   O4    A    
H13   O35   S    
C17   O40   D    
O8    Zn4   S    
H9    O28   S    
C76   C89   A    
C35   O23   A    
O7    Zn3   S    
C35   O14   A    
C23   O54   S    
C47   C88   A    
O5    Zn1   S    
C70   C95   A    
H20   O50   S    
O17   Zn1   S    
C25   O57   S    
C57   C66   A    
O60   Zn4   S    
C42   C54   S    
C112  C118  A    
C30   C50   A    
C111  H23   S    
C6    C79   S    
C32   O1    A    
O12   Zn2   S    
C100  H28   S    
C15   C68   S    
C21   C74   S    
C106  H1    S    
C36   O15   A    
C20   C73   S    
C9    O25   D    
C35   C62   S    
O2    Zn3   S    
C85   C118  A    
C1    C52   A    
C90   C103  A    
C37   C60   S    
C95   C108  A    
C26   C46   A    
C38   C59   S    
C44   C54   A    
C92   C105  A    
C17   C70   S    
H6    O21   S    
C25   O55   D    
C19   O44   D    
O58   Zn6   S    
C7    O20   D    
C34   O17   A    
C7    C80   S    
C103  C107  A    
C11   O30   S    
C3    C117  A    
C67   C92   A    
C43   O3    A    
C103  H2    S    
C2    C62   A    
C16   O39   S    
C13   C68   A    
C54   C81   A    
C5    C89   A    
C8    O22   D    
H22   O54   S    
C42   O2    A    
C98   H29   S    
C66   C74   A    
