data_mof_unit_31888.cif
_audit_creation_date              2012-12-10T20:28:39-0500
_audit_creation_method            fapswitch 2.2
_symmetry_space_group_name_H-M    P1
_symmetry_Int_Tables_number       1
_space_group_crystal_system       triclinic
_cell_length_a                    10.757122
_cell_length_b                    10.766213
_cell_length_c                    9.985657
_cell_angle_alpha                 89.766555
_cell_angle_beta                  88.281146
_cell_angle_gamma                 89.713802
_cell_volume                      1155.92986105

loop_
_atom_site_label
_atom_site_type_symbol
_atom_type_description
_atom_site_fract_x
_atom_site_fract_y
_atom_site_fract_z
_atom_type_partial_charge
C1    C     C_R   0.501638 0.260495 0.499908 0.882764
C2    C     C_R   0.051070 0.500324 0.621657 0.115267
C3    C     C_R   0.123603 0.492496 0.501917 -0.088433
C4    C     C_R   0.065238 0.504659 0.378371 -0.202199
C5    C     C_R   0.938131 0.521314 0.375561 -0.145707
C6    C     C_R   0.870568 0.538789 0.495203 -0.165577
C7    C     C_R   0.402735 0.064377 0.552544 0.003373
C8    C     C_R   0.504488 0.127835 0.497363 -0.147456
C9    C     C_R   0.603109 0.062433 0.432881 -0.006747
C10   C     C_R   0.598235 0.932687 0.431101 -0.202536
C11   C     C_R   0.500320 0.870889 0.497309 -0.083216
C12   C     C_R   0.259160 0.493291 0.501525 0.863811
C13   C     C_R   0.401002 0.936430 0.555176 -0.101358
C14   C     C_3   0.352443 0.932646 0.699288 0.864444
C15   C     C_3   0.351879 0.074859 0.692041 -0.316461
C16   C     C_R   0.472067 0.395229 0.073438 0.231740
C17   C     C_R   0.538314 0.600323 0.069797 -0.153889
C18   C     C_R   0.537700 0.600474 0.926853 -0.097415
C19   C     C_R   0.470206 0.395563 0.931176 0.177431
C20   C     C_3   0.344702 0.338960 0.939480 -0.659247
C21   C     C_3   0.352186 0.331150 0.089534 0.300110
C22   C     C_R   0.500087 0.739203 0.499653 0.845025
C23   C     C_R   0.738445 0.514963 0.498204 0.843804
C24   C     C_R   0.085405 0.449315 0.744343 -0.249296
C25   C     C_R   0.011533 0.470582 0.860542 0.002198
C26   C     C_R   0.917517 0.560868 0.857197 -0.072296
C27   C     C_R   0.879757 0.606349 0.733415 -0.034186
C28   C     C_R   0.932949 0.552791 0.615746 -0.021524
H1    H     H_    0.116727 0.498836 0.283807 0.184524
H2    H     H_    0.420797 0.119869 0.754703 0.129671
H3    H     H_    0.567847 0.682144 0.121681 0.161909
H4    H     H_    0.565198 0.682910 0.872706 0.226090
H5    H     H_    0.275576 0.408831 0.910102 0.173470
H6    H     H_    0.339260 0.247759 0.892538 0.196222
H7    H     H_    0.280991 0.387807 0.144927 0.096359
H8    H     H_    0.160452 0.383357 0.745392 0.189740
H9    H     H_    0.869480 0.590158 0.948757 0.195623
H10   H     H_    0.892252 0.520318 0.280934 0.229945
H11   H     H_    0.673563 0.879238 0.384784 0.177372
N1    N     N_R   0.499160 0.499140 0.142800 -0.148125
N2    N     N_R   0.499160 0.499180 0.857150 -0.112780
O1    O     O_R   0.500020 0.316790 0.614690 -0.608293
O2    O     O_R   0.500000 0.316760 0.385350 -0.596852
O3    O     O_R   0.316770 0.500020 0.614690 -0.609468
O4    O     O_R   0.316760 0.499980 0.385350 -0.644839
O5    O     O_R   0.500000 0.683240 0.614650 -0.587106
O6    O     O_R   0.499980 0.683210 0.385310 -0.636809
O7    O     O_R   0.683240 0.500020 0.614650 -0.618379
O8    O     O_R   0.683230 0.499980 0.385310 -0.617913
Zn1   Zn    Zn3+2 0.500010 0.500020 0.653130 0.980840
Zn2   Zn    Zn3+2 0.499990 0.499980 0.346870 0.956894
O9    O     O_3   0.444174 0.882386 0.783170 -0.638613
C29   C     C_3   0.427733 0.919185 0.918547 0.078660
H12   H     H_    0.421380 0.833795 0.980831 0.169936
H13   H     H_    0.340460 0.972513 0.940215 0.119217
C30   C     C_3   0.540373 0.996474 0.958165 -0.370213
H14   H     H_    0.623625 0.970424 0.895740 0.285334
H15   H     H_    0.521729 0.096499 0.940667 0.219014
C31   C     C_3   0.571364 0.979788 0.104517 -0.792532
H16   H     H_    0.486870 0.987822 0.170316 0.268353
H17   H     H_    0.637737 0.053189 0.131228 0.297142
H18   H     H_    0.616103 0.888281 0.120542 0.250713
C32   C     C_2   0.224262 0.133577 0.702178 0.376122
H19   H     H_    0.170117 0.125873 0.795243 0.079675
O10   O     O_2   0.180955 0.190276 0.608277 -0.623576
O11   O     O_3   0.371229 0.209163 0.137677 -0.612780
C33   C     C_3   0.255905 0.148890 0.157003 0.042823
H20   H     H_    0.272757 0.047140 0.155321 0.144420
H21   H     H_    0.191959 0.166838 0.073941 0.133338
C34   C     C_3   0.196964 0.181208 0.293748 -0.348417
H22   H     H_    0.243660 0.124917 0.369782 0.241104
H23   H     H_    0.210746 0.279753 0.319953 0.243862
C35   C     C_3   0.058406 0.154443 0.298388 -0.789831
H24   H     H_    0.008493 0.224185 0.237991 0.299916
H25   H     H_    0.021695 0.159034 0.403340 0.300457
H26   H     H_    0.041097 0.061054 0.256917 0.268836
C36   C     C_2   0.026968 0.392898 0.980167 0.355187
H27   H     H_    0.091294 0.316076 0.976721 0.052167
O12   O     O_2   0.962851 0.409313 0.081154 -0.625752
C37   C     C_2   0.795433 0.715317 0.726477 0.421386
H28   H     H_    0.757886 0.744245 0.631636 0.056654
O13   O     O_2   0.772287 0.778094 0.825714 -0.607998
C38   C     C_2   0.714886 0.126804 0.376937 0.388409
H29   H     H_    0.726044 0.226222 0.388086 0.092822
O14   O     O_2   0.796949 0.068652 0.317686 -0.615271
O15   O     O_3   0.231992 0.882308 0.730241 -0.680077
C39   C     C_3   0.178291 0.813378 0.626731 0.078001
H30   H     H_    0.114545 0.745417 0.675753 0.188989
H31   H     H_    0.247187 0.757988 0.567100 0.124917
C40   C     C_3   0.101174 0.898742 0.537897 -0.368830
H32   H     H_    0.035576 0.954734 0.601422 0.260844
H33   H     H_    0.163659 0.962443 0.481826 0.237872
C41   C     C_3   0.027571 0.826260 0.437055 -0.929214
H34   H     H_    0.090356 0.766118 0.375111 0.269786
H35   H     H_    0.977964 0.890655 0.370375 0.296507
H36   H     H_    0.956098 0.770444 0.490294 0.260122

loop_
_geom_bond_atom_site_label_1
_geom_bond_atom_site_label_2
_ccdc_geom_bond_type
C39   H30   S    
C32   O10   D    
C41   H34   S    
C21   O11   S    
C1    C8    S    
C35   H24   S    
C29   H13   S    
C19   C20   S    
C7    C8    A    
C29   H12   S    
C26   C27   A    
C24   H8    S    
C40   C41   S    
C25   C36   S    
C5    C6    A    
C23   O8    A    
O4    Zn2   S    
C30   H14   S    
C3    C12   S    
C1    O2    A    
C6    C28   A    
C8    C9    A    
O8    Zn2   S    
C34   H22   S    
C9    C10   A    
C16   N1    A    
C4    H1    S    
C20   H6    S    
O7    Zn1   S    
C22   O6    A    
C31   H16   S    
C41   H35   S    
C13   C14   S    
C35   H25   S    
C36   O12   D    
C14   O9    S    
C31   H17   S    
C33   H20   S    
C24   C25   A    
C14   O15   S    
C37   O13   D    
C27   C37   S    
C18   N2    A    
C12   O4    A    
O15   C39   S    
C4    C5    A    
O6    Zn2   S    
C25   C26   A    
C36   H27   S    
C16   C21   S    
C10   H11   S    
C33   H21   S    
C17   N1    A    
C40   H33   S    
C38   H29   S    
C34   C35   S    
C17   C18   A    
O1    Zn1   S    
C20   H5    S    
C38   O14   D    
C9    C38   S    
C41   H36   S    
C39   H31   S    
C2    C24   A    
C17   H3    S    
C35   H26   S    
C18   H4    S    
C3    C4    A    
N2    Zn1   S    
O9    C29   S    
C15   H2    S    
C29   C30   S    
O3    Zn1   S    
C31   H18   S    
C23   O7    A    
C22   O5    A    
C37   H28   S    
C2    C28   A    
C26   H9    S    
C21   H7    S    
N1    Zn2   S    
O5    Zn1   S    
C11   C22   S    
C30   C31   S    
C33   C34   S    
C2    C3    A    
C12   O3    A    
C11   C13   A    
O2    Zn2   S    
C40   H32   S    
C16   C19   A    
C6    C23   S    
C7    C15   S    
C30   H15   S    
O11   C33   S    
C10   C11   A    
C32   H19   S    
C1    O1    A    
C7    C13   A    
C20   C21   S    
C39   C40   S    
C27   C28   A    
C15   C32   S    
C14   C15   S    
C34   H23   S    
C5    H10   S    
C19   N2    A    
