data_mof_unit_33269.cif
_audit_creation_date              2012-12-10T17:02:45-0500
_audit_creation_method            fapswitch 2.2
_symmetry_space_group_name_H-M    P1
_symmetry_Int_Tables_number       1
_space_group_crystal_system       triclinic
_cell_length_a                    18.718912
_cell_length_b                    19.285159
_cell_length_c                    18.78873
_cell_angle_alpha                 109.645971
_cell_angle_beta                  108.365869
_cell_angle_gamma                 108.866393
_cell_volume                      5317.43770146

loop_
_atom_site_label
_atom_site_type_symbol
_atom_type_description
_atom_site_fract_x
_atom_site_fract_y
_atom_site_fract_z
_atom_type_partial_charge
C1    C     C_R   0.385526 0.382881 0.506169 0.781356
C2    C     C_3   0.812763 0.501686 0.810247 -0.069805
C3    C     C_3   0.860580 0.581890 0.801716 -0.171205
C4    C     C_3   0.739477 0.502106 0.830444 0.424608
C5    C     C_R   0.385514 0.393634 0.669848 -0.131765
C6    C     C_R   0.403151 0.395751 0.748773 0.538915
C7    C     C_R   0.358033 0.327950 0.754070 -0.110243
C8    C     C_R   0.283619 0.261448 0.677516 -0.094494
C9    C     C_R   0.267742 0.254889 0.593152 0.060997
C10   C     C_R   0.326047 0.321517 0.590802 0.006294
C11   C     C_R   0.193424 0.188321 0.510998 -0.148742
C12   C     C_R   0.623603 0.502923 0.618070 0.902241
C13   C     C_R   0.188524 0.186101 0.431438 -0.020807
C14   C     C_R   0.245933 0.255423 0.432505 0.072513
C15   C     C_R   0.318353 0.319866 0.510820 -0.119963
C16   C     C_R   0.124549 0.116025 0.348601 -0.006202
C17   C     C_R   0.107933 0.124669 0.276031 -0.098380
C18   C     C_R   0.157739 0.195937 0.279241 -0.155683
C19   C     C_R   0.227658 0.260690 0.356131 -0.151932
C20   C     C_R   0.228495 0.511697 0.403761 -0.064853
C21   C     C_R   0.157544 0.518138 0.411257 -0.097725
C22   C     C_R   0.095042 0.515469 0.343356 -0.080386
C23   C     C_R   0.612666 0.618950 0.493195 0.933070
C24   C     C_R   0.107024 0.512125 0.272245 -0.118043
C25   C     C_R   0.177070 0.505670 0.261735 0.052556
C26   C     C_R   0.240452 0.505433 0.328127 -0.007366
C27   C     C_R   0.183946 0.500902 0.185977 -0.124296
C28   C     C_R   0.256163 0.499246 0.176824 0.054863
C29   C     C_R   0.321248 0.502381 0.242949 0.096450
C30   C     C_R   0.312888 0.502288 0.316535 -0.138923
C31   C     C_R   0.264487 0.493896 0.101794 -0.110914
C32   C     C_R   0.336825 0.494857 0.093723 0.026404
C33   C     C_R   0.402042 0.501937 0.160881 -0.212932
C34   C     C_R   0.381865 0.501690 0.381503 0.730456
C35   C     C_R   0.395158 0.506676 0.234263 -0.112182
C36   C     C_R   0.598335 0.768768 0.492877 0.606958
C37   C     C_R   0.590407 0.838431 0.497198 -0.259955
C38   C     C_R   0.650009 0.902680 0.497956 -0.079967
C39   C     C_R   0.723348 0.898144 0.498211 -0.028488
C40   C     C_R   0.737535 0.828193 0.498183 -0.054849
C41   C     C_R   0.672019 0.761520 0.495093 -0.076434
C42   C     C_R   0.812612 0.822263 0.501218 -0.019385
C43   C     C_R   0.821032 0.752015 0.499476 -0.098555
C44   C     C_R   0.761610 0.693502 0.508928 -0.101557
C45   C     C_3   0.700162 0.413204 0.646145 -0.080634
C46   C     C_R   0.681906 0.690989 0.496827 -0.104942
C47   C     C_R   0.888312 0.739102 0.488069 -0.368521
C48   C     C_R   0.898872 0.673771 0.492578 0.512216
C49   C     C_R   0.844388 0.620872 0.508066 0.553995
C50   C     C_R   0.783744 0.638284 0.524673 0.402379
C51   C     C_R   0.999218 0.383572 0.878677 0.790612
C52   C     C_R   0.878666 0.500377 0.878725 0.816920
C53   C     C_R   0.996225 0.617115 0.115654 0.753082
C54   C     C_R   0.116451 0.499637 0.116549 0.706545
C55   C     C_R   0.003969 0.883776 0.381730 0.715996
C56   C     C_3   0.768942 0.417483 0.723409 -0.605110
C57   C     C_R   0.119029 0.121388 0.504787 0.820520
C58   C     C_R   0.995811 0.115814 0.617170 0.856908
C59   C     C_R   0.881478 0.888019 0.505255 0.712680
C60   C     C_R   0.015471 0.398811 0.727896 0.602377
C61   C     C_R   0.006512 0.396841 0.651082 -0.158677
C62   C     C_R   0.001166 0.330042 0.588299 -0.227060
C63   C     C_R   0.002540 0.263710 0.600879 -0.086324
C64   C     C_R   0.001620 0.258497 0.674222 0.045891
C65   C     C_R   0.007496 0.327695 0.740188 -0.061523
C66   C     C_R   0.997547 0.186616 0.683161 -0.022919
C67   C     C_3   0.788242 0.580068 0.726071 -0.079552
C68   C     C_R   0.999156 0.184020 0.757849 0.083127
C69   C     C_R   0.010517 0.253902 0.825744 -0.011230
C70   C     C_R   0.007099 0.321985 0.814381 -0.123400
C71   C     C_R   0.989148 0.112180 0.766710 -0.217859
C72   C     C_R   0.002778 0.113457 0.844161 -0.194375
C73   C     C_R   0.024386 0.185552 0.913993 0.675838
C74   C     C_R   0.027771 0.254892 0.905023 -0.227224
C75   C     C_R   0.155557 0.746217 0.265828 -0.122028
C76   C     C_R   0.235980 0.813748 0.332246 -0.048988
C77   C     C_R   0.238117 0.880880 0.394640 -0.056971
C78   C     C_3   0.676693 0.512591 0.763861 -0.242489
C79   C     C_R   0.159987 0.878642 0.387363 -0.135390
C80   C     C_R   0.078546 0.812108 0.320049 0.054052
C81   C     C_R   0.076792 0.746054 0.256633 0.042146
C82   C     C_R   0.000536 0.811749 0.315234 -0.140456
C83   C     C_R   0.919750 0.742607 0.246342 0.021119
C84   C     C_R   0.919305 0.679426 0.179810 0.069468
C85   C     C_R   0.997100 0.681189 0.185461 -0.127614
C86   C     C_R   0.838718 0.733251 0.239955 -0.004848
C87   C     C_R   0.762509 0.669599 0.166991 -0.128476
C88   C     C_R   0.763430 0.610873 0.101437 -0.100194
C89   C     C_3   0.695321 0.501381 0.685041 -0.075035
C90   C     C_R   0.840282 0.615440 0.107550 -0.046190
Cu1   Cu    Cu3+1 0.500360 0.438220 0.438540 1.079766
Cu2   Cu    Cu3+1 0.499640 0.561780 0.561460 1.134861
Cu3   Cu    Cu3+1 0.935530 0.438290 0.997340 1.024482
Cu4   Cu    Cu3+1 0.059130 0.561800 0.997250 1.128463
Cu5   Cu    Cu3+1 0.937870 0.000030 0.437890 1.054368
Cu6   Cu    Cu3+1 0.062130 0.000000 0.562130 0.994918
H1    H     H_    0.143698 0.200615 0.221290 0.183236
H2    H     H_    0.420641 0.451663 0.672632 0.203506
H3    H     H_    0.056168 0.072877 0.214627 0.191455
H4    H     H_    0.265981 0.316361 0.355396 0.134043
H5    H     H_    0.459646 0.504030 0.157283 0.139296
H6    H     H_    0.060515 0.517249 0.225770 0.194071
H7    H     H_    0.213878 0.484971 0.046827 0.173338
H8    H     H_    0.450734 0.515861 0.284627 0.156407
H9    H     H_    0.740615 0.362706 0.733153 0.226633
H10   H     H_    0.533802 0.841272 0.497763 0.169598
H11   H     H_    0.930559 0.774930 0.470767 0.215358
H12   H     H_    0.010535 0.450329 0.641664 0.192534
H13   H     H_    0.818986 0.406515 0.709502 0.141670
H14   H     H_    0.000056 0.331428 0.530535 0.180758
H15   H     H_    0.006326 0.218623 0.551480 0.193386
H16   H     H_    0.972233 0.053890 0.714311 0.166309
H17   H     H_    0.997456 0.058338 0.850438 0.176052
H18   H     H_    0.045246 0.310183 0.961413 0.159564
H19   H     H_    0.703511 0.560423 0.045348 0.175698
H20   H     H_    0.156216 0.693045 0.222608 0.186875
H21   H     H_    0.165172 0.932577 0.435183 0.192008
H22   H     H_    0.701141 0.663108 0.162010 0.174351
H23   H     H_    0.835688 0.568090 0.053328 0.203435
H24   H     H_    0.690673 0.578689 0.798370 0.233687
H25   H     H_    0.703177 0.440442 0.826065 0.141258
O1    O     O_R   0.410140 0.357660 0.448100 -0.579321
O2    O     O_R   0.049980 0.462000 0.907580 -0.487718
O3    O     O_R   0.854480 0.447890 0.906670 -0.593336
O4    O     O_R   0.958860 0.552200 0.906600 -0.554724
O5    O     O_R   0.944670 0.538090 0.087010 -0.587218
O6    O     O_R   0.049050 0.642400 0.086940 -0.576972
O7    O     O_R   0.035800 0.447890 0.088000 -0.585104
O8    O     O_R   0.140170 0.552200 0.087920 -0.566395
O9    O     O_R   0.948030 0.909890 0.357850 -0.513815
O10   O     O_R   0.052970 0.909860 0.462770 -0.591154
O11   O     O_R   0.037700 0.090200 0.447550 -0.574466
O12   O     O_R   0.409530 0.462000 0.551910 -0.597240
O13   O     O_R   0.142640 0.090170 0.552470 -0.599445
O14   O     O_R   0.947030 0.090160 0.537260 -0.618790
O15   O     O_R   0.051970 0.090130 0.642170 -0.583700
O16   O     O_R   0.857360 0.909860 0.447560 -0.599685
O17   O     O_R   0.962300 0.909830 0.552480 -0.584758
O18   O     O_R   0.590960 0.447830 0.538760 -0.540581
O19   O     O_R   0.590350 0.552170 0.642570 -0.583402
O20   O     O_R   0.590470 0.538000 0.448090 -0.537293
O21   O     O_R   0.589860 0.642340 0.551900 -0.520582
O22   O     O_R   0.409650 0.447830 0.357430 -0.616866
O23   O     O_R   0.409040 0.552170 0.461240 -0.526743
O24   O     O_R   0.945600 0.357690 0.907660 -0.589233
C91   C     C_2   0.726921 0.393575 0.575220 0.486776
H26   H     H_    0.794684 0.417039 0.594416 0.132693
O25   O     O_2   0.677234 0.344154 0.497961 -0.511405
F1    F     F_    0.766664 0.560425 0.913552 -0.662104
C92   C     C_2   0.792539 0.667087 0.747193 0.362684
H27   H     H_    0.801986 0.696574 0.706763 0.118421
O26   O     O_2   0.784956 0.707374 0.807456 -0.482023
C93   C     C_2   0.905207 0.664463 0.886119 0.531277
H28   H     H_    0.970715 0.710955 0.912295 0.107066
O27   O     O_2   0.868255 0.683901 0.925650 -0.427873
F2    F     F_    0.457716 0.469237 0.822714 -0.689367
C94   C     C_2   0.379834 0.337080 0.842227 0.397603
H29   H     H_    0.442786 0.385369 0.894738 0.130771
O28   O     O_2   0.329344 0.294571 0.857689 -0.583283
C95   C     C_2   0.214667 0.216009 0.690317 0.528922
H30   H     H_    0.219940 0.181989 0.724619 0.136976
O29   O     O_2   0.146858 0.217344 0.658446 -0.599936
C96   C     C_2   0.079086 0.030127 0.333955 0.435599
H31   H     H_    0.110521 0.012098 0.378556 0.007233
O30   O     O_2   0.005050 0.982477 0.276672 -0.503142
C97   C     C_2   0.614711 0.332978 0.606927 0.493583
H32   H     H_    0.576613 0.294308 0.537598 0.133272
O31   O     O_2   0.585842 0.306909 0.648084 -0.512639
C98   C     C_2   0.283891 0.507729 0.476068 0.573345
H33   H     H_    0.295842 0.456396 0.462187 0.006302
O32   O     O_2   0.329909 0.568866 0.548827 -0.432779
C99   C     C_2   0.146869 0.527878 0.490654 0.379750
H34   H     H_    0.092170 0.530534 0.495208 0.078817
O33   O     O_2   0.197118 0.533361 0.555049 -0.474595
C100  C     C_2   0.015694 0.517817 0.344927 0.413479
H35   H     H_    0.003498 0.526029 0.399241 0.125259
O34   O     O_2   0.960696 0.511802 0.283518 -0.504378
C101  C     C_2   0.344986 0.489596 0.016816 0.414477
H36   H     H_    0.389307 0.472338 0.000473 0.094127
O35   O     O_2   0.308169 0.513019 0.970980 -0.481063
F3    F     F_    0.842974 0.545804 0.484828 -0.554417
F4    F     F_    0.528783 0.708374 0.484015 -0.663500
C102  C     C_2   0.634099 0.975892 0.504616 0.472207
H37   H     H_    0.593860 0.988460 0.531691 0.060298
O36   O     O_2   0.665142 0.026645 0.482303 -0.497271
C103  C     C_2   0.783396 0.976615 0.511852 0.429638
H38   H     H_    0.795840 0.987304 0.463026 0.166119
O37   O     O_2   0.808993 0.040432 0.576963 -0.554422
F5    F     F_    0.960850 0.658923 0.477019 -0.611836
F6    F     F_    0.737095 0.596010 0.550577 -0.668897
F7    F     F_    0.042984 0.188236 0.991328 -0.655127
F8    F     F_    0.035578 0.474159 0.788559 -0.636692
C104  C     C_2   0.317088 0.813158 0.335602 0.383268
H39   H     H_    0.380089 0.862786 0.386311 0.046645
O38   O     O_2   0.315796 0.756600 0.280587 -0.511485
C105  C     C_2   0.321266 0.954346 0.468730 0.377085
H40   H     H_    0.381997 0.958091 0.476592 0.055640
O39   O     O_2   0.323696 0.013075 0.524213 -0.514641
C106  C     C_2   0.820589 0.583531 0.664088 0.068795
H41   H     H_    0.860403 0.582167 0.631924 0.382777
O40   O     O_2   0.825509 0.541293 0.599125 -0.634127
C107  C     C_2   0.827329 0.780550 0.309927 0.477635
H42   H     H_    0.869843 0.796397 0.373400 0.024716
O41   O     O_2   0.775235 0.806452 0.295897 -0.501367
C108  C     C_2   0.936780 0.576401 0.783217 0.384460
H43   H     H_    0.923725 0.520376 0.729728 0.125002
O42   O     O_2   0.011142 0.632161 0.825635 -0.497775
C109  C     C_2   0.584242 0.465331 0.741497 0.335711
H44   H     H_    0.566848 0.485409 0.791197 0.172098
O43   O     O_2   0.530582 0.407694 0.669460 -0.556720

loop_
_geom_bond_atom_site_label_1
_geom_bond_atom_site_label_2
_ccdc_geom_bond_type
C8    C9    A    
C66   C68   A    
C87   C88   A    
Cu3   Cu4   S    
C109  O43   D    
C51   O2    A    
C73   C74   A    
C57   O11   A    
C2    C4    S    
Cu5   Cu6   S    
Cu3   O3    S    
C3    C93   S    
C102  H37   S    
C28   C29   A    
C22   C100  S    
C27   C54   S    
C7    C8    A    
C100  O34   D    
Cu4   O6    S    
C4    F1    S    
C34   O23   A    
C94   H29   S    
C107  O41   D    
C33   H5    S    
C36   C37   A    
C96   O30   D    
C77   C105  S    
C67   C106  S    
C10   C15   A    
C102  O36   D    
Cu6   O17   S    
C5    C6    A    
C5    H2    S    
C11   C13   A    
C16   C17   A    
C51   O24   A    
C65   C70   A    
C74   H18   S    
C67   C89   S    
C18   C19   A    
C98   H33   S    
C49   C50   A    
C61   H12   S    
C1    O1    A    
C53   O6    A    
Cu3   O5    S    
C39   C103  S    
C58   C66   S    
Cu2   O12   S    
C45   C56   S    
C99   O33   D    
C109  H44   S    
C104  O38   D    
Cu1   O1    S    
Cu5   O9    S    
C41   C46   A    
C12   O19   A    
C23   O21   A    
Cu3   O24   S    
C1    C15   S    
C51   C70   S    
C12   O18   A    
C93   O27   D    
Cu2   O21   S    
C45   C97   S    
C86   C107  S    
Cu1   O22   S    
C81   C85   A    
C72   C73   A    
Cu4   O2    S    
C40   C42   A    
C20   C98   S    
Cu1   O18   S    
C106  H41   S    
C78   C89   S    
C23   C46   S    
C13   C14   A    
C67   C92   S    
C97   O31   D    
C98   O32   D    
C32   C101  S    
C36   C41   A    
C61   C62   A    
C84   C90   A    
C1    O12   A    
C5    C10   A    
C44   C46   A    
C101  H36   S    
C91   O25   D    
C76   C77   A    
C108  O42   D    
C16   C96   S    
C34   O22   A    
Cu5   O16   S    
Cu4   O8    S    
C107  H42   S    
C30   C34   S    
Cu2   O23   S    
C45   C91   S    
C3    C108  S    
C47   C48   A    
C12   C89   S    
C84   C85   A    
C87   H22   S    
C105  O39   D    
C35   H8    S    
C76   C104  S    
Cu1   Cu2   S    
C86   C87   A    
C105  H40   S    
Cu6   O13   S    
C59   O17   A    
C58   O15   A    
C25   C26   A    
C108  H43   S    
C54   O7    A    
C72   H17   S    
C38   C102  S    
C79   C80   A    
C60   C61   A    
C95   O29   D    
C37   C38   A    
C78   H24   S    
C75   C76   A    
C4    C78   S    
C29   C30   A    
C24   H6    S    
C17   H3    S    
C83   C84   A    
C62   H14   S    
C60   F8    S    
C55   O9    A    
C71   H16   S    
C62   C63   A    
Cu5   O14   S    
C17   C18   A    
C77   C79   A    
C69   C74   A    
C11   C57   S    
C24   C25   A    
C55   C82   S    
C9    C11   A    
C48   F5    S    
C73   F7    S    
C2    C52   S    
Cu6   O10   S    
C49   F3    S    
C80   C82   A    
C40   C41   A    
C18   H1    S    
C88   C90   A    
C60   C65   A    
C82   C83   A    
C55   O10   A    
C28   C31   A    
C43   C44   A    
Cu5   O11   S    
C92   O26   D    
C57   O13   A    
C36   F4    S    
C42   C43   A    
C103  O37   D    
C8    C95   S    
C56   H13   S    
C39   C40   A    
C45   C89   S    
C99   H34   S    
C91   H26   S    
C9    C10   A    
Cu4   O4    S    
C44   C50   A    
C54   O8    A    
C48   C49   A    
C92   H27   S    
C14   C19   A    
C68   C69   A    
C31   C32   A    
C3    C67   S    
C80   C81   A    
Cu6   O15   S    
C42   C59   S    
C101  O35   D    
C52   O4    A    
C26   C30   A    
C6    C7    A    
C7    C94   S    
C75   C81   A    
C58   O14   A    
C25   C27   A    
C21   C99   S    
C29   C35   A    
C47   H11   S    
C31   H7    S    
C32   C33   A    
C88   H19   S    
C2    C3    S    
C103  H38   S    
Cu3   O7    S    
C37   H10   S    
C100  H35   S    
C2    C56   S    
C95   H30   S    
C19   H4    S    
C52   O3    A    
C38   C39   A    
C97   H32   S    
C20   C26   A    
C68   C71   A    
C79   H21   S    
C64   C65   A    
C33   C35   A    
C4    H25   S    
C22   C24   A    
C63   H15   S    
C69   C70   A    
C50   F6    S    
C90   H23   S    
C78   C109  S    
C56   H9    S    
C96   H31   S    
C53   O5    A    
C63   C64   A    
C71   C72   A    
C83   C86   A    
C20   C21   A    
C94   O28   D    
C104  H39   S    
C13   C16   A    
C27   C28   A    
C106  O40   D    
C59   O16   A    
C14   C15   A    
C23   O20   A    
C53   C85   S    
C75   H20   S    
C93   H28   S    
C21   C22   A    
C43   C47   A    
C6    F2    S    
C64   C66   A    
Cu1   O20   S    
Cu2   O19   S    
