data_mof_unit_46153.cif
_audit_creation_date              2012-12-11T14:52:44-0500
_audit_creation_method            fapswitch 2.2
_symmetry_space_group_name_H-M    P1
_symmetry_Int_Tables_number       1
_space_group_crystal_system       triclinic
_cell_length_a                    20.794608
_cell_length_b                    7.251946
_cell_length_c                    20.187128
_cell_angle_alpha                 90.000205
_cell_angle_beta                  101.6317
_cell_angle_gamma                 89.999679
_cell_volume                      2981.72953815

loop_
_atom_site_label
_atom_site_type_symbol
_atom_type_description
_atom_site_fract_x
_atom_site_fract_y
_atom_site_fract_z
_atom_type_partial_charge
O1    O     O_R   0.673670 0.377510 0.185950 -0.540819
O2    O     O_R   0.326330 0.622490 0.814050 -0.532688
O3    O     O_R   0.826330 0.877510 0.314050 -0.540858
O4    O     O_R   0.173670 0.122490 0.685950 -0.532691
O5    O     O_R   0.806260 0.705340 0.185590 -0.538765
O6    O     O_R   0.193740 0.294660 0.814410 -0.538344
O7    O     O_R   0.693740 0.205340 0.314410 -0.538813
O8    O     O_R   0.306260 0.794660 0.685590 -0.538347
C1    C     C_R   0.825378 0.539040 0.170759 0.727860
C2    C     C_R   0.174203 0.461524 0.829017 0.723792
C3    C     C_R   0.674622 0.039040 0.329240 0.727905
C4    C     C_R   0.325797 0.961523 0.670983 0.723794
O9    O     O_R   0.672940 0.707120 0.178050 -0.546835
O10   O     O_R   0.327060 0.292880 0.821950 -0.546326
O11   O     O_R   0.827060 0.207120 0.321950 -0.546775
O12   O     O_R   0.172940 0.792880 0.678050 -0.546328
O13   O     O_R   0.692060 0.879040 0.306460 -0.536207
O14   O     O_R   0.307940 0.120960 0.693540 -0.530630
O15   O     O_R   0.807940 0.379040 0.193540 -0.536259
O16   O     O_R   0.192060 0.620960 0.806460 -0.530629
C5    C     C_R   0.649618 0.538596 0.160592 0.781577
C6    C     C_R   0.350924 0.460633 0.838898 0.767735
C7    C     C_R   0.850381 0.038596 0.339409 0.781595
C8    C     C_R   0.149076 0.960633 0.661101 0.767739
O17   O     O_3   0.756430 0.544390 0.292140 -0.381759
O18   O     O_3   0.243570 0.455610 0.707860 -0.378388
O19   O     O_3   0.743570 0.044390 0.207860 -0.381703
O20   O     O_3   0.256430 0.955610 0.792140 -0.378387
V1    V     V_3+5 0.748810 0.818610 0.242180 1.373868
V2    V     V_3+5 0.251190 0.181390 0.757820 1.406491
V3    V     V_3+5 0.751190 0.318610 0.257820 1.373859
V4    V     V_3+5 0.248810 0.681390 0.742180 1.406492
C9    C     C_R   0.087063 0.966449 0.609278 -0.250363
C10   C     C_R   0.911983 0.029871 0.391370 -0.250883
C11   C     C_R   0.412938 0.466445 0.890722 -0.250365
C12   C     C_R   0.588016 0.529873 0.108631 -0.250889
C13   C     C_R   0.031310 0.060366 0.422537 0.297335
C14   C     C_R   0.967242 0.951651 0.578970 0.294620
C15   C     C_R   0.468690 0.560397 0.077461 0.297330
C16   C     C_R   0.532758 0.451612 0.921035 0.294590
C17   C     C_R   0.972548 0.067976 0.373359 0.146925
C18   C     C_R   0.026172 0.934874 0.627641 0.152214
C19   C     C_R   0.527452 0.568013 0.126639 0.146911
C20   C     C_R   0.473829 0.434850 0.872362 0.152225
C21   C     C_R   0.910188 0.979239 0.458399 0.352418
C22   C     C_R   0.089292 0.994966 0.540789 0.359552
C23   C     C_R   0.589809 0.479197 0.041606 0.352444
C24   C     C_R   0.410708 0.494977 0.959210 0.359558
C25   C     C_R   0.968721 0.982132 0.509637 -0.152402
C26   C     C_R   0.030219 0.013135 0.490836 -0.155876
C27   C     C_R   0.531278 0.482105 0.990366 -0.152417
C28   C     C_R   0.469780 0.513140 0.009165 -0.155874
C29   C     C_3   0.559023 0.068458 0.536107 0.289790
C30   C     C_3   0.444464 0.954523 0.466126 0.267722
C31   C     C_3   0.940978 0.568489 0.963892 0.289790
C32   C     C_3   0.055533 0.454532 0.033874 0.267724
C33   C     C_3   0.523795 0.890178 0.552597 -0.240033
C34   C     C_3   0.479472 0.133228 0.450251 -0.316006
C35   C     C_3   0.976204 0.390204 0.947400 -0.240043
C36   C     C_3   0.020528 0.633240 0.049751 -0.316002
H1    H     H_    0.542872 0.792841 0.594269 0.136856
H2    H     H_    0.461014 0.234058 0.409463 0.153227
H3    H     H_    0.957127 0.292872 0.905727 0.136846
H4    H     H_    0.038986 0.734065 0.090542 0.153225
C37   C     C_1   0.371578 0.971847 0.625448 -0.203798
C38   C     C_1   0.629698 0.033068 0.375333 -0.201211
C39   C     C_1   0.128422 0.471852 0.874552 -0.203802
C40   C     C_1   0.870301 0.533070 0.124666 -0.201223
C41   C     C_3   0.494148 0.175713 0.527201 0.269250
C42   C     C_3   0.509169 0.846744 0.475663 0.313550
C43   C     C_3   0.005854 0.675734 0.972802 0.269261
C44   C     C_3   0.990827 0.346762 0.024334 0.313555
C45   C     C_3   0.457971 0.999798 0.542402 -0.023690
C46   C     C_3   0.545020 0.022777 0.459981 -0.020606
C47   C     C_3   0.042029 0.499815 0.957599 -0.023690
C48   C     C_3   0.954978 0.522798 0.040017 -0.020616
C49   C     C_1   0.410142 0.983724 0.587689 -0.014711
C50   C     C_1   0.591732 0.029708 0.413662 -0.024020
C51   C     C_1   0.089858 0.483735 0.912312 -0.014709
C52   C     C_1   0.908266 0.529718 0.086336 -0.024016
O21   O     O_3   0.150109 0.996588 0.522983 -0.554703
C53   C     C_3   0.163956 0.815830 0.503447 0.102741
H5    H     H_    0.126020 0.767520 0.459723 0.118172
H6    H     H_    0.166066 0.717433 0.546225 0.110913
C54   C     C_3   0.230395 0.815977 0.482584 -0.278386
H7    H     H_    0.229708 0.919447 0.441827 0.204528
H8    H     H_    0.268859 0.855375 0.526705 0.192755
C55   C     C_3   0.246770 0.627028 0.457210 -0.853031
H9    H     H_    0.240611 0.517525 0.493923 0.238113
H10   H     H_    0.298426 0.624576 0.450602 0.262824
H11   H     H_    0.214404 0.598683 0.407489 0.221840
O22   O     O_3   0.850297 0.929224 0.473114 -0.555223
C56   C     C_3   0.844741 0.734650 0.470343 0.123339
H12   H     H_    0.881741 0.669710 0.511280 0.109303
H13   H     H_    0.852113 0.680243 0.420814 0.122080
C57   C     C_3   0.776161 0.679554 0.479660 -0.312011
H14   H     H_    0.769004 0.727506 0.529954 0.196699
H15   H     H_    0.738731 0.747020 0.440035 0.200018
C58   C     C_3   0.766350 0.470934 0.474979 -0.809255
H16   H     H_    0.773245 0.419143 0.425137 0.257288
H17   H     H_    0.715928 0.435658 0.481037 0.222715
H18   H     H_    0.801779 0.401262 0.515639 0.225579
O23   O     O_3   0.349890 0.496611 0.977016 -0.554701
C59   C     C_3   0.336043 0.315858 0.996555 0.102740
H19   H     H_    0.373978 0.267553 0.040281 0.118171
H20   H     H_    0.333934 0.217453 0.953780 0.110910
C60   C     C_3   0.269603 0.316013 0.017416 -0.278389
H21   H     H_    0.270290 0.419488 0.058171 0.204526
H22   H     H_    0.231140 0.355408 0.973293 0.192758
C61   C     C_3   0.253226 0.127068 0.042791 -0.853035
H23   H     H_    0.259385 0.017562 0.006079 0.238114
H24   H     H_    0.201571 0.124620 0.049399 0.262832
H25   H     H_    0.285592 0.098724 0.092512 0.221840
O24   O     O_3   0.649696 0.429100 0.026901 -0.555223
C62   C     C_3   0.655224 0.234519 0.029676 0.123335
H26   H     H_    0.618299 0.169645 0.988656 0.109446
H27   H     H_    0.647716 0.180085 0.079155 0.121870
C63   C     C_3   0.723858 0.179355 0.020550 -0.312020
H28   H     H_    0.731191 0.227514 0.970343 0.196650
H29   H     H_    0.761209 0.246584 0.060313 0.200148
C64   C     C_3   0.733596 0.970704 0.025123 -0.809012
H30   H     H_    0.726389 0.918620 0.074817 0.257237
H31   H     H_    0.784103 0.935409 0.019357 0.222730
H32   H     H_    0.698342 0.901312 0.984234 0.225461
N1    N     N_2   0.023170 0.881623 0.694937 -0.515806
H33   H     H_    0.056985 0.945353 0.732302 0.248258
C65   C     C_3   0.020756 0.683710 0.704230 -0.561561
H34   H     H_    0.068333 0.619809 0.700245 0.204557
H35   H     H_    0.981141 0.620491 0.665746 0.186286
H36   H     H_    0.010582 0.652348 0.754833 0.193980
N2    N     N_2   0.975308 0.116092 0.305468 -0.519098
H37   H     H_    0.940953 0.212412 0.283872 0.261881
C66   C     C_3   0.978647 0.960330 0.261435 -0.569155
H38   H     H_    0.931935 0.881494 0.252721 0.203202
H39   H     H_    0.019754 0.867196 0.283703 0.190272
H40   H     H_    0.987071 0.010450 0.211950 0.194715
N3    N     N_2   0.476832 0.381595 0.805066 -0.515810
H41   H     H_    0.443017 0.445324 0.767700 0.248259
C67   C     C_3   0.479245 0.183681 0.795774 -0.561573
H42   H     H_    0.431668 0.119783 0.799759 0.204558
H43   H     H_    0.518860 0.120463 0.834258 0.186283
H44   H     H_    0.489419 0.152315 0.745171 0.193981
N4    N     N_2   0.524692 0.616159 0.194527 -0.519096
H45   H     H_    0.559048 0.712481 0.216119 0.261884
C68   C     C_3   0.521352 0.460415 0.238569 -0.569145
H46   H     H_    0.568064 0.381574 0.247286 0.203193
H47   H     H_    0.480245 0.367279 0.216305 0.190272
H48   H     H_    0.512929 0.510557 0.288051 0.194715
N5    N     N_2   0.091403 0.108565 0.403349 -0.464995
H49   H     H_    0.096916 0.057430 0.357196 0.265671
C69   C     C_3   0.108194 0.301642 0.411471 -0.485882
H50   H     H_    0.157012 0.323176 0.398674 0.186341
H51   H     H_    0.110687 0.345746 0.464652 0.205637
H52   H     H_    0.071416 0.386974 0.377095 0.179385
N6    N     N_2   0.906352 0.953544 0.601091 -0.462576
H53   H     H_    0.901303 0.852677 0.635610 0.267560
C70   C     C_3   0.887945 0.133867 0.621518 -0.483678
H54   H     H_    0.837139 0.128979 0.630678 0.183029
H55   H     H_    0.889816 0.236756 0.581216 0.190515
H56   H     H_    0.921686 0.177638 0.668848 0.183992
N7    N     N_2   0.408597 0.608617 0.096646 -0.464991
H57   H     H_    0.403083 0.557499 0.142801 0.265672
C71   C     C_3   0.391811 0.801697 0.088518 -0.485888
H58   H     H_    0.342994 0.823248 0.101317 0.186343
H59   H     H_    0.389316 0.845781 0.035335 0.205637
H60   H     H_    0.428592 0.887030 0.122888 0.179383
N8    N     N_2   0.593651 0.453502 0.898917 -0.462574
H61   H     H_    0.598694 0.352667 0.864385 0.267581
C72   C     C_3   0.612071 0.633839 0.878516 -0.483719
H62   H     H_    0.662876 0.628943 0.869358 0.183023
H63   H     H_    0.610205 0.736692 0.918832 0.190541
H64   H     H_    0.578334 0.677662 0.831191 0.183982
N9    N     N_2   0.620781 0.135846 0.574800 -0.512208
H65   H     H_    0.632213 0.266719 0.561069 0.260697
C73   C     C_3   0.675250 0.008940 0.581141 -0.552856
H66   H     H_    0.717798 0.065225 0.617685 0.198645
H67   H     H_    0.689693 0.990529 0.531538 0.203407
H68   H     H_    0.662242 0.873252 0.600299 0.198435
N10   N     N_2   0.381445 0.893103 0.428540 -0.509445
H69   H     H_    0.343338 0.958127 0.444574 0.258292
C74   C     C_3   0.373329 0.897860 0.355708 -0.556148
H70   H     H_    0.326495 0.829038 0.332540 0.199843
H71   H     H_    0.413939 0.824677 0.338844 0.202011
H72   H     H_    0.371526 0.042832 0.337633 0.186745
N11   N     N_2   0.879220 0.635892 0.925201 -0.512209
H73   H     H_    0.867785 0.766753 0.938944 0.260707
C75   C     C_3   0.824753 0.508973 0.918845 -0.552815
H74   H     H_    0.782214 0.565243 0.882288 0.198641
H75   H     H_    0.810295 0.490577 0.968442 0.203393
H76   H     H_    0.837771 0.373279 0.899697 0.198426
N12   N     N_2   0.118552 0.393108 0.071461 -0.509445
H77   H     H_    0.156659 0.458143 0.055430 0.258290
C76   C     C_3   0.126666 0.397844 0.144292 -0.556137
H78   H     H_    0.173503 0.329037 0.167459 0.199839
H79   H     H_    0.086059 0.324634 0.161153 0.202013
H80   H     H_    0.128461 0.542809 0.162372 0.186742
N13   N     N_2   0.516226 0.666020 0.447428 -0.491900
H81   H     H_    0.498687 0.658943 0.396081 0.249661
C77   C     C_3   0.580509 0.583695 0.467495 -0.535081
H82   H     H_    0.579254 0.440521 0.447916 0.205052
H83   H     H_    0.595510 0.579182 0.523436 0.211083
H84   H     H_    0.617334 0.662798 0.446314 0.190692
N14   N     N_2   0.486562 0.358934 0.553142 -0.493614
H85   H     H_    0.444678 0.424989 0.528335 0.281247
C78   C     C_3   0.496712 0.375644 0.625791 -0.525462
H86   H     H_    0.501745 0.523285 0.640146 0.193437
H87   H     H_    0.542064 0.302585 0.650763 0.223435
H88   H     H_    0.453700 0.319668 0.643841 0.194758
N15   N     N_2   0.983765 0.166041 0.052569 -0.491883
H89   H     H_    0.001290 0.158977 0.103919 0.249659
C79   C     C_3   0.919484 0.083712 0.032487 -0.535089
H90   H     H_    0.920732 0.940556 0.052083 0.205013
H91   H     H_    0.904505 0.079147 0.976545 0.211120
H92   H     H_    0.882648 0.162844 0.053641 0.190648
N16   N     N_2   0.013444 0.858954 0.946863 -0.493612
H93   H     H_    0.055329 0.925001 0.971673 0.281246
C80   C     C_3   0.003295 0.875670 0.874215 -0.525469
H94   H     H_    0.998266 0.023312 0.859862 0.193437
H95   H     H_    0.957943 0.802620 0.849242 0.223438
H96   H     H_    0.046306 0.819687 0.856165 0.194759

loop_
_geom_bond_atom_site_label_1
_geom_bond_atom_site_label_2
_ccdc_geom_bond_type
C40   C52   T    
C23   O24   S    
O6    V2    S    
N14   H85   S    
O1    C5    A    
C20   N3    S    
C31   C35   S    
O19   V1    S    
O13   V1    S    
C72   H62   S    
O3    C7    A    
C29   C46   S    
C44   C48   S    
O4    V2    S    
O15   V3    S    
C63   H29   S    
C59   H20   S    
N7    H57   S    
C29   N9    S    
C73   H67   S    
C14   C25   A    
N9    H65   S    
C80   H96   S    
O7    C3    A    
C6    C11   S    
N3    C67   S    
O5    C1    A    
C56   H12   S    
C9    C18   A    
O9    V1    S    
C71   H59   S    
C14   C18   A    
N5    C69   S    
C54   H7    S    
O4    C8    A    
C67   H44   S    
C43   N16   S    
C78   H88   S    
N6    C70   S    
C62   H26   S    
C30   C45   S    
C57   C58   S    
O1    V3    S    
C30   N10   S    
C64   H31   S    
C12   C23   A    
O2    V4    S    
C69   H52   S    
C33   C45   S    
O3    V1    S    
C21   O22   S    
C61   H23   S    
C16   N8    S    
C18   N1    S    
C68   H47   S    
C63   H28   S    
C19   N4    S    
C1    O15   A    
C70   H54   S    
C71   H58   S    
C2    O16   A    
C75   H76   S    
C57   H15   S    
O2    C6    A    
C66   H40   S    
C69   H50   S    
C41   C45   S    
O14   V2    S    
C33   C42   S    
C15   N7    S    
C16   C20   A    
C59   C60   S    
C3    C38   S    
C35   C44   S    
C7    C10   S    
O11   C7    A    
C15   C28   A    
C32   N12   S    
C29   C41   S    
C77   H82   S    
C70   H55   S    
C32   C47   S    
C69   H51   S    
C66   H39   S    
C9    C22   A    
C60   H22   S    
C10   C17   A    
C14   N6    S    
O10   V2    S    
C11   C24   A    
C59   H19   S    
N7    C71   S    
C68   H46   S    
C73   H68   S    
O5    V1    S    
N9    C73   S    
C56   H13   S    
C38   C50   T    
N15   H89   S    
O7    V3    S    
C54   H8    S    
C27   C28   A    
O8    V4    S    
C71   H60   S    
C37   C49   T    
N8    C72   S    
C74   H71   S    
N8    H61   S    
C5    C12   S    
C29   C33   S    
O18   V4    S    
C15   C19   A    
C36   C43   S    
C62   H27   S    
C80   H94   S    
C74   H70   S    
C24   O23   S    
O11   V3    S    
C36   C48   S    
O21   C53   S    
N12   H77   S    
C63   C64   S    
N16   H93   S    
C65   H35   S    
C42   C46   S    
C77   H84   S    
C22   O21   S    
N14   C78   S    
C4    C37   S    
C79   H90   S    
C30   C42   S    
C55   H11   S    
C21   C25   A    
O8    C4    A    
C62   C63   S    
C57   H14   S    
C79   H92   S    
C76   H79   S    
N12   C76   S    
O9    C5    A    
C10   C21   A    
C55   H9    S    
C33   H1    S    
C11   C20   A    
C61   H25   S    
C64   H30   S    
C34   H2    S    
C64   H32   S    
C31   C48   S    
C79   H91   S    
C55   H10   S    
C25   C26   A    
C42   N13   S    
C53   H6    S    
C66   H38   S    
C30   C34   S    
C60   C61   S    
C80   H95   S    
C60   H21   S    
C65   H34   S    
C53   C54   S    
C35   C47   S    
N6    H53   S    
C68   H48   S    
C34   C46   S    
C77   H83   S    
O16   V4    S    
C54   C55   S    
N4    C68   S    
C78   H86   S    
C3    O13   A    
C74   H72   S    
C32   C44   S    
O17   V3    S    
C48   C52   S    
C13   N5    S    
N2    C66   S    
N2    H37   S    
O6    C2    A    
C23   C27   A    
C67   H42   S    
C34   C41   S    
O24   C62   S    
C70   H56   S    
C56   C57   S    
C16   C27   A    
N3    H41   S    
C22   C26   A    
C35   H3    S    
C8    C9    S    
C58   H16   S    
C36   H4    S    
O10   C6    A    
N13   C77   S    
C65   H36   S    
C75   H74   S    
C73   H66   S    
C2    C39   S    
N5    H49   S    
C76   H80   S    
C43   C47   S    
C13   C26   A    
C67   H43   S    
N11   H73   S    
N1    H33   S    
C44   N15   S    
O12   V4    S    
O20   V2    S    
O22   C56   S    
N15   C79   S    
C31   N11   S    
C13   C17   A    
N13   H81   S    
C61   H24   S    
C1    C40   S    
N16   C80   S    
N11   C75   S    
N10   H69   S    
C32   C36   S    
C24   C28   A    
C58   H18   S    
C17   N2    S    
C41   N14   S    
O12   C8    A    
C76   H78   S    
C46   C50   S    
C4    O14   A    
O23   C59   S    
N1    C65   S    
C45   C49   S    
C12   C19   A    
C72   H64   S    
C53   H5    S    
C78   H87   S    
C47   C51   S    
C75   H75   S    
C58   H17   S    
C39   C51   T    
C31   C43   S    
N4    H45   S    
N10   C74   S    
C72   H63   S    
