data_mof_unit_47110.cif
_audit_creation_date              2012-12-11T15:32:31-0500
_audit_creation_method            fapswitch 2.2
_symmetry_space_group_name_H-M    P1
_symmetry_Int_Tables_number       1
_space_group_crystal_system       triclinic
_cell_length_a                    8.345243
_cell_length_b                    16.499094
_cell_length_c                    19.000835
_cell_angle_alpha                 106.586597
_cell_angle_beta                  85.824649
_cell_angle_gamma                 97.303721
_cell_volume                      2485.16318995

loop_
_atom_site_label
_atom_site_type_symbol
_atom_type_description
_atom_site_fract_x
_atom_site_fract_y
_atom_site_fract_z
_atom_type_partial_charge
Ba1   Ba    Ba6+2 0.640410 0.457420 0.526150 1.698788
Ba2   Ba    Ba6+2 0.169770 0.542590 0.473910 1.692977
C1    C     C_3   0.695480 0.168188 0.736016 -0.174736
C2    C     C_R   0.120824 0.251645 0.494833 -0.221581
C3    C     C_2   0.523799 0.856069 0.571231 -0.105799
C4    C     C_3   0.258726 0.228996 0.684999 0.393389
C5    C     C_2   0.556885 0.775362 0.556484 0.036645
C6    C     C_2   0.834447 0.809674 0.511521 0.047239
C7    C     C_3   0.814253 0.903713 0.544987 -0.061379
C8    C     C_3   0.636599 0.919645 0.543798 0.084003
C9    C     C_2   0.934302 0.966575 0.517901 -0.039922
C10   C     C_2   0.896002 0.042150 0.513916 -0.063415
C11   C     C_R   0.140773 0.077636 0.441194 -0.004473
C12   C     C_3   0.790896 0.208149 0.679412 0.270650
C13   C     C_R   0.014594 0.105540 0.490731 -0.023391
C14   C     C_R   0.254149 0.134229 0.416415 -0.083026
C15   C     C_R   0.249526 0.223452 0.445245 0.049713
C16   C     C_3   0.186201 0.208477 0.754800 -0.339330
C17   C     C_R   0.997618 0.193100 0.513466 -0.051733
C18   C     C_R   0.108392 0.470887 0.696802 -0.263790
C19   C     C_R   0.969671 0.510281 0.725421 0.068434
C20   C     C_R   0.914412 0.513266 0.797760 -0.118711
C21   C     C_R   0.999506 0.479331 0.842880 -0.005909
C22   C     C_R   0.142699 0.442663 0.812958 -0.168026
C23   C     C_3   0.998196 0.277854 0.302509 0.280609
C24   C     C_R   0.194032 0.436041 0.739637 -0.010691
C25   C     C_R   0.959984 0.425227 0.958905 0.009438
C26   C     C_R   0.910571 0.438429 0.032823 -0.046835
C27   C     C_R   0.843278 0.512046 0.072792 0.055526
C28   C     C_3   0.365927 0.658673 0.716002 0.305806
C29   C     C_R   0.820788 0.572364 0.036311 -0.057805
C30   C     C_R   0.872671 0.561010 0.962566 -0.072138
C31   C     C_R   0.943620 0.487497 0.921841 -0.003085
C32   C     C_R   0.656031 0.559947 0.183722 -0.133565
C33   C     C_R   0.608661 0.563603 0.256861 0.087653
C34   C     C_3   0.054432 0.204738 0.239848 -0.270948
C35   C     C_R   0.840994 0.495565 0.268128 0.026013
C36   C     C_R   0.891526 0.493234 0.195978 -0.025439
C37   C     C_R   0.798018 0.524035 0.152202 0.014247
C38   C     C_R   0.702237 0.532627 0.298940 -0.237460
C39   C     C_3   0.423106 0.689037 0.795148 -0.201128
C40   C     C_3   0.524579 0.292195 0.274190 0.242723
C41   C     C_3   0.568837 0.204490 0.225956 -0.224258
C42   C     C_3   0.882870 0.721638 0.658539 0.247487
C43   C     C_3   0.975578 0.810249 0.686662 -0.190040
C44   C     C_3   0.842218 0.301482 0.717780 -0.318638
C45   C     C_3   0.451221 0.780216 0.340268 0.218105
C46   C     C_3   0.353628 0.631373 0.842032 -0.507633
C47   C     C_2   0.502566 0.346365 0.224554 0.823221
C48   C     C_2   0.447114 0.158285 0.168856 0.890393
C49   C     C_2   0.905175 0.862626 0.757812 0.903568
C50   C     C_3   0.897002 0.242558 0.359090 -0.334011
C51   C     C_2   0.669413 0.073290 0.709692 0.877683
C52   C     C_2   0.624068 0.797153 0.361350 0.759334
C53   C     C_2   0.481977 0.865030 0.246945 0.980354
C54   C     C_2   0.065653 0.703624 0.172220 0.865148
C55   C     C_2   0.300081 0.149304 0.627694 0.892255
C56   C     C_3   0.405291 0.858150 0.319815 -0.203218
C57   C     C_3   0.012968 0.849230 0.245639 -0.256971
C58   C     C_2   0.369520 0.094745 0.358726 0.844958
C59   C     C_2   0.019738 0.342794 0.924204 0.823386
C60   C     C_3   0.026948 0.730285 0.312321 0.304381
C61   C     C_3   0.983258 0.753730 0.242139 -0.168993
C62   C     C_2   0.713092 0.750806 0.520417 -0.236253
H1    H     H_    0.386748 0.753671 0.821897 0.161290
H2    H     H_    0.102648 0.802790 0.695154 0.105192
H3    H     H_    0.899320 0.174356 0.658854 0.001964
H4    H     H_    0.761862 0.184457 0.787515 0.108347
H5    H     H_    0.106370 0.316592 0.329437 0.107481
H6    H     H_    0.128341 0.230649 0.198578 0.162203
H7    H     H_    0.128844 0.166313 0.261080 0.122280
H8    H     H_    0.949147 0.162489 0.212364 0.111280
H9    H     H_    0.072883 0.164642 0.744188 0.149167
H10   H     H_    0.373834 0.771479 0.388118 0.043249
H11   H     H_    0.274303 0.854213 0.317182 0.073287
H12   H     H_    0.557239 0.693551 0.794144 0.167975
H13   H     H_    0.438288 0.917774 0.363744 0.095192
H14   H     H_    0.935580 0.678151 0.319616 0.050423
H15   H     H_    0.143031 0.703871 0.304238 0.099919
H16   H     H_    0.851046 0.735556 0.235651 0.062381
H17   H     H_    0.411419 0.875328 0.599741 0.153867
H18   H     H_    0.726725 0.683523 0.499441 0.084524
H19   H     H_    0.107440 0.318906 0.512867 0.056630
H20   H     H_    0.058475 0.952509 0.506163 0.123600
H21   H     H_    0.775222 0.058996 0.530635 0.110496
H22   H     H_    0.999981 0.464034 0.173409 0.097715
H23   H     H_    0.623112 0.325044 0.311242 0.002044
H24   H     H_    0.921079 0.388904 0.058891 0.100395
H25   H     H_    0.167540 0.256042 0.661090 -0.213356
H26   H     H_    0.805584 0.542842 0.818677 0.088294
H27   H     H_    0.768528 0.630032 0.065487 0.106701
H28   H     H_    0.860168 0.611470 0.938088 0.085581
H29   H     H_    0.580244 0.582885 0.151353 0.105872
H30   H     H_    0.217861 0.421629 0.846662 0.101161
H31   H     H_    0.662309 0.533344 0.354589 0.064515
H32   H     H_    0.151921 0.468813 0.641338 0.060600
H33   H     H_    0.273489 0.179237 0.778799 0.146383
H34   H     H_    0.687827 0.212316 0.197137 0.088441
H35   H     H_    0.160097 0.268452 0.794863 0.108802
H36   H     H_    0.232476 0.643892 0.715973 -0.013650
H37   H     H_    0.423892 0.601192 0.685570 0.053250
H38   H     H_    0.921888 0.329955 0.680419 0.065435
H39   H     H_    0.735411 0.337054 0.735028 0.172795
H40   H     H_    0.911438 0.307261 0.766482 0.102923
H41   H     H_    0.219691 0.624348 0.842343 0.140209
H42   H     H_    0.400223 0.568785 0.821139 0.158359
H43   H     H_    0.392031 0.659890 0.899424 0.164679
H44   H     H_    0.351769 0.407332 0.185026 0.323020
H45   H     H_    0.581278 0.163619 0.261412 0.077933
H46   H     H_    0.339927 0.154018 0.075852 0.322959
H47   H     H_    0.723486 0.876316 0.834966 0.321844
H48   H     H_    0.881546 0.294508 0.410166 0.128870
H49   H     H_    0.777470 0.214057 0.338078 0.155806
H50   H     H_    0.955238 0.191754 0.371309 0.044563
H51   H     H_    0.766231 0.963453 0.690960 0.304646
H52   H     H_    0.816859 0.884165 0.391769 0.326186
H53   H     H_    0.651285 0.925814 0.193101 0.315267
H54   H     H_    0.118556 0.689858 0.064359 0.323229
H55   H     H_    0.417065 0.099477 0.531754 0.314079
H56   H     H_    0.754079 0.727193 0.652447 0.004945
H57   H     H_    0.992603 0.892175 0.301023 0.161928
H58   H     H_    0.137095 0.866955 0.225906 0.156704
H59   H     H_    0.929141 0.863050 0.208797 0.153167
H60   H     H_    0.600861 0.072578 0.330445 0.337395
H61   H     H_    0.196226 0.267997 0.919238 0.324915
H62   H     H_    0.937700 0.691021 0.603956 0.049761
H63   H     H_    0.577389 0.194293 0.750308 0.112203
H64   H     H_    0.977998 0.845416 0.644815 0.011795
O1    O     O_2   0.558990 0.288510 0.428270 -0.442387
O2    O     O_2   0.277056 0.556550 0.260367 -0.449461
O3    O     O_3   0.426747 0.708318 0.279039 -0.602473
O4    O     O_3   0.341190 0.396600 0.446070 -0.482008
O5    O     O_3   0.948410 0.543360 0.590820 -0.499463
O6    O     O_2   0.117990 0.459640 0.323300 -0.423493
O7    O     O_3   0.904336 0.323943 0.272633 -0.634707
O8    O     O_2   0.172891 0.807843 0.498050 -0.503839
O9    O     O_3   0.036407 0.801203 0.375211 -0.637323
O10   O     O_3   0.809080 0.340350 0.563320 -0.471925
O11   O     O_2   0.684373 0.194183 0.484838 -0.385120
O12   O     O_3   0.892795 0.676973 0.710379 -0.623954
O13   O     O_3   0.378526 0.280996 0.313625 -0.679131
O14   O     O_3   0.690297 0.201225 0.621267 -0.541503
O15   O     O_2   0.692320 0.540420 0.676730 -0.465861
O16   O     O_3   0.406060 0.383660 0.606030 -0.446558
O17   O     O_2   0.529665 0.441512 0.737309 -0.491408
O18   O     O_2   0.610710 0.357843 0.180340 -0.627832
O19   O     O_R   0.355106 0.378146 0.225077 -0.720048
O20   O     O_2   0.373138 0.090510 0.172042 -0.556550
O21   O     O_R   0.423859 0.191038 0.110600 -0.721026
O22   O     O_2   0.978305 0.930888 0.789443 -0.548194
O23   O     O_3   0.401600 0.284748 0.703796 -0.583675
O24   O     O_R   0.757128 0.834643 0.787328 -0.753248
O25   O     O_2   0.532752 0.036938 0.698738 -0.575284
O26   O     O_R   0.801006 0.026730 0.702299 -0.732767
O27   O     O_2   0.690897 0.739881 0.370494 -0.684114
O28   O     O_R   0.706119 0.878827 0.372517 -0.764497
O29   O     O_2   0.432204 0.815535 0.189686 -0.571645
O30   O     O_R   0.610398 0.927552 0.245018 -0.739150
O31   O     O_2   0.142221 0.645145 0.172085 -0.590949
O32   O     O_R   0.055123 0.725612 0.106980 -0.738414
O33   O     O_2   0.254391 0.078690 0.635300 -0.595913
O34   O     O_2   0.251320 0.711540 0.571760 -0.475666
O35   O     O_R   0.390200 0.156651 0.564727 -0.706459
O36   O     O_2   0.319062 0.043517 0.302477 -0.593982
O37   O     O_R   0.534231 0.109027 0.370991 -0.721952
O38   O     O_2   0.928659 0.284053 0.888603 -0.626841
O39   O     O_R   0.173207 0.329279 0.940462 -0.747678
O40   O     O_3   0.469110 0.603410 0.553990 -0.503432
O41   O     O_3   0.001220 0.659660 0.436740 -0.489154
O42   O     O_3   0.408861 0.727145 0.686349 -0.623467
O43   O     O_3   0.861890 0.456640 0.409240 -0.491366
O44   O     O_3   0.404240 0.616350 0.394030 -0.477440
P1    P     P_3+3 0.391560 0.302240 0.409860 1.002047
P2    P     P_3+3 0.873530 0.566630 0.670640 0.986244
P3    P     P_3+3 0.379470 0.387301 0.698741 0.998222
P4    P     P_3+3 0.418740 0.697770 0.590200 0.986797
P5    P     P_3+3 0.426432 0.610749 0.299659 1.040532
P6    P     P_3+3 0.799918 0.231101 0.548317 1.009487
P7    P     P_3+3 0.931046 0.433324 0.317098 0.976597
P8    P     P_3+3 0.015059 0.770175 0.457000 0.962526

loop_
_geom_bond_atom_site_label_1
_geom_bond_atom_site_label_2
_ccdc_geom_bond_type
O44   P5    S    
C57   H57   S    
C12   O14   S    
C51   O25   D    
H54   O32   S    
C1    H4    S    
C41   H34   S    
Ba1   O4    S    
O43   P7    S    
H47   O24   S    
Ba2   O34   S    
O3    P5    S    
C12   C44   S    
O42   P4    S    
C50   H49   S    
C25   C31   A    
C13   C17   A    
C44   H38   S    
C42   H62   S    
C35   C36   A    
C10   H21   S    
C36   H22   S    
C26   C27   A    
H61   O39   S    
C22   C24   A    
C59   O38   D    
C35   C38   A    
Ba1   O1    S    
C52   O28   S    
C36   C37   A    
C1    H63   S    
C46   H43   S    
O34   P4    D    
C43   C49   S    
C43   H64   S    
C28   H36   S    
C47   O19   S    
C32   C33   A    
C14   C58   S    
C42   H56   S    
C28   O42   S    
C33   P5    S    
C25   C59   S    
C56   H13   S    
Ba2   P4    S    
C2    C17   A    
C53   O30   S    
C46   H42   S    
O17   P3    D    
C49   O22   D    
C34   H6    S    
C6    C7    S    
C21   C31   S    
C26   H24   S    
Ba2   O4    S    
C12   H3    S    
C32   H29   S    
C28   C39   S    
C16   H33   S    
O6    P7    D    
C7    C8    S    
O41   P8    S    
C34   H7    S    
Ba2   O43   S    
H44   O19   S    
H46   O21   S    
C57   H58   S    
C40   C47   S    
C18   H32   S    
C51   O26   S    
C42   O12   S    
C19   C20   A    
O13   P1    S    
C4    C55   S    
O1    P1    D    
C4    C16   S    
C15   P1    S    
C56   H11   S    
C2    H19   S    
C61   H16   S    
C57   H59   S    
C35   P7    S    
Ba1   P2    S    
Ba1   O5    S    
Ba2   O5    S    
O23   P3    S    
C32   C37   A    
C60   H15   S    
H55   O35   S    
C52   O27   D    
C3    C5    D    
C14   C15   A    
C39   H1    S    
C23   C34   S    
Ba1   O40   S    
C44   H40   S    
Ba1   O43   S    
C45   O3    S    
C59   O39   S    
C60   C61   S    
Ba1   O15   S    
O2    P5    D    
C22   H30   S    
C3    H17   S    
C6    P8    S    
C46   H41   S    
C55   O35   S    
C10   C13   S    
C21   C22   A    
Ba1   P1    S    
C5    P4    S    
C27   C37   S    
C40   O13   S    
C20   H26   S    
C54   C61   S    
Ba2   O6    S    
C7    C9    S    
C17   P6    S    
C62   H18   S    
C1    C12   S    
C6    C62   D    
C45   C52   S    
C2    C15   A    
O12   P2    S    
C49   O24   S    
C16   H9    S    
C29   H27   S    
C11   C13   A    
H51   O26   S    
C53   C56   S    
C23   H5    S    
C40   C41   S    
C4    O23   S    
C38   H31   S    
O10   P6    S    
Ba2   O40   S    
C25   C26   A    
C42   C43   S    
O5    P2    S    
C48   O20   D    
O40   P4    S    
H53   O30   S    
C60   H14   S    
C29   C30   A    
C45   H10   S    
C9    C10   D    
C41   C48   S    
C50   H50   S    
C9    H20   S    
C54   O31   D    
C4    H25   S    
C44   H39   S    
O8    P8    D    
C57   C61   S    
C58   O37   S    
C30   C31   A    
C33   C38   A    
C23   C50   S    
O7    P7    S    
C3    C8    S    
C54   O32   S    
O11   P6    D    
C39   H12   S    
C1    C51   S    
C48   O21   S    
O14   P6    S    
O9    P8    S    
C18   C24   A    
C24   P3    S    
Ba1   Ba2   S    
C28   H37   S    
C58   O36   D    
C39   C46   S    
C47   O18   D    
O16   P3    S    
O4    P1    S    
C60   O9    S    
C23   O7    S    
C5    C62   S    
H52   O28   S    
C30   H28   S    
Ba2   O41   S    
H60   O37   S    
C53   O29   D    
C55   O33   D    
C18   C19   A    
C27   C29   A    
C19   P2    S    
C16   H35   S    
C11   C14   A    
C43   H2    S    
Ba1   O16   S    
C50   H48   S    
C20   C21   A    
C40   H23   S    
C41   H45   S    
O15   P2    D    
Ba1   O10   S    
C34   H8    S    
Ba2   O44   S    
C45   C56   S    
