data_mof_unit_38638.cif
_audit_creation_date              2012-12-11T14:38:32-0500
_audit_creation_method            fapswitch 2.2
_symmetry_space_group_name_H-M    P1
_symmetry_Int_Tables_number       1
_space_group_crystal_system       triclinic
_cell_length_a                    19.619426
_cell_length_b                    11.236682
_cell_length_c                    19.549557
_cell_angle_alpha                 89.975481
_cell_angle_beta                  96.347028
_cell_angle_gamma                 89.996057
_cell_volume                      4283.42422041

loop_
_atom_site_label
_atom_site_type_symbol
_atom_type_description
_atom_site_fract_x
_atom_site_fract_y
_atom_site_fract_z
_atom_type_partial_charge
C1    C     C_R   0.726543 0.949312 0.357910 0.525641
C2    C     C_R   0.274233 0.951168 0.641064 0.538594
C3    C     C_R   0.226969 0.448192 0.357297 0.523341
C4    C     C_R   0.773335 0.449011 0.642184 0.525543
C5    C     C_3   0.666881 0.410800 0.465374 0.156361
C6    C     C_3   0.334404 0.408203 0.533829 0.153480
C7    C     C_3   0.167489 0.912875 0.464745 0.153442
C8    C     C_3   0.833310 0.910230 0.534435 0.156782
C9    C     C_3   0.815472 0.449721 0.531338 -0.270809
C10   C     C_3   0.185024 0.447140 0.467629 -0.273207
C11   C     C_3   0.316735 0.949611 0.530401 -0.279576
C12   C     C_3   0.684643 0.949915 0.468620 -0.270772
C13   C     C_3   0.751185 0.270197 0.565557 0.114201
C14   C     C_3   0.249213 0.268680 0.433645 0.114886
C15   C     C_3   0.252235 0.772124 0.565281 0.127581
C16   C     C_3   0.748267 0.770359 0.434353 0.114166
C17   C     C_3   0.755037 0.406932 0.572108 0.040675
C18   C     C_3   0.245571 0.405180 0.427061 0.042024
C19   C     C_3   0.256143 0.908589 0.571201 0.055484
C20   C     C_3   0.744902 0.907067 0.427875 0.040432
C21   C     C_3   0.733677 0.355435 0.441512 0.035866
C22   C     C_3   0.267331 0.354214 0.557836 0.037155
C23   C     C_3   0.233830 0.856058 0.441055 0.038404
C24   C     C_3   0.766539 0.855090 0.558390 0.036124
C25   C     C_3   0.792700 0.446253 0.454568 -0.254711
C26   C     C_3   0.208997 0.446259 0.543680 -0.262551
C27   C     C_3   0.293701 0.945444 0.453811 -0.255481
C28   C     C_3   0.707474 0.945759 0.545244 -0.256544
C29   C     C_3   0.754220 0.245163 0.487694 -0.221502
C30   C     C_3   0.246823 0.243936 0.511809 -0.221173
C31   C     C_3   0.252913 0.745573 0.487299 -0.231482
C32   C     C_3   0.746009 0.744969 0.512278 -0.222289
C33   C     C_3   0.510349 0.304729 0.956960 -0.180843
C34   C     C_3   0.537609 0.307683 0.032306 -0.202998
C35   C     C_3   0.945708 0.802750 0.970727 -0.216969
C36   C     C_3   0.969987 0.799415 0.047324 -0.202665
C37   C     C_3   0.421641 0.164677 0.989586 0.121566
C38   C     C_3   0.578372 0.099312 0.013941 0.122574
C39   C     C_3   0.909607 0.591119 0.983388 0.132499
C40   C     C_3   0.062328 0.658829 0.024004 0.140158
C41   C     C_3   0.528105 0.073383 0.948647 -0.228761
C42   C     C_3   0.463069 0.130069 0.059342 -0.212613
C43   C     C_3   0.028603 0.634053 0.949053 -0.235954
C44   C     C_3   0.954151 0.565929 0.053003 -0.241702
C45   C     C_R   0.537063 0.180620 0.338791 0.523714
C46   C     C_R   0.462210 0.180752 0.660743 0.520217
C47   C     C_R   0.037411 0.680628 0.339061 0.515179
C48   C     C_R   0.963121 0.680476 0.661300 0.515301
C49   C     C_3   0.475825 0.180110 0.937282 0.054566
C50   C     C_3   0.537875 0.179151 0.062522 0.048176
C51   C     C_3   0.952459 0.676996 0.939223 0.033804
C52   C     C_3   0.003143 0.674888 0.068996 0.058592
C53   C     C_1   0.772085 0.446202 0.910391 0.011788
C54   C     C_1   0.212397 0.491034 0.082946 -0.034448
C55   C     C_1   0.284691 0.979675 0.915756 -0.032945
C56   C     C_1   0.722957 0.963240 0.087296 0.001838
C57   C     C_1   0.745327 0.368935 0.030580 -0.049153
C58   C     C_1   0.233383 0.447888 0.954461 -0.058031
C59   C     C_1   0.265525 0.936783 0.044116 -0.084035
C60   C     C_1   0.749646 0.891437 0.966146 -0.070740
C61   C     C_1   0.760388 0.410684 0.965915 -0.041554
C62   C     C_1   0.219949 0.475828 0.022841 -0.092465
C63   C     C_1   0.276858 0.962115 0.975287 -0.091294
C64   C     C_1   0.734654 0.932911 0.030852 -0.045217
C65   C     C_1   0.732682 0.340129 0.087080 0.003528
C66   C     C_1   0.246956 0.415169 0.898499 0.013954
C67   C     C_1   0.252557 0.909094 0.100844 -0.000808
C68   C     C_1   0.762919 0.857363 0.910855 -0.001902
C69   C     C_R   0.725840 0.317468 0.368128 0.557235
C70   C     C_R   0.274341 0.317195 0.631767 0.554036
C71   C     C_R   0.225838 0.817531 0.368020 0.553296
C72   C     C_R   0.774256 0.817250 0.631877 0.556645
C73   C     C_R   0.706649 0.993567 0.154473 0.532774
C74   C     C_R   0.295602 0.998457 0.845140 0.549859
C75   C     C_R   0.203287 0.501906 0.155109 0.573212
C76   C     C_R   0.790445 0.485749 0.845450 0.539556
C77   C     C_R   0.563455 0.182908 0.136967 0.523107
C78   C     C_R   0.444463 0.182574 0.864584 0.549522
C79   C     C_R   0.031574 0.679517 0.141586 0.552243
C80   C     C_R   0.934103 0.682761 0.862399 0.531176
C81   C     C_R   0.722894 0.310503 0.156280 0.541909
C82   C     C_R   0.262567 0.361355 0.834972 0.553103
C83   C     C_R   0.237478 0.860837 0.165262 0.562869
C84   C     C_R   0.775303 0.816974 0.844271 0.548090
C85   C     C_1   0.483531 0.173747 0.593687 -0.037917
C86   C     C_1   0.515676 0.173611 0.405821 -0.038662
C87   C     C_1   0.986098 0.672944 0.594904 -0.037189
C88   C     C_1   0.017215 0.673538 0.406642 -0.036712
C89   C     C_1   0.504565 0.170706 0.464848 -0.050910
C90   C     C_1   0.494589 0.170767 0.534645 -0.052676
C91   C     C_1   0.007057 0.670314 0.465978 -0.052507
C92   C     C_1   0.997627 0.669991 0.535978 -0.045947
C93   C     C_3   0.683502 0.453855 0.540479 -0.168330
C94   C     C_3   0.317399 0.451824 0.458695 -0.170303
C95   C     C_3   0.184677 0.956013 0.539563 -0.163779
C96   C     C_3   0.816605 0.953488 0.459374 -0.169109
Cr1   Cr    Cr6+3 0.765780 0.160710 0.267420 0.976216
Cr2   Cr    Cr6+3 0.234220 0.160710 0.732580 0.976703
Cr3   Cr    Cr6+3 0.265780 0.660710 0.267420 0.984365
Cr4   Cr    Cr6+3 0.734220 0.660710 0.732580 0.978469
Cr5   Cr    Cr6+3 0.612200 0.009560 0.248850 0.973850
Cr6   Cr    Cr6+3 0.387800 0.009560 0.751150 0.975893
Cr7   Cr    Cr6+3 0.112200 0.509560 0.248850 0.981818
Cr8   Cr    Cr6+3 0.887800 0.509560 0.751150 0.984655
Cr9   Cr    Cr6+3 0.616030 0.323720 0.248510 0.998421
Cr10  Cr    Cr6+3 0.383970 0.323720 0.751490 1.013513
Cr11  Cr    Cr6+3 0.116030 0.823720 0.248510 1.024335
Cr12  Cr    Cr6+3 0.883970 0.823720 0.751490 0.998150
H1    H     H_    0.681732 0.550121 0.543375 0.130780
H2    H     H_    0.318921 0.548247 0.456226 0.131568
H3    H     H_    0.182892 0.051904 0.542655 0.126771
H4    H     H_    0.818547 0.049867 0.456541 0.131110
H5    H     H_    0.808178 0.224032 0.480943 0.105048
H6    H     H_    0.192802 0.224246 0.518813 0.106444
H7    H     H_    0.306086 0.721377 0.479442 0.106871
H8    H     H_    0.692158 0.723816 0.519403 0.105299
H9    H     H_    0.859250 0.386603 0.541842 0.122345
H10   H     H_    0.141336 0.383669 0.458243 0.123565
H11   H     H_    0.360223 0.885922 0.541002 0.120832
H12   H     H_    0.640715 0.887146 0.458015 0.121090
H13   H     H_    0.838181 0.423311 0.428011 0.137297
H14   H     H_    0.164219 0.429520 0.572533 0.142204
H15   H     H_    0.339010 0.921239 0.427312 0.138838
H16   H     H_    0.661939 0.921352 0.571273 0.134885
H17   H     H_    0.472471 0.378518 0.947734 0.182052
H18   H     H_    0.589820 0.347271 0.038798 0.137946
H19   H     H_    0.892065 0.834066 0.962807 0.142649
H20   H     H_    0.008001 0.872790 0.056756 0.181266
H21   H     H_    0.549793 0.331311 0.924127 0.104230
H22   H     H_    0.503772 0.368049 0.058534 0.154062
H23   H     H_    0.975329 0.871452 0.946054 0.129242
H24   H     H_    0.929663 0.826791 0.079160 0.085413
H25   H     H_    0.438974 0.149386 0.106424 0.133367
H26   H     H_    0.552963 0.043272 0.903514 0.135345
H27   H     H_    0.926154 0.534873 0.095900 0.117017
H28   H     H_    0.057154 0.664101 0.906844 0.140253
H29   H     H_    0.498806 0.991065 0.957737 0.075538
H30   H     H_    0.465180 0.031130 0.062359 0.078928
H31   H     H_    0.028895 0.535863 0.941123 0.083803
H32   H     H_    0.985444 0.484881 0.046284 0.075737
H33   H     H_    0.589689 0.012655 0.040043 0.130930
H34   H     H_    0.387740 0.090173 0.972726 0.112100
H35   H     H_    0.091404 0.577692 0.041169 0.124670
H36   H     H_    0.903644 0.504825 0.955790 0.134091
H37   H     H_    0.642152 0.424274 0.571196 0.119851
H38   H     H_    0.358618 0.422590 0.427731 0.119702
H39   H     H_    0.143265 0.927470 0.570087 0.121145
H40   H     H_    0.857809 0.923574 0.428572 0.118892
H41   H     H_    0.627991 0.337966 0.463527 0.126728
H42   H     H_    0.372956 0.334905 0.535491 0.127875
H43   H     H_    0.128226 0.840654 0.463251 0.123679
H44   H     H_    0.872085 0.837187 0.536178 0.124761
H45   H     H_    0.342752 0.033425 0.546982 0.133637
H46   H     H_    0.659146 0.034036 0.451782 0.135068
H47   H     H_    0.841094 0.533601 0.548391 0.134736
H48   H     H_    0.159491 0.531001 0.450238 0.135295
H49   H     H_    0.275044 0.032473 0.435239 0.224978
H50   H     H_    0.726433 0.032796 0.563765 0.222330
H51   H     H_    0.773500 0.533190 0.436218 0.224349
H52   H     H_    0.230465 0.533610 0.555995 0.199507
H53   H     H_    0.796278 0.226026 0.594709 0.151786
H54   H     H_    0.203697 0.225004 0.405044 0.153979
H55   H     H_    0.299044 0.731326 0.593296 0.138688
H56   H     H_    0.702634 0.726959 0.405767 0.152538
H57   H     H_    0.722283 0.171045 0.470506 0.121969
H58   H     H_    0.278699 0.169760 0.529089 0.119734
H59   H     H_    0.218453 0.673852 0.471107 0.116913
H60   H     H_    0.778272 0.671049 0.529157 0.121744
O1    O     O_R   0.783100 0.287550 0.345460 -0.544325
O2    O     O_R   0.216900 0.287550 0.654540 -0.543933
O3    O     O_R   0.283100 0.787550 0.345460 -0.551898
O4    O     O_R   0.716900 0.787550 0.654540 -0.545709
O5    O     O_R   0.554710 0.081900 0.170950 -0.524271
O6    O     O_R   0.445290 0.081900 0.829050 -0.531146
O7    O     O_R   0.054710 0.581900 0.170950 -0.530617
O8    O     O_R   0.945290 0.581900 0.829050 -0.516519
O9    O     O_R   0.545650 0.284910 0.163740 -0.538038
O10   O     O_R   0.454350 0.284910 0.836260 -0.524656
O11   O     O_R   0.045650 0.784910 0.163740 -0.501841
O12   O     O_R   0.954350 0.784910 0.836260 -0.536022
O13   O     O_R   0.677950 0.374280 0.185410 -0.512983
O14   O     O_R   0.322050 0.374280 0.814590 -0.490293
O15   O     O_R   0.177950 0.874280 0.185410 -0.474340
O16   O     O_R   0.822050 0.874280 0.814590 -0.513260
O17   O     O_3   0.664670 0.164660 0.254930 -0.312900
O18   O     O_3   0.335330 0.164660 0.745070 -0.296204
O19   O     O_3   0.164670 0.664660 0.254930 -0.285448
O20   O     O_3   0.835330 0.664660 0.745070 -0.309042
O21   O     O_R   0.760020 0.037400 0.337700 -0.527034
O22   O     O_R   0.239980 0.037400 0.662300 -0.526454
O23   O     O_R   0.260020 0.537400 0.337700 -0.529219
O24   O     O_R   0.739980 0.537400 0.662300 -0.527275
O25   O     O_R   0.666600 0.921990 0.332020 -0.532780
O26   O     O_R   0.333400 0.921990 0.667980 -0.539388
O27   O     O_R   0.166600 0.421990 0.332020 -0.534865
O28   O     O_R   0.833400 0.421990 0.667980 -0.532652
O29   O     O_R   0.557260 0.082670 0.312540 -0.495869
O30   O     O_R   0.442740 0.082670 0.687460 -0.502675
O31   O     O_R   0.057260 0.582670 0.312540 -0.502000
O32   O     O_R   0.942740 0.582670 0.687460 -0.489002
O33   O     O_R   0.548410 0.285740 0.316480 -0.522043
O34   O     O_R   0.451590 0.285740 0.683520 -0.521761
O35   O     O_R   0.048410 0.785740 0.316480 -0.530214
O36   O     O_R   0.951590 0.785740 0.683520 -0.528676
O37   O     O_R   0.680500 0.375040 0.327000 -0.439821
O38   O     O_R   0.319500 0.375040 0.673000 -0.451718
O39   O     O_R   0.180500 0.875040 0.327000 -0.450616
O40   O     O_R   0.819500 0.875040 0.673000 -0.440078
O41   O     O_R   0.780350 0.286720 0.192720 -0.512238
O42   O     O_R   0.219650 0.286720 0.807280 -0.518711
O43   O     O_R   0.280350 0.786720 0.192720 -0.519527
O44   O     O_R   0.719650 0.786720 0.807280 -0.511006
O45   O     O_R   0.757470 0.036630 0.196110 -0.510641
O46   O     O_R   0.242530 0.036630 0.803890 -0.509712
O47   O     O_R   0.257470 0.536630 0.196110 -0.503697
O48   O     O_R   0.742530 0.536630 0.803890 -0.508278
O49   O     O_R   0.663840 0.921160 0.179280 -0.532279
O50   O     O_R   0.336160 0.921160 0.820720 -0.522733
O51   O     O_R   0.163840 0.421160 0.179280 -0.530205
O52   O     O_R   0.836160 0.421160 0.820720 -0.536567
O53   O     O_3   0.381582 0.271274 0.990557 -0.586272
C97   C     C_3   0.353442 0.295206 0.052922 0.007451
H61   H     H_    0.392640 0.311522 0.097139 0.125108
H62   H     H_    0.330519 0.383292 0.047901 0.175908
C98   C     C_3   0.300376 0.200905 0.066895 -0.283670
H63   H     H_    0.265959 0.185183 0.018746 0.191765
H64   H     H_    0.328933 0.119215 0.082298 0.152269
C99   C     C_3   0.256609 0.229797 0.124287 -0.452905
H65   H     H_    0.283779 0.290300 0.163084 0.169087
H66   H     H_    0.242862 0.146995 0.150420 0.138018
H67   H     H_    0.207016 0.266794 0.101695 0.183561
O54   O     O_3   0.643030 0.151640 0.001921 -0.592209
C100  C     C_3   0.652727 0.193673 0.934104 0.018853
H68   H     H_    0.610543 0.187311 0.892545 0.111831
H69   H     H_    0.659945 0.289784 0.936241 0.148134
C101  C     C_3   0.714122 0.132404 0.908464 -0.266056
H70   H     H_    0.755471 0.122721 0.951682 0.196461
H71   H     H_    0.694079 0.045693 0.889298 0.165712
C102  C     C_3   0.744583 0.192820 0.848803 -0.467297
H72   H     H_    0.756246 0.125546 0.810153 0.159167
H73   H     H_    0.794788 0.231938 0.867902 0.181284
H74   H     H_    0.709590 0.261040 0.823157 0.151543
O55   O     O_3   0.841628 0.635189 0.989969 -0.591710
C103  C     C_3   0.826952 0.681819 0.055309 0.024365
H75   H     H_    0.866496 0.678974 0.099358 0.098446
H76   H     H_    0.819972 0.776835 0.050733 0.153444
C104  C     C_3   0.763972 0.622623 0.079177 -0.271749
H77   H     H_    0.725760 0.602915 0.034433 0.192857
H78   H     H_    0.783719 0.541401 0.105948 0.165184
C105  C     C_3   0.728276 0.692914 0.131496 -0.459994
H79   H     H_    0.763992 0.755609 0.161058 0.156926
H80   H     H_    0.707611 0.631023 0.168464 0.165753
H81   H     H_    0.683815 0.740838 0.104533 0.178055
O56   O     O_3   0.108416 0.757016 0.036436 -0.565692
C106  C     C_3   0.127064 0.813622 0.977322 0.015863
H82   H     H_    0.082816 0.837704 0.940041 0.129323
H83   H     H_    0.146934 0.902471 0.992031 0.158856
C107  C     C_3   0.180613 0.738853 0.945801 -0.265011
H84   H     H_    0.231585 0.744179 0.975968 0.183066
H85   H     H_    0.166237 0.644428 0.946137 0.169487
C108  C     C_3   0.183492 0.772664 0.871786 -0.474590
H86   H     H_    0.141506 0.724895 0.840854 0.141849
H87   H     H_    0.234232 0.746907 0.856448 0.168788
H88   H     H_    0.174647 0.869054 0.863136 0.174253
O57   O     O_3   0.643073 0.508117 0.422752 -0.573718
C109  C     C_3   0.572665 0.529888 0.427377 -0.003689
H89   H     H_    0.564211 0.553980 0.480890 0.105725
H90   H     H_    0.541268 0.450123 0.411427 0.155688
C110  C     C_3   0.548721 0.632892 0.379519 -0.247308
H91   H     H_    0.580161 0.713070 0.393812 0.158748
H92   H     H_    0.555830 0.608340 0.325688 0.176985
C111  C     C_3   0.473387 0.663092 0.383597 -0.473510
H93   H     H_    0.440644 0.583311 0.372283 0.142089
H94   H     H_    0.456862 0.733277 0.345309 0.157398
H95   H     H_    0.466236 0.697385 0.435567 0.134159
O58   O     O_3   0.358757 0.505041 0.576511 -0.579334
C112  C     C_3   0.428955 0.527242 0.571080 -0.003315
H96   H     H_    0.436662 0.552691 0.517559 0.106779
H97   H     H_    0.460604 0.447309 0.586104 0.155031
C113  C     C_3   0.453217 0.629336 0.619443 -0.247701
H98   H     H_    0.421430 0.709550 0.606073 0.158702
H99   H     H_    0.446780 0.603437 0.673250 0.176865
C114  C     C_3   0.528333 0.660419 0.614760 -0.473360
H100  H     H_    0.561359 0.580662 0.625051 0.141988
H101  H     H_    0.545088 0.729674 0.653519 0.158271
H102  H     H_    0.534795 0.696340 0.562957 0.133821
O59   O     O_3   0.143925 0.010231 0.422036 -0.573652
C115  C     C_3   0.073571 0.032467 0.426856 -0.004466
H103  H     H_    0.065295 0.056650 0.480426 0.104721
H104  H     H_    0.041989 0.952869 0.410956 0.155475
C116  C     C_3   0.049569 0.135538 0.379104 -0.247888
H105  H     H_    0.081109 0.215621 0.393307 0.159436
H106  H     H_    0.056416 0.111040 0.325198 0.175559
C117  C     C_3   0.974302 0.165824 0.383599 -0.473048
H107  H     H_    0.941426 0.086320 0.371818 0.142196
H108  H     H_    0.957784 0.236824 0.345832 0.158537
H109  H     H_    0.967324 0.198971 0.435870 0.134177
O60   O     O_3   0.857304 0.007338 0.577052 -0.572954
C118  C     C_3   0.927713 0.028862 0.572296 -0.003065
H110  H     H_    0.935912 0.055072 0.518993 0.105647
H111  H     H_    0.959006 0.948402 0.587104 0.151803
C119  C     C_3   0.952168 0.129825 0.621347 -0.247169
H112  H     H_    0.921258 0.211013 0.607823 0.159542
H113  H     H_    0.944686 0.103620 0.674860 0.177738
C120  C     C_3   0.027791 0.158563 0.617894 -0.472683
H114  H     H_    0.059909 0.077858 0.628855 0.137848
H115  H     H_    0.044609 0.227608 0.656758 0.160311
H116  H     H_    0.035498 0.193726 0.566217 0.135169
O61   O     O_3   0.688473 0.224239 0.584975 -0.613919
C121  C     C_3   0.688256 0.211456 0.657194 -0.002917
H117  H     H_    0.662264 0.290456 0.676521 0.151563
H118  H     H_    0.740409 0.205268 0.685946 0.132109
C122  C     C_3   0.648414 0.097581 0.670885 -0.270440
H119  H     H_    0.610060 0.079480 0.626063 0.188281
H120  H     H_    0.684614 0.021463 0.676494 0.181652
C123  C     C_3   0.610591 0.101891 0.734958 -0.452009
H121  H     H_    0.568368 0.035799 0.729762 0.172348
H122  H     H_    0.589233 0.191497 0.743493 0.159494
H123  H     H_    0.644737 0.073837 0.780353 0.148060
O62   O     O_3   0.311226 0.222146 0.412872 -0.613614
C124  C     C_3   0.310128 0.213556 0.340280 -0.000641
H124  H     H_    0.335356 0.294184 0.321853 0.151447
H125  H     H_    0.257578 0.207802 0.312263 0.134628
C125  C     C_3   0.350006 0.101780 0.323121 -0.269387
H126  H     H_    0.391303 0.083730 0.365235 0.187117
H127  H     H_    0.314840 0.024122 0.319353 0.176808
C126  C     C_3   0.382291 0.111510 0.255812 -0.457010
H128  H     H_    0.342773 0.100036 0.211741 0.137700
H129  H     H_    0.420319 0.038963 0.253182 0.169360
H130  H     H_    0.408684 0.198177 0.251634 0.164343
O63   O     O_3   0.189899 0.729559 0.587537 -0.600527
C127  C     C_3   0.199518 0.661958 0.649039 -0.011174
H131  H     H_    0.249610 0.614570 0.657590 0.138915
H132  H     H_    0.159147 0.592313 0.645790 0.155197
C128  C     C_3   0.191177 0.735495 0.712156 -0.250776
H133  H     H_    0.195810 0.670169 0.754650 0.105970
H134  H     H_    0.233726 0.799358 0.722803 0.194451
C129  C     C_3   0.121799 0.798596 0.708719 -0.378216
H135  H     H_    0.102914 0.827943 0.656018 0.180620
H136  H     H_    0.125837 0.878251 0.742423 0.144245
H137  H     H_    0.083745 0.737112 0.727209 0.152623
O64   O     O_3   0.810141 0.723376 0.413594 -0.614667
C130  C     C_3   0.809043 0.715402 0.341059 -0.000741
H138  H     H_    0.833744 0.796646 0.322727 0.153054
H139  H     H_    0.756506 0.708600 0.313099 0.135607
C131  C     C_3   0.849632 0.604776 0.323697 -0.262549
H140  H     H_    0.891752 0.587978 0.365176 0.185980
H141  H     H_    0.815166 0.526192 0.320497 0.184359
C132  C     C_3   0.880311 0.615972 0.255705 -0.462444
H142  H     H_    0.915770 0.540459 0.250075 0.163813
H143  H     H_    0.909126 0.700569 0.253036 0.153978
H144  H     H_    0.839086 0.611801 0.212760 0.144542

loop_
_geom_bond_atom_site_label_1
_geom_bond_atom_site_label_2
_ccdc_geom_bond_type
C81   O41   A    
C106  H83   S    
C94   H38   S    
C116  H105  S    
Cr2   O22   S    
Cr3   O19   S    
Cr4   O24   S    
C5    O57   S    
Cr6   O18   S    
C72   O4    A    
C15   H55   S    
Cr4   O20   S    
C46   O30   A    
C105  H80   S    
C98   C99   S    
C5    H41   S    
C103  H75   S    
C37   C42   S    
C51   C80   S    
C55   C74   S    
C40   C43   S    
C35   C36   S    
C111  H93   S    
C6    C94   S    
C25   H51   S    
C113  C114  S    
C26   H52   S    
Cr11  O39   S    
C40   O56   S    
C105  H81   S    
C71   O39   A    
Cr2   O46   S    
C74   O46   A    
Cr6   O26   S    
C41   C49   S    
C99   H65   S    
C121  H118  S    
C37   H34   S    
Cr12  O16   S    
C115  C116  S    
Cr7   O19   S    
Cr10  O18   S    
C12   H46   S    
C128  H134  S    
O64   C130  S    
C21   C29   S    
C3    O27   A    
C123  H121  S    
C23   C31   S    
Cr1   O17   S    
C24   C32   S    
C66   C82   S    
C11   C27   S    
C16   C20   S    
C12   C20   S    
C33   H17   S    
C48   C87   S    
C83   O15   A    
C125  C126  S    
C127  H131  S    
C35   H19   S    
C30   H58   S    
C31   H59   S    
C48   O32   A    
C110  H92   S    
C35   C51   S    
C79   O11   A    
O60   C118  S    
C50   C77   S    
C104  C105  S    
C4    O28   A    
C29   H5    S    
Cr4   O48   S    
C1    C20   S    
C27   H15   S    
C56   C73   S    
Cr11  O11   S    
C2    C19   S    
Cr12  O20   S    
C2    O22   A    
Cr9   O9    S    
Cr10  O38   S    
C85   C90   T    
C57   C61   S    
C59   C63   S    
C103  C104  S    
C60   C64   S    
C37   O53   S    
C10   C18   S    
C111  H95   S    
C75   O47   A    
C13   O61   S    
C128  H133  S    
C5    C21   S    
C124  H124  S    
C25   H13   S    
C99   H67   S    
C39   C51   S    
C67   C83   S    
C132  H142  S    
Cr4   O4    S    
Cr5   O5    S    
Cr12  O40   S    
C72   O40   A    
Cr3   O43   S    
C49   C78   S    
Cr1   O41   S    
C123  H123  S    
C116  H106  S    
C36   H24   S    
C108  H86   S    
Cr5   O29   S    
C122  H120  S    
C45   O29   A    
C101  H70   S    
C59   C67   T    
C131  H141  S    
C120  H115  S    
C55   C63   T    
C56   C64   T    
C52   C79   S    
C6    O58   S    
C100  H68   S    
C36   C52   S    
C44   C52   S    
Cr1   O21   S    
C20   C96   S    
C112  H96   S    
C114  H102  S    
Cr8   O32   S    
C47   O31   A    
C36   H20   S    
Cr5   O17   S    
C31   H7    S    
C98   H63   S    
C39   O55   S    
Cr8   O20   S    
C119  H113  S    
C84   O16   A    
C95   H39   S    
C113  H98   S    
C38   C41   S    
C91   C92   S    
C126  H129  S    
C125  H126  S    
C97   C98   S    
C77   O9    A    
C21   C69   S    
C115  H104  S    
Cr11  O35   S    
O53   C97   S    
C100  H69   S    
Cr9   O33   S    
C88   C91   T    
C124  C125  S    
C74   O50   A    
C102  H73   S    
C69   O1    A    
C97   H62   S    
C109  H90   S    
C42   C50   S    
C132  H144  S    
C129  H136  S    
C130  H139  S    
C38   H33   S    
C71   O3    A    
C17   C93   S    
C19   C95   S    
C24   C72   S    
C131  C132  S    
C9    C17   S    
C21   C25   S    
C22   C30   S    
C24   C28   S    
C109  C110  S    
C108  H88   S    
C28   H16   S    
C15   C31   S    
C39   C44   S    
O62   C124  S    
C16   C32   S    
C129  H137  S    
C82   O14   A    
C69   O37   A    
C101  C102  S    
C13   C17   S    
C107  H84   S    
C44   H27   S    
C7    C23   S    
C8    C24   S    
C103  H76   S    
C43   H28   S    
C100  C101  S    
C7    O59   S    
C11   H45   S    
C54   C75   S    
Cr2   O2    S    
O58   C112  S    
C9    H47   S    
C125  H127  S    
C112  C113  S    
C114  H100  S    
Cr9   O13   S    
C87   C92   T    
C22   C70   S    
C93   H1    S    
C82   O42   A    
C1    O21   A    
C58   C62   S    
C42   H30   S    
C4    O24   A    
C102  H72   S    
C127  C128  S    
C99   H66   S    
C9    C25   S    
C15   C19   S    
C11   C19   S    
C12   C28   S    
C13   C29   S    
C117  H107  S    
C33   C49   S    
O55   C103  S    
C6    C22   S    
C123  H122  S    
C29   H57   S    
C41   H29   S    
C46   C85   S    
C106  C107  S    
C14   O62   S    
C44   H32   S    
Cr1   O45   S    
C110  H91   S    
C73   O45   A    
Cr7   O27   S    
Cr5   O25   S    
C104  H78   S    
C96   H40   S    
C68   C84   S    
C23   C71   S    
C117  H109  S    
Cr8   O8    S    
C38   O54   S    
C54   C62   T    
C105  H79   S    
C94   H2    S    
C16   H56   S    
C2    O26   A    
C14   H54   S    
C15   O63   S    
C118  H110  S    
O56   C106  S    
Cr2   O42   S    
C76   O48   A    
C65   C81   S    
O59   C115  S    
C34   H18   S    
Cr7   O7    S    
Cr8   O28   S    
C47   O35   A    
C7    H43   S    
C4    C17   S    
C53   C76   S    
C27   H49   S    
C35   H23   S    
C30   H6    S    
C33   H21   S    
C48   O36   A    
C121  H117  S    
C77   O5    A    
C8    H44   S    
C78   O10   A    
C57   C65   T    
C86   C89   T    
C128  C129  S    
C84   O44   A    
Cr9   O37   S    
Cr6   O6    S    
C70   O2    A    
C126  H128  S    
Cr2   O18   S    
C115  H103  S    
Cr3   O23   S    
C43   C51   S    
C122  H119  S    
C76   O52   A    
O54   C100  S    
C101  H71   S    
C45   C86   S    
C6    H42   S    
C46   O34   A    
C60   C68   T    
C120  H114  S    
C22   C26   S    
C110  C111  S    
C26   H14   S    
C89   C90   S    
Cr7   O51   S    
C121  C122  S    
C16   O64   S    
C130  H138  S    
C114  H101  S    
C9    H9    S    
C14   C18   S    
C1    O25   A    
C8    C96   S    
C81   O13   A    
O63   C127  S    
C11   H11   S    
Cr1   O1    S    
O61   C121  S    
C96   H4    S    
C119  C120  S    
C42   H25   S    
C80   O12   A    
C113  H99   S    
C75   O51   A    
Cr6   O30   S    
Cr3   O3    S    
Cr11  O19   S    
C37   C49   S    
Cr12  O12   S    
C3    C18   S    
Cr9   O17   S    
Cr8   O52   S    
C98   H64   S    
C12   H12   S    
C58   C66   T    
Cr10  O14   S    
C124  H125  S    
C43   H31   S    
C23   C27   S    
O57   C109  S    
C10   C26   S    
C132  H143  S    
C53   C61   T    
C14   C30   S    
C28   H50   S    
C41   H26   S    
C118  C119  S    
C34   C50   S    
C79   O7    A    
C116  C117  S    
C80   O8    A    
C10   H48   S    
C108  H87   S    
Cr6   O50   S    
C122  C123  S    
C40   C52   S    
Cr4   O44   S    
C32   H8    S    
Cr11  O15   S    
C107  H85   S    
C10   H10   S    
C3    O23   A    
Cr10  O34   S    
C120  H116  S    
C33   C34   S    
C73   O49   A    
Cr7   O31   S    
C39   H36   S    
C93   H37   S    
C118  H111  S    
C111  H94   S    
C112  H97   S    
C18   C94   S    
C40   H35   S    
C107  C108  S    
C106  H82   S    
C119  H112  S    
C8    O60   S    
C126  H130  S    
C5    C93   S    
C104  H77   S    
C13   H53   S    
C38   C50   S    
C70   O38   A    
C7    C95   S    
C47   C88   S    
C32   H60   S    
Cr12  O36   S    
C95   H3    S    
C117  H108  S    
C131  H140  S    
Cr3   O47   S    
Cr10  O10   S    
C102  H74   S    
C97   H61   S    
C109  H89   S    
Cr5   O49   S    
C127  H132  S    
C34   H22   S    
C45   O33   A    
C129  H135  S    
C130  C131  S    
C78   O6    A    
C83   O43   A    
