data_mof_unit_58840.cif
_audit_creation_date              2012-12-11T17:00:21-0500
_audit_creation_method            fapswitch 2.2
_symmetry_space_group_name_H-M    P1
_symmetry_Int_Tables_number       1
_space_group_crystal_system       triclinic
_cell_length_a                    6.987089
_cell_length_b                    13.552977
_cell_length_c                    20.256712
_cell_angle_alpha                 103.039697
_cell_angle_beta                  89.844236
_cell_angle_gamma                 90.808322
_cell_volume                      1868.57707033

loop_
_atom_site_label
_atom_site_type_symbol
_atom_type_description
_atom_site_fract_x
_atom_site_fract_y
_atom_site_fract_z
_atom_type_partial_charge
O1    O     O_R   0.506770 0.599700 0.449550 -0.540652
O2    O     O_R   0.179980 0.595740 0.587960 -0.543619
O3    O     O_R   0.004580 0.400300 0.550450 -0.535481
C1    C     C_R   0.348128 0.616742 0.615312 0.688028
O4    O     O_R   0.177380 0.611700 0.452380 -0.541541
O5    O     O_R   0.001970 0.416370 0.413900 -0.533933
C2    C     C_R   0.347649 0.638752 0.436005 0.725841
O6    O     O_R   0.509390 0.583630 0.586100 -0.542815
O7    O     O_3   0.337530 0.435890 0.487530 -0.367330
V1    V     V_3+5 0.064660 0.511890 0.502310 1.425013
O8    O     O_R   0.671950 0.404260 0.412040 -0.538871
C3    C     C_R   0.839702 0.386453 0.383632 0.695159
O9    O     O_R   0.674540 0.388300 0.547620 -0.544161
C4    C     C_R   0.842546 0.363179 0.565510 0.702632
V2    V     V_3+5 0.564030 0.488110 0.497690 1.420160
O10   O     O_3   0.841030 0.564110 0.512470 -0.373607
C5    C     C_R   0.968786 0.118738 0.610094 0.167199
H1    H     H_    0.968991 0.179493 0.520562 0.132702
C6    C     C_R   0.853780 0.285232 0.605066 -0.155421
C7    C     C_R   0.828994 0.316722 0.930723 0.342132
C8    C     C_R   0.831758 0.393003 0.894287 -0.240041
C9    C     C_R   0.854729 0.368967 0.824224 -0.114564
C10   C     C_R   0.867328 0.267113 0.787456 0.109244
C11   C     C_R   0.887406 0.191578 0.825015 -0.055262
C12   C     C_R   0.871785 0.239239 0.714942 -0.033322
C13   C     C_R   0.937111 0.140527 0.681703 0.021701
C14   C     C_R   0.968956 0.067774 0.721169 0.359256
C15   C     C_R   0.935344 0.093135 0.791102 -0.269284
C16   C     C_R   0.808734 0.306195 0.674725 0.287142
C17   C     C_R   0.934767 0.193355 0.574122 -0.202964
C18   C     C_R   0.862973 0.216478 0.896403 -0.089971
H2    H     H_    0.870951 0.432152 0.800372 0.171132
H3    H     H_    0.817986 0.471707 0.920271 0.117299
H4    H     H_    0.954518 0.035164 0.819392 0.105677
C19   C     C_R   0.692825 0.203549 0.219093 0.023273
C20   C     C_R   0.862804 0.191534 0.181560 -0.143695
C21   C     C_R   0.013080 0.260065 0.205570 -0.199772
H5    H     H_    0.130077 0.266397 0.172085 0.150958
C22   C     C_R   0.000827 0.330052 0.268601 0.324694
C23   C     C_R   0.846819 0.323728 0.312991 -0.169468
C24   C     C_R   0.685263 0.268831 0.283965 -0.029355
C25   C     C_3   0.505031 0.316344 0.266732 0.034927
C26   C     C_3   0.508795 0.242681 0.197643 -0.038635
H6    H     H_    0.386023 0.300447 0.299364 0.157129
H7    H     H_    0.395722 0.182889 0.191933 0.113566
C27   C     C_R   0.504950 0.753325 0.704829 0.112230
C28   C     C_R   0.351313 0.686920 0.683057 -0.102500
C29   C     C_R   0.192273 0.692737 0.726843 -0.156521
H8    H     H_    0.070328 0.642811 0.712145 0.133797
C30   C     C_R   0.194350 0.757709 0.791879 -0.203896
H9    H     H_    0.074446 0.756179 0.825424 0.134934
C31   C     C_R   0.356067 0.818268 0.815220 -0.117921
C32   C     C_R   0.507669 0.816719 0.769517 0.130341
C33   C     C_3   0.714197 0.797976 0.778714 -0.408163
C34   C     C_3   0.711599 0.729868 0.708075 -0.410668
H10   H     H_    0.737814 0.756179 0.819264 0.170139
H11   H     H_    0.802673 0.867618 0.782764 0.170610
H12   H     H_    0.734774 0.648697 0.707572 0.170440
H13   H     H_    0.798102 0.760472 0.670891 0.194079
C35   C     C_R   0.479796 0.886699 0.389755 0.337634
H14   H     H_    0.564696 0.000149 0.298569 0.133715
C36   C     C_R   0.365379 0.719960 0.398920 -0.108623
C37   C     C_R   0.269184 0.691791 0.074282 -0.163253
C38   C     C_R   0.223758 0.620170 0.111788 0.199860
C39   C     C_R   0.254771 0.643084 0.181798 -0.185008
C40   C     C_R   0.333759 0.737803 0.215980 0.073889
C41   C     C_R   0.383131 0.809260 0.176565 0.067601
C42   C     C_R   0.364030 0.764075 0.287894 0.053835
C43   C     C_R   0.444542 0.860627 0.318751 0.020004
C44   C     C_R   0.495557 0.927927 0.277908 -0.193349
C45   C     C_R   0.463345 0.903347 0.208616 -0.190455
C46   C     C_R   0.320786 0.696529 0.329946 -0.283737
C47   C     C_R   0.448157 0.814783 0.429100 0.106845
C48   C     C_R   0.348328 0.785782 0.105765 -0.124564
H15   H     H_    0.260524 0.622357 0.310254 0.127874
H16   H     H_    0.239454 0.675234 0.020350 0.105575
H17   H     H_    0.212821 0.585219 0.207771 0.131758
H18   H     H_    0.504516 0.958995 0.180196 0.121464
O11   O     O_R   0.203450 0.916320 0.913910 -0.544612
O12   O     O_R   0.535520 0.888300 0.047620 -0.542073
O13   O     O_R   0.710860 0.083650 0.086100 -0.542823
C49   C     C_R   0.365582 0.862797 0.065259 0.697663
O14   O     O_R   0.532860 0.904250 0.912040 -0.542575
O15   O     O_R   0.708190 0.099710 0.949550 -0.536708
C50   C     C_R   0.364291 0.883047 0.884763 0.696221
O16   O     O_R   0.206120 0.900260 0.050460 -0.536524
O17   O     O_3   0.375280 0.064080 0.012470 -0.375949
V3    V     V_3+5 0.648180 0.988110 0.997690 1.413865
O18   O     O_R   0.038220 0.111740 0.952370 -0.543238
C51   C     C_R   0.870181 0.138301 0.935859 0.766811
O19   O     O_R   0.040880 0.095790 0.087940 -0.545372
C52   C     C_R   0.872242 0.119711 0.114294 0.735469
V4    V     V_3+5 0.148800 0.011950 0.002300 1.415896
O20   O     O_3   0.871820 0.935920 0.987530 -0.376873
O21   O     O_3   0.125456 0.411346 0.280673 -0.669655
H19   H     H_    0.061304 0.470609 0.309260 0.275828
C53   C     C_3   0.531131 0.430445 0.266845 -0.649100
H20   H     H_    0.422213 0.455889 0.235100 0.229510
H21   H     H_    0.516555 0.476845 0.319081 0.205818
H22   H     H_    0.672950 0.447226 0.246733 0.186957
C54   C     C_3   0.522473 0.290871 0.135448 -0.662672
H23   H     H_    0.519389 0.231986 0.087838 0.236549
H24   H     H_    0.397399 0.339406 0.133732 0.186227
H25   H     H_    0.655091 0.337288 0.136319 0.222299
O22   O     O_3   0.028986 0.971265 0.691232 -0.660177
H26   H     H_    0.059544 0.933582 0.726417 0.288036
C55   C     C_3   0.503782 0.842004 0.503220 -0.672643
H27   H     H_    0.455737 0.785141 0.531593 0.167955
H28   H     H_    0.661856 0.849931 0.507598 0.213039
H29   H     H_    0.439075 0.915099 0.528273 0.217337
O23   O     O_3   0.550430 0.980872 0.422064 -0.647654
H30   H     H_    0.483113 0.032586 0.403630 0.275771
C56   C     C_3   0.136712 0.519609 0.077924 -0.764242
H31   H     H_    0.113899 0.513424 0.022877 0.206743
H32   H     H_    0.232789 0.457901 0.084072 0.211992
H33   H     H_    0.996415 0.509679 0.101647 0.211616
C57   C     C_3   0.045403 0.019411 0.569940 -0.641316
H34   H     H_    0.943153 0.956781 0.572038 0.229229
H35   H     H_    0.066024 0.019307 0.515511 0.182461
H36   H     H_    0.187181 0.005240 0.590157 0.222739
O24   O     O_3   0.695087 0.387356 0.703974 -0.663741
H37   H     H_    0.651069 0.424037 0.670038 0.286274
O25   O     O_3   0.799958 0.338493 0.999967 -0.666430
H38   H     H_    0.769161 0.411253 0.015458 0.283005

loop_
_geom_bond_atom_site_label_1
_geom_bond_atom_site_label_2
_ccdc_geom_bond_type
H14   C44   S    
C40   C42   A    
O17   V3    S    
C25   H6    S    
V4    O20   S    
C34   H13   S    
C24   C25   S    
O21   H19   S    
C1    O6    A    
C53   H20   S    
O25   H38   S    
C32   C33   S    
C13   C14   A    
C54   H23   S    
C9    H2    S    
C5    C13   A    
C31   C50   S    
O11   V4    S    
C57   H35   S    
O5    C3    A    
C47   C55   S    
C8    H3    S    
C37   H16   S    
C14   O22   S    
V2    O10   S    
C35   C47   A    
C7    O25   S    
C33   C34   S    
O13   C52   A    
O8    V2    S    
C19   C20   A    
C42   C43   A    
C16   O24   S    
C27   C34   S    
C30   C31   A    
C55   H27   S    
C36   C47   A    
C44   C45   A    
H1    C17   S    
C19   C26   S    
O7    V1    S    
C5    C57   S    
C56   H33   S    
C20   C52   S    
C29   C30   A    
C40   C41   A    
C15   H4    S    
C54   H24   S    
C8    C9    A    
C5    C17   A    
C55   H28   S    
O15   C51   A    
C48   C49   S    
C46   H15   S    
C53   H21   S    
C33   H10   S    
C12   C16   A    
C21   C22   A    
V3    O20   S    
C39   H17   S    
C11   C15   A    
O12   C49   A    
C57   H36   S    
O19   C52   A    
O4    C2    A    
C12   C13   A    
C49   O16   A    
C42   C46   A    
C3    C23   S    
O2    C1    A    
C26   C54   S    
C2    C36   S    
C21   H5    S    
O16   V4    S    
O19   V4    S    
C28   C29   A    
C10   C11   A    
C18   C51   S    
C30   H9    S    
C36   C46   A    
C41   C48   A    
C26   H7    S    
C22   O21   S    
O24   H37   S    
O3    C4    A    
O1    V2    S    
C23   C24   A    
O14   C50   A    
C54   H25   S    
O9    V2    S    
C55   H29   S    
C25   C53   S    
C25   C26   S    
O2    V1    S    
O11   C50   A    
C53   H22   S    
C31   C32   A    
C56   H31   S    
C27   C28   A    
C29   H8    S    
C38   C56   S    
O23   H30   S    
O1    C2    A    
C4    C6    S    
O15   V3    S    
O5    V1    S    
O8    C3    A    
C37   C48   A    
O6    V2    S    
O22   H26   S    
C38   C39   A    
O7    V2    S    
C11   C18   A    
O4    V1    S    
O12   V3    S    
O3    V1    S    
V1    O10   S    
C57   H34   S    
C33   H11   S    
C35   C43   A    
O17   V4    S    
C27   C32   A    
O14   V3    S    
C41   C45   A    
C10   C12   A    
O18   V4    S    
C43   C44   A    
C19   C24   A    
O13   V3    S    
C37   C38   A    
C22   C23   A    
C7    C8    A    
C20   C21   A    
C39   C40   A    
C34   H12   S    
C14   C15   A    
C35   O23   S    
C9    C10   A    
O18   C51   A    
O9    C4    A    
C6    C17   A    
C1    C28   S    
C45   H18   S    
C56   H32   S    
C7    C18   A    
C6    C16   A    
