data_mof_unit_19722.cif
_audit_creation_date              2013-03-05T15:45:58-0500
_audit_creation_method            fapswitch 2.2
_symmetry_space_group_name_H-M    P1
_symmetry_Int_Tables_number       1
_space_group_crystal_system       triclinic
_cell_length_a                    19.106148
_cell_length_b                    11.041675
_cell_length_c                    18.765847
_cell_angle_alpha                 90.077587
_cell_angle_beta                  88.829893
_cell_angle_gamma                 89.986164
_cell_volume                      3958.08652259

loop_
_atom_site_label
_atom_site_type_symbol
_atom_site_description
_atom_site_fract_x
_atom_site_fract_y
_atom_site_fract_z
_atom_type_partial_charge
O1    O     O_R   0.787510 0.042610 0.670410 -0.428762
O2    O     O_R   0.212490 0.042610 0.329590 -0.427414
O3    O     O_R   0.287510 0.542610 0.670410 -0.428761
O4    O     O_R   0.712490 0.542610 0.329590 -0.427415
O5    O     O_R   0.765670 0.292090 0.675090 -0.513511
O6    O     O_R   0.234330 0.292090 0.324910 -0.513545
O7    O     O_R   0.265670 0.792090 0.675090 -0.513511
O8    O     O_R   0.734330 0.792090 0.324910 -0.513543
C1    C     C_R   0.733240 0.384845 0.649835 0.556559
C2    C     C_R   0.266731 0.384915 0.350133 0.558200
C3    C     C_R   0.233240 0.884845 0.649835 0.556560
C4    C     C_R   0.766731 0.884915 0.350133 0.558200
O9    O     O_R   0.670220 0.409020 0.668560 -0.432902
O10   O     O_R   0.329780 0.409020 0.331440 -0.432134
O11   O     O_R   0.170220 0.909020 0.668560 -0.432901
O12   O     O_R   0.829780 0.909020 0.331440 -0.432133
O13   O     O_R   0.556580 0.251590 0.674980 -0.458222
O14   O     O_R   0.443420 0.251590 0.325020 -0.456956
O15   O     O_R   0.056580 0.751590 0.674980 -0.458224
O16   O     O_R   0.943420 0.751590 0.325020 -0.456950
C5    C     C_R   0.531617 0.152474 0.647291 0.549988
C6    C     C_R   0.468394 0.152547 0.352714 0.553272
C7    C     C_R   0.031617 0.652474 0.647291 0.549978
C8    C     C_R   0.968394 0.652547 0.352714 0.553289
O17   O     O_R   0.545890 0.049670 0.670030 -0.507919
O18   O     O_R   0.454110 0.049670 0.329970 -0.506402
O19   O     O_R   0.045890 0.549670 0.670030 -0.507925
O20   O     O_R   0.954110 0.549670 0.329970 -0.506395
O21   O     O_R   0.681340 0.957860 0.676500 -0.500207
O22   O     O_R   0.318660 0.957860 0.323500 -0.499083
O23   O     O_R   0.181340 0.457860 0.676500 -0.500207
O24   O     O_R   0.818660 0.457860 0.323500 -0.499083
C9    C     C_R   0.729007 0.020399 0.639375 0.556534
C10   C     C_R   0.270949 0.020357 0.360677 0.556748
C11   C     C_R   0.229007 0.520399 0.639375 0.556533
C12   C     C_R   0.770949 0.520357 0.360677 0.556749
O25   O     O_R   0.787380 0.044010 0.830940 -0.494983
O26   O     O_R   0.212620 0.044010 0.169060 -0.489314
O27   O     O_R   0.287380 0.544010 0.830940 -0.494966
O28   O     O_R   0.712620 0.544010 0.169060 -0.489314
O29   O     O_R   0.765540 0.293390 0.823910 -0.520233
O30   O     O_R   0.234460 0.293390 0.176090 -0.519690
O31   O     O_R   0.265540 0.793390 0.823910 -0.520231
O32   O     O_R   0.734460 0.793390 0.176090 -0.519689
C13   C     C_R   0.730040 0.379405 0.851554 0.532568
C14   C     C_R   0.270127 0.379273 0.148343 0.531042
C15   C     C_R   0.230040 0.879406 0.851554 0.532574
C16   C     C_R   0.770128 0.879273 0.148342 0.531029
O33   O     O_R   0.670090 0.410410 0.829090 -0.488633
O34   O     O_R   0.329910 0.410410 0.170910 -0.496998
O35   O     O_R   0.170090 0.910410 0.829090 -0.488643
O36   O     O_R   0.829910 0.910410 0.170910 -0.497024
O37   O     O_R   0.556450 0.252890 0.823790 -0.445288
O38   O     O_R   0.443550 0.252890 0.176210 -0.446036
O39   O     O_R   0.056450 0.752890 0.823790 -0.445294
O40   O     O_R   0.943550 0.752890 0.176210 -0.446034
C17   C     C_R   0.530066 0.157713 0.852156 0.558971
C18   C     C_R   0.466996 0.156780 0.145737 0.567507
C19   C     C_R   0.030057 0.657716 0.852149 0.558942
C20   C     C_R   0.966975 0.656775 0.145725 0.567561
O41   O     O_R   0.545750 0.051070 0.830560 -0.526695
O42   O     O_R   0.454250 0.051070 0.169440 -0.529033
O43   O     O_R   0.045750 0.551070 0.830560 -0.526667
O44   O     O_R   0.954250 0.551070 0.169440 -0.529022
O45   O     O_R   0.681210 0.959150 0.825320 -0.501878
O46   O     O_R   0.318790 0.959150 0.174680 -0.506543
O47   O     O_R   0.181210 0.459150 0.825320 -0.501870
O48   O     O_R   0.818790 0.459150 0.174680 -0.506562
C21   C     C_R   0.739746 0.976070 0.856132 0.559396
C22   C     C_R   0.260617 0.977217 0.143475 0.562056
C23   C     C_R   0.239746 0.476071 0.856133 0.559404
C24   C     C_R   0.760618 0.477220 0.143474 0.562031
Cr1   Cr    Cr6+3 0.771950 0.169480 0.750100 1.095083
Cr2   Cr    Cr6+3 0.228050 0.169480 0.249900 1.097114
Cr3   Cr    Cr6+3 0.271950 0.669480 0.750100 1.095094
Cr4   Cr    Cr6+3 0.728050 0.669480 0.249900 1.097103
Cr5   Cr    Cr6+3 0.614930 0.323340 0.749170 1.154111
Cr6   Cr    Cr6+3 0.385070 0.323340 0.250830 1.151026
Cr7   Cr    Cr6+3 0.114930 0.823340 0.749170 1.154109
Cr8   Cr    Cr6+3 0.885070 0.823340 0.250830 1.151015
Cr9   Cr    Cr6+3 0.616590 0.010620 0.750610 1.062637
Cr10  Cr    Cr6+3 0.383410 0.010620 0.249390 1.061841
Cr11  Cr    Cr6+3 0.116590 0.510620 0.750610 1.062647
Cr12  Cr    Cr6+3 0.883410 0.510620 0.249390 1.061838
O49   O     O_3   0.667820 0.167810 0.749960 -0.311725
O50   O     O_3   0.332180 0.167810 0.250040 -0.314443
O51   O     O_3   0.167820 0.667810 0.749960 -0.311725
O52   O     O_3   0.832180 0.667810 0.250040 -0.314453
C25   C     C_R   0.495905 0.146107 0.424284 -0.008252
C26   C     C_R   0.503971 0.145948 0.575784 -0.007816
C27   C     C_R   0.995905 0.646107 0.424284 -0.008253
C28   C     C_R   0.003971 0.645948 0.575784 -0.007815
C29   C     C_R   0.499486 0.249139 0.464392 -0.049283
C30   C     C_R   0.499778 0.249075 0.535980 -0.049475
C31   C     C_R   0.999486 0.749139 0.464392 -0.049283
C32   C     C_R   0.999779 0.749075 0.535980 -0.049475
C33   C     C_R   0.499912 0.032634 0.537794 0.067823
C34   C     C_R   0.500303 0.032727 0.462009 0.067706
C35   C     C_R   0.999912 0.532634 0.537794 0.067823
C36   C     C_R   0.000303 0.532727 0.462009 0.067705
C37   C     C_3   0.498999 0.382490 0.459602 0.145697
C38   C     C_3   0.500295 0.382475 0.541005 0.145115
C39   C     C_3   0.998999 0.882490 0.459602 0.145697
C40   C     C_3   0.000295 0.882475 0.541005 0.145115
H1    H     H_    0.545432 0.417869 0.430482 0.199803
H2    H     H_    0.453872 0.418024 0.570187 0.198962
H3    H     H_    0.045431 0.917869 0.430482 0.199804
H4    H     H_    0.953872 0.918023 0.570187 0.198962
C41   C     C_R   0.683002 0.929113 0.528763 -0.145734
C42   C     C_R   0.317277 0.929960 0.471352 -0.145292
C43   C     C_R   0.183002 0.429113 0.528763 -0.145733
C44   C     C_R   0.817277 0.429960 0.471352 -0.145292
H5    H     H_    0.642825 0.886436 0.561044 0.212376
H6    H     H_    0.357847 0.888064 0.439129 0.212312
H7    H     H_    0.142825 0.386436 0.561044 0.212376
H8    H     H_    0.857847 0.388065 0.439129 0.212311
C45   C     C_R   0.687291 0.900427 0.456345 -0.120907
C46   C     C_R   0.312960 0.901266 0.543760 -0.120887
C47   C     C_R   0.187291 0.400427 0.456345 -0.120906
C48   C     C_R   0.812960 0.401266 0.543760 -0.120887
H9    H     H_    0.653763 0.834385 0.433603 0.224993
H10   H     H_    0.346864 0.835968 0.566585 0.225133
H11   H     H_    0.153763 0.334385 0.433603 0.224993
H12   H     H_    0.846864 0.335968 0.566585 0.225133
C49   C     C_R   0.738422 0.951252 0.413048 -0.018691
C50   C     C_R   0.261418 0.951291 0.586967 -0.019733
C51   C     C_R   0.238422 0.451252 0.413048 -0.018688
C52   C     C_R   0.761418 0.451291 0.586967 -0.019735
C53   C     C_R   0.775507 0.049416 0.439334 -0.041465
C54   C     C_R   0.223974 0.048986 0.560684 -0.042078
C55   C     C_R   0.275507 0.549416 0.439334 -0.041463
C56   C     C_R   0.723974 0.548987 0.560684 -0.042079
H13   H     H_    0.810010 0.097060 0.402631 0.203927
H14   H     H_    0.189230 0.096390 0.597347 0.204344
H15   H     H_    0.310010 0.597060 0.402631 0.203927
H16   H     H_    0.689230 0.596390 0.597347 0.204344
C57   C     C_R   0.783655 0.062740 0.513319 0.226665
C58   C     C_R   0.215919 0.062119 0.486701 0.225945
C59   C     C_R   0.283655 0.562740 0.513319 0.226664
C60   C     C_R   0.715918 0.562119 0.486701 0.225946
C61   C     C_R   0.734027 0.002557 0.560335 -0.012542
C62   C     C_R   0.265895 0.002519 0.439713 -0.012878
C63   C     C_R   0.234027 0.502557 0.560335 -0.012543
C64   C     C_R   0.765895 0.502519 0.439713 -0.012879
C65   C     C_R   0.484391 0.059683 0.958480 -0.182230
C66   C     C_R   0.482406 0.056945 0.031236 -0.181062
C67   C     C_R   0.984255 0.559714 0.958435 -0.182209
C68   C     C_R   0.982245 0.556955 0.031191 -0.181034
H17   H     H_    0.480713 0.974099 0.930429 0.165387
H18   H     H_    0.473359 0.969569 0.055961 0.168524
H19   H     H_    0.980534 0.474148 0.930369 0.165354
H20   H     H_    0.973131 0.469585 0.055905 0.168506
C69   C     C_R   0.489137 0.163801 0.071053 -0.020040
C70   C     C_R   0.497283 0.168259 0.922715 -0.018350
C71   C     C_R   0.989064 0.663785 0.071023 -0.020043
C72   C     C_R   0.997231 0.668282 0.922688 -0.018344
C73   C     C_R   0.498226 0.276071 0.035890 0.188859
C74   C     C_R   0.498435 0.278967 0.960912 0.191924
C75   C     C_R   0.998207 0.776053 0.035874 0.188854
C76   C     C_R   0.998416 0.778979 0.960898 0.191915
C77   C     C_R   0.795547 0.010510 0.970402 -0.094574
C78   C     C_R   0.209730 0.020690 0.027759 -0.082781
C79   C     C_R   0.295529 0.510548 0.970409 -0.094510
C80   C     C_R   0.709746 0.520719 0.027754 -0.082816
H21   H     H_    0.833568 0.070209 0.945281 0.170791
H22   H     H_    0.174607 0.086169 0.052224 0.163784
H23   H     H_    0.333539 0.570272 0.945292 0.170773
H24   H     H_    0.674634 0.586219 0.052216 0.163748
C81   C     C_R   0.796440 0.001453 0.043265 -0.110730
C82   C     C_R   0.208737 0.009495 0.954858 -0.101788
C83   C     C_R   0.296420 0.501487 0.043273 -0.110673
C84   C     C_R   0.708750 0.509513 0.954854 -0.101791
H25   H     H_    0.835895 0.051462 0.071641 0.178275
H26   H     H_    0.172031 0.063776 0.925406 0.172779
H27   H     H_    0.335860 0.551525 0.071655 0.178254
H28   H     H_    0.672052 0.563804 0.925398 0.172751
C85   C     C_R   0.751022 0.921399 0.078213 0.024574
C86   C     C_R   0.250323 0.922058 0.921253 0.024470
C87   C     C_R   0.251017 0.421402 0.078216 0.024575
C88   C     C_R   0.750324 0.422053 0.921254 0.024477
C89   C     C_R   0.698576 0.861643 0.040130 -0.135942
C90   C     C_R   0.299868 0.856841 0.960354 -0.137944
C91   C     C_R   0.198580 0.361625 0.040128 -0.135919
C92   C     C_R   0.799856 0.356816 0.960358 -0.137958
H29   H     H_    0.661973 0.801034 0.066627 0.141361
H30   H     H_    0.333658 0.790280 0.934913 0.139616
H31   H     H_    0.161986 0.300996 0.066621 0.141375
H32   H     H_    0.833635 0.290233 0.934922 0.139614
C93   C     C_R   0.695775 0.874560 0.966522 -0.143405
C94   C     C_R   0.302637 0.871142 0.033827 -0.146943
C95   C     C_R   0.195781 0.374545 0.966520 -0.143395
C96   C     C_R   0.802626 0.371122 0.033832 -0.146977
H33   H     H_    0.655279 0.828210 0.937520 0.140211
H34   H     H_    0.340349 0.819671 0.063697 0.134169
H35   H     H_    0.155295 0.328177 0.937515 0.140222
H36   H     H_    0.840326 0.319631 0.063704 0.134146
C97   C     C_R   0.745804 0.946345 0.931092 0.030782
C98   C     C_R   0.255529 0.949884 0.068121 0.037278
C99   C     C_R   0.245800 0.446356 0.931095 0.030789
C100  C     C_R   0.755531 0.449891 0.068120 0.037266
I1    I     I_    0.490182 0.858099 0.591331 -0.146386
I2    I     I_    0.510509 0.858345 0.408074 -0.145032
I3    I     I_    0.990182 0.358099 0.591331 -0.146390
I4    I     I_    0.010509 0.358345 0.408074 -0.145024
N1    N     N_R   0.933611 0.927203 0.434583 0.101395
O53   O     O_R   0.933098 0.017686 0.390309 -0.259649
O54   O     O_R   0.875981 0.877248 0.457996 -0.381347
N2    N     N_R   0.065724 0.927096 0.566044 0.101630
O55   O     O_R   0.066312 0.017646 0.610412 -0.260486
O56   O     O_R   0.123329 0.877172 0.542415 -0.380249
N3    N     N_R   0.433611 0.427203 0.434583 0.101396
O57   O     O_R   0.433099 0.517686 0.390309 -0.259647
O58   O     O_R   0.375981 0.377249 0.457996 -0.381347
N4    N     N_R   0.565724 0.427096 0.566044 0.101629
O59   O     O_R   0.566312 0.517646 0.610412 -0.260488
O60   O     O_R   0.623329 0.377171 0.542415 -0.380250
N5    N     N_R   0.847656 0.121868 0.534963 0.072775
O61   O     O_R   0.881024 0.088462 0.591032 -0.285811
O62   O     O_R   0.884250 0.181526 0.487523 -0.317068
N6    N     N_R   0.151802 0.120709 0.464975 0.072275
O63   O     O_R   0.118584 0.086801 0.408865 -0.285699
O64   O     O_R   0.115056 0.180546 0.512322 -0.316895
N7    N     N_R   0.347656 0.621868 0.534963 0.072774
O65   O     O_R   0.381023 0.588464 0.591032 -0.285811
O66   O     O_R   0.384250 0.681526 0.487523 -0.317067
N8    N     N_R   0.651802 0.620709 0.464975 0.072275
O67   O     O_R   0.618584 0.586801 0.408865 -0.285699
O68   O     O_R   0.615056 0.680546 0.512322 -0.316894
N9    N     N_R   0.507567 0.385750 0.075830 0.112959
O69   O     O_R   0.556245 0.392256 0.123185 -0.322476
O70   O     O_R   0.467206 0.478755 0.065714 -0.312830
N10   N     N_R   0.499952 0.392803 0.923874 0.111076
O71   O     O_R   0.455248 0.414020 0.873994 -0.327002
O72   O     O_R   0.545426 0.475622 0.939772 -0.309989
N11   N     N_R   0.007617 0.885694 0.075826 0.112970
O73   O     O_R   0.056329 0.892112 0.123148 -0.322514
O74   O     O_R   0.967260 0.978727 0.065786 -0.312813
N12   N     N_R   0.999965 0.892829 0.923875 0.111035
O75   O     O_R   0.955292 0.914077 0.873973 -0.327012
O76   O     O_R   0.045426 0.975642 0.939817 -0.310010

loop_
_geom_bond_atom_site_label_1
_geom_bond_atom_site_label_2
_geom_bond_distance
_ccdc_geom_bond_type
C18   O42   1.271476 A    
Cr11  O51   1.992750 S    
O4    C12   1.294262 A    
O47   Cr11  1.971149 S    
C29   C30   1.343527 A    
O39   C19   1.277758 A    
O20   Cr12  2.092637 S    
C79   H23   1.082365 S    
C31   C32   1.343525 A    
C67   C68   1.365478 A    
C10   C62   1.497631 S    
C42   C46   1.396472 A    
O26   C22   1.263386 A    
C33   C34   1.422044 A    
C90   H30   1.082172 S    
C73   N9    1.436439 S    
N1    O53   1.300435 A    
C37   N3    1.431512 S    
O7    C3    1.292458 A    
C27   C31   1.365744 A    
C73   C74   1.407349 A    
C76   N12   1.437155 S    
C82   C86   1.392344 A    
C96   H36   1.083290 S    
C95   C99   1.399924 A    
C70   C74   1.416628 A    
C15   C86   1.449785 S    
O25   C21   1.264223 A    
C21   C97   1.451817 S    
C65   C66   1.365452 A    
C48   C52   1.377754 A    
Cr3   O51   1.989668 S    
N4    O60   1.300368 A    
C56   H16   1.080816 S    
O46   Cr10  1.970225 S    
C50   C54   1.390754 A    
C93   C97   1.399926 A    
O21   C9    1.329404 A    
O8    Cr4   1.957153 S    
O23   Cr11  1.931628 S    
C57   N5    1.451349 S    
C43   C47   1.395769 A    
O30   C14   1.273557 A    
C81   C85   1.393966 A    
C42   C62   1.408138 A    
C1    O9    1.275471 A    
N6    O63   1.295380 A    
C65   H17   1.084090 S    
C45   H9    1.065256 S    
C13   C88   1.449781 S    
C66   H18   1.083508 S    
C3    O11   1.275471 A    
C38   N4    1.431769 S    
O11   Cr7   2.058726 S    
N7    O65   1.295342 A    
O28   Cr4   2.078556 S    
N2    O55   1.300434 A    
N11   O73   1.301319 A    
C92   C96   1.389675 A    
O6    Cr2   1.957153 S    
C68   C71   1.403133 A    
O27   Cr3   2.081200 S    
C27   C36   1.442320 A    
O3    Cr3   2.064732 S    
Cr4   O52   1.989661 S    
C26   C33   1.442080 A    
O2    Cr2   2.067576 S    
C41   H5    1.077128 S    
N8    O68   1.300600 A    
C77   C81   1.371595 A    
C23   C99   1.451820 S    
C84   C88   1.392340 A    
C40   H4    1.104573 S    
C40   N2    1.431770 S    
O42   Cr10  2.049767 S    
C79   C99   1.406047 A    
C22   C98   1.450729 S    
C78   H22   1.081725 S    
C25   C29   1.365744 A    
N11   O74   1.300514 A    
C83   C87   1.393968 A    
C54   H14   1.080816 S    
C59   C63   1.444587 A    
C4    O12   1.275997 A    
O34   Cr6   2.086205 S    
Cr7   O51   1.992581 S    
C16   C85   1.450083 S    
C31   C39   1.475320 S    
C14   O34   1.273483 A    
C26   C30   1.365908 A    
C87   C91   1.406592 A    
C5    C26   1.453806 S    
N1    O54   1.300333 A    
C28   C32   1.365909 A    
C37   H1    1.104176 S    
O24   Cr12  1.932945 S    
O16   Cr8   1.968451 S    
N12   O76   1.300112 A    
C43   C63   1.407746 A    
O30   Cr2   1.950309 S    
C1    C52   1.482085 S    
O22   C10   1.329025 A    
C84   H28   1.083072 S    
O48   Cr12  1.970225 S    
C37   C38   1.528310 S    
C60   C64   1.444321 A    
C80   H24   1.081721 S    
C3    C50   1.482086 S    
O1    C9    1.294243 A    
C58   C62   1.444319 A    
C74   N10   1.437150 S    
C89   C93   1.390984 A    
C89   H29   1.082176 S    
N4    O59   1.300435 A    
C96   C100  1.398061 A    
O7    Cr3   1.959749 S    
C4    C49   1.481354 S    
C95   H35   1.083220 S    
C9    C61   1.497155 S    
N5    O61   1.295341 A    
Cr10  O50   1.992310 S    
C25   C34   1.442320 A    
C71   C75   1.414175 A    
O13   C5    1.305387 A    
O40   C20   1.281227 A    
C92   H32   1.082168 S    
O48   C24   1.282519 A    
O12   Cr8   2.056606 S    
Cr9   O49   1.992750 S    
Cr12  O52   1.992310 S    
C41   C45   1.395767 A    
O15   C7    1.305387 A    
N3    O57   1.300433 A    
O5    C1    1.292458 A    
N9    O69   1.301337 A    
C18   C69   1.457851 S    
C49   C53   1.390463 A    
C24   C100  1.450721 S    
O39   Cr7   1.937486 S    
O45   Cr9   1.971149 S    
C75   C76   1.407319 A    
C78   C82   1.373971 A    
O3    C11   1.294243 A    
O8    C4    1.291797 A    
O13   Cr5   1.967151 S    
C13   O33   1.275456 A    
C57   C61   1.444585 A    
C80   C100  1.406770 A    
Cr2   O50   1.989661 S    
O15   Cr7   1.967151 S    
C67   C72   1.394292 A    
Cr1   O49   1.989668 S    
C86   C90   1.408002 A    
C46   H10   1.065301 S    
C53   H13   1.080902 S    
C65   C70   1.394262 A    
N2    O56   1.300368 A    
O14   Cr6   1.968451 S    
N3    O58   1.300332 A    
O21   Cr9   1.931628 S    
N8    O67   1.295379 A    
C7    O19   1.245342 A    
C32   C40   1.475894 S    
O9    Cr5   2.058726 S    
C2    O10   1.275997 A    
O37   Cr5   1.937486 S    
N9    O70   1.300541 A    
C8    O20   1.245228 A    
O23   C11   1.329405 A    
C19   O43   1.278379 A    
C80   C84   1.373975 A    
C56   C60   1.407663 A    
C29   C37   1.475320 S    
C2    C51   1.481354 S    
C54   C58   1.407663 A    
C8    C27   1.454051 S    
O24   C12   1.329025 A    
C42   H6    1.077227 S    
C44   H8    1.077227 S    
C79   C83   1.371606 A    
C94   C98   1.398072 A    
O31   Cr3   1.947634 S    
C44   C48   1.396474 A    
O38   C18   1.281215 A    
O25   Cr1   2.081200 S    
C59   N7    1.451348 S    
O45   C21   1.283075 A    
C5    O17   1.245342 A    
N12   O75   1.301411 A    
C52   C56   1.390754 A    
O37   C17   1.277779 A    
O22   Cr10  1.932945 S    
O28   C24   1.263378 A    
C35   I3    2.180748 S    
N10   O72   1.300142 A    
O14   C6    1.305812 A    
C75   N11   1.436385 S    
C14   C87   1.450086 S    
C34   I2    2.180901 S    
O5    Cr1   1.959749 S    
C68   H20   1.083546 S    
C33   I1    2.180749 S    
O31   C15   1.270907 A    
O17   Cr9   2.093345 S    
C91   C95   1.390985 A    
O6    C2    1.291796 A    
C15   O35   1.275453 A    
C19   C72   1.457689 S    
N7    O66   1.300654 A    
C17   O41   1.278342 A    
C72   C76   1.416656 A    
C47   H11   1.065255 S    
N5    O62   1.300654 A    
C46   C50   1.377754 A    
C17   C70   1.457655 S    
C78   C98   1.406764 A    
C55   H15   1.080900 S    
O40   Cr8   1.935750 S    
C35   C36   1.422044 A    
C77   C97   1.406037 A    
N6    O64   1.300599 A    
C20   O44   1.271437 A    
C39   H3    1.104176 S    
O1    Cr1   2.064732 S    
C44   C64   1.408138 A    
C51   C55   1.390465 A    
O19   Cr11  2.093345 S    
C12   C64   1.497630 S    
C20   C71   1.457880 S    
Cr8   O52   1.992967 S    
O32   C16   1.273565 A    
O41   Cr9   2.048740 S    
O33   Cr5   2.084566 S    
C43   H7    1.077129 S    
C36   I4    2.180903 S    
C81   H25   1.082827 S    
O2    C10   1.294262 A    
O46   C22   1.282520 A    
C66   C69   1.403045 A    
C83   H27   1.082838 S    
Cr5   O49   1.992581 S    
C85   C89   1.406582 A    
C67   H19   1.084110 S    
N10   O71   1.301418 A    
C58   N6    1.451259 S    
C6    C25   1.454050 S    
O26   Cr2   2.078556 S    
C38   H2    1.104574 S    
O47   C23   1.283078 A    
O10   Cr6   2.056606 S    
C69   C73   1.414193 A    
O35   Cr7   2.084566 S    
C60   N8    1.451259 S    
O4    Cr4   2.067576 S    
C55   C59   1.407757 A    
C48   H12   1.065301 S    
C94   H34   1.083286 S    
O29   Cr1   1.947634 S    
C93   H33   1.083222 S    
C39   N1    1.431512 S    
C16   O36   1.273473 A    
C53   C57   1.407757 A    
C30   C38   1.475896 S    
O44   Cr12  2.049767 S    
O18   Cr10  2.092637 S    
Cr6   O50   1.992967 S    
C6    O18   1.245228 A    
O43   Cr11  2.048740 S    
C39   C40   1.528310 S    
C82   H26   1.083081 S    
O29   C13   1.270904 A    
C7    C28   1.453804 S    
C41   C61   1.407749 A    
C90   C94   1.389682 A    
O32   Cr4   1.950309 S    
O36   Cr8   2.086205 S    
C45   C49   1.377882 A    
O16   C8    1.305812 A    
C77   H21   1.082364 S    
C91   H31   1.082181 S    
C88   C92   1.408003 A    
C28   C35   1.442080 A    
C11   C63   1.497156 S    
O38   Cr6   1.935750 S    
O27   C23   1.264227 A    
C47   C51   1.377881 A    
