data_mof_unit_66741.cif
_audit_creation_date              2013-03-05T15:40:46-0500
_audit_creation_method            fapswitch 2.2
_symmetry_space_group_name_H-M    P1
_symmetry_Int_Tables_number       1
_space_group_crystal_system       triclinic
_cell_length_a                    8.337777
_cell_length_b                    12.89208
_cell_length_c                    15.120635
_cell_angle_alpha                 94.946635
_cell_angle_beta                  99.430455
_cell_angle_gamma                 98.242836
_cell_volume                      1576.7540606

loop_
_atom_site_label
_atom_site_type_symbol
_atom_site_description
_atom_site_fract_x
_atom_site_fract_y
_atom_site_fract_z
_atom_type_partial_charge
P1    P     P_3+3 0.998660 0.747790 0.570900 0.472969
O1    O     O_2   0.168170 0.764170 0.543850 -0.372481
O2    O     O_3   0.898670 0.629780 0.545890 -0.395237
O3    O     O_3   0.365980 0.695510 0.380810 -0.401272
O4    O     O_2   0.321977 0.876860 0.456202 -0.341708
O5    O     O_3   0.041629 0.780294 0.688000 -0.574940
O6    O     O_3   0.310697 0.870949 0.285540 -0.491057
C1    C     C_3   0.357938 0.914142 0.141317 -0.928041
H1    H     H_    0.241280 0.898814 0.092083 0.224776
H2    H     H_    0.363187 0.994381 0.175512 0.283395
P2    P     P_3+3 0.306970 0.411860 0.294270 0.442287
P3    P     P_3+3 0.880205 0.621883 0.217853 0.474824
O7    O     O_2   0.136040 0.444100 0.280280 -0.353797
O8    O     O_3   0.934510 0.640480 0.335500 -0.351738
O9    O     O_2   0.982631 0.542827 0.182432 -0.366964
O10   O     O_3   0.242900 0.276178 0.270565 -0.594809
O11   O     O_3   0.959046 0.733307 0.172667 -0.490746
C2    C     C_3   0.844252 0.803920 0.162322 0.335470
H3    H     H_    0.856862 0.854908 0.228175 0.076247
H4    H     H_    0.713446 0.763670 0.140057 0.027671
C3    C     C_3   0.891145 0.870124 0.088663 -0.408854
H5    H     H_    0.005065 0.926837 0.116527 0.192767
H6    H     H_    0.916038 0.817530 0.032116 0.238648
C4    C     C_3   0.724219 0.299257 0.260840 0.594917
H7    H     H_    0.752083 0.378349 0.300442 0.068361
C5    C     C_3   0.811040 0.306377 0.179288 -0.805634
H8    H     H_    0.770146 0.236196 0.130175 0.270230
H9    H     H_    0.784799 0.375447 0.144359 0.246571
H10   H     H_    0.944017 0.308616 0.199099 0.271530
Ba1   Ba    Ba6+2 0.153570 0.551840 0.456200 1.556158
C6    C     C_3   0.088562 0.695102 0.731789 0.217467
H11   H     H_    0.208562 0.679830 0.715843 0.059426
H12   H     H_    0.995211 0.622704 0.710979 0.111753
C7    C     C_3   0.105564 0.722969 0.834302 0.139427
H13   H     H_    0.153208 0.657530 0.868578 0.070023
C8    C     C_3   0.206427 0.230840 0.346422 0.378906
H14   H     H_    0.112918 0.269705 0.374054 0.112605
H15   H     H_    0.319110 0.237794 0.398709 0.139342
C9    C     C_3   0.138753 0.114751 0.315499 -0.846432
H16   H     H_    0.020792 0.106705 0.266286 0.242141
H17   H     H_    0.118165 0.070188 0.373255 0.239313
H18   H     H_    0.227599 0.078770 0.279573 0.291668
P4    P     P_3+3 0.811620 0.252200 0.429030 0.491634
O12   O     O_2   0.642110 0.235770 0.456130 -0.344081
O13   O     O_3   0.911620 0.370210 0.454030 -0.413869
O14   O     O_3   0.444310 0.304480 0.619110 -0.388709
O15   O     O_3   0.785099 0.222068 0.310810 -0.561369
P5    P     P_3+3 0.921174 0.371929 0.783217 0.492853
O16   O     O_3   0.400800 0.556680 0.607590 -0.414005
O17   O     O_3   0.875770 0.359510 0.664420 -0.384071
O18   O     O_2   0.805159 0.441553 0.819331 -0.312623
O19   O     O_3   0.863448 0.250262 0.823125 -0.479596
Ba2   Ba    Ba6+2 0.656590 0.448150 0.543720 1.589814
P6    P     P_3+3 0.412357 0.830987 0.384841 0.511606
C10   C     C_3   0.371613 0.832547 0.209597 0.770658
H19   H     H_    0.504555 0.825283 0.226857 -0.057021
H20   H     H_    0.460705 0.914426 0.103415 0.230890
O20   O     O_3   0.409490 0.443300 0.392340 -0.410216
C11   C     C_3   0.552979 0.779861 0.665122 0.434740
H21   H     H_    0.682844 0.796573 0.655170 0.087166
H22   H     H_    0.477283 0.735367 0.602636 0.124681
C12   C     C_3   0.487545 0.882698 0.678887 -0.934761
H23   H     H_    0.556170 0.929881 0.741713 0.265735
H24   H     H_    0.499277 0.927989 0.620742 0.258105
H25   H     H_    0.357014 0.866398 0.686792 0.269763
P7    P     P_3+3 0.502304 0.592687 0.719394 0.472567
O21   O     O_2   0.674250 0.555830 0.719690 -0.316312
O22   O     O_3   0.547199 0.729768 0.743750 -0.531897
C13   C     C_3   0.991024 0.189148 0.823937 0.671658
H26   H     H_    0.111868 0.238836 0.839935 -0.062191
C14   C     C_3   0.992722 0.116431 0.899265 -0.841943
H27   H     H_    0.872580 0.064119 0.892877 0.284452
H28   H     H_    0.089076 0.065564 0.896136 0.192472
H29   H     H_    0.021832 0.164659 0.966156 0.238608
P8    P     P_3+3 0.398156 0.167387 0.618116 0.469133
C15   C     C_3   0.427993 0.229899 0.786632 0.352228
H30   H     H_    0.307948 0.255672 0.764510 -0.037072
O23   O     O_2   0.527324 0.118850 0.572361 -0.345536
O24   O     O_3   0.443826 0.140671 0.730256 -0.566362
H31   H     H_    0.526495 0.296434 0.783034 0.174151
H32   H     H_    0.355957 0.245187 0.919574 0.075238
C16   C     C_3   0.440031 0.204109 0.884324 -0.163109
H33   H     H_    0.402969 0.117547 0.885675 0.143329
C17   C     C_R   0.079923 0.181598 0.529928 -0.544943
C18   C     C_R   0.732271 0.813714 0.465781 -0.532397
C19   C     C_R   0.696621 0.987496 0.423946 0.302287
C20   C     C_R   0.634347 0.880939 0.424844 0.077756
C21   C     C_R   0.892640 0.850241 0.510959 0.306328
C22   C     C_R   0.957675 0.961783 0.514633 -0.088283
C23   C     C_R   0.856930 0.033172 0.471967 -0.232094
C24   C     C_R   0.919421 0.146357 0.483044 0.319539
C25   C     C_R   0.182006 0.112233 0.564245 0.246507
C26   C     C_R   0.118933 0.004499 0.560185 -0.126216
H34   H     H_    0.197510 0.954945 0.592988 0.169758
H35   H     H_    0.128883 0.264909 0.537349 0.164921
H36   H     H_    0.679707 0.731894 0.465784 0.180193
C27   C     C_R   0.231338 0.473017 0.767226 -0.513355
C28   C     C_R   0.134900 0.434084 0.827361 0.216797
C29   C     C_R   0.201660 0.439666 0.919221 -0.295186
C30   C     C_R   0.367860 0.485259 0.952806 0.093850
C31   C     C_R   0.460039 0.529381 0.889965 -0.226686
C32   C     C_R   0.391542 0.524001 0.798546 0.241637
C33   C     C_R   0.603991 0.544238 0.085394 -0.241214
C34   C     C_R   0.664793 0.565282 0.177578 0.177683
C35   C     C_R   0.411856 0.475625 0.210389 0.357646
C36   C     C_R   0.347081 0.455980 0.117508 -0.313200
C37   C     C_R   0.440432 0.493541 0.052490 0.104039
C38   C     C_R   0.567798 0.534119 0.239789 -0.484206
H37   H     H_    0.688674 0.568097 0.041713 0.181305
H38   H     H_    0.121116 0.407264 0.962251 0.160277
H39   H     H_    0.225444 0.410400 0.098376 0.152088
H40   H     H_    0.583377 0.571180 0.909603 0.191555
H41   H     H_    0.618826 0.548427 0.311183 0.166555
H42   H     H_    0.178847 0.468121 0.696299 0.169050
N1    N     N_2   0.276489 0.729430 0.173344 -0.066951
H43   H     H_    0.297121 0.671532 0.214575 0.196055
C39   C     C_3   0.261697 0.692296 0.078764 -0.863445
H44   H     H_    0.191342 0.611215 0.065147 0.282141
H45   H     H_    0.385584 0.694056 0.060668 0.216160
H46   H     H_    0.187399 0.738880 0.035130 0.275212
N2    N     N_2   0.217335 0.821709 0.865007 -0.113509
H47   H     H_    0.192457 0.887365 0.833913 0.218110
C40   C     C_3   0.389495 0.817065 0.896134 -0.896753
H48   H     H_    0.468606 0.882154 0.872181 0.274468
H49   H     H_    0.421377 0.739188 0.873961 0.272585
H50   H     H_    0.416002 0.827444 0.970681 0.250644
N3    N     N_R   0.944540 0.732372 0.857970 0.254070
O25   O     O_R   0.871203 0.811616 0.835579 -0.413749
O26   O     O_R   0.879395 0.666084 0.907705 -0.425874
N4    N     N_2   0.761039 0.926556 0.054999 -0.118233
H51   H     H_    0.751880 0.934972 0.986830 0.237950
C41   C     C_3   0.766096 0.025710 0.108814 -0.804612
H52   H     H_    0.651350 0.055901 0.088193 0.277389
H53   H     H_    0.871817 0.083292 0.097635 0.256638
H54   H     H_    0.780210 0.014348 0.181392 0.279044
N5    N     N_2   0.974562 0.129218 0.736634 -0.133015
H55   H     H_    0.992639 0.177770 0.687493 0.155681
C42   C     C_3   0.828311 0.050735 0.710577 -0.810556
H56   H     H_    0.798548 0.031957 0.636606 0.240460
H57   H     H_    0.720707 0.080870 0.731825 0.307201
H58   H     H_    0.848976 0.977220 0.741214 0.267633
N6    N     N_R   0.606835 0.238481 0.934033 0.278558
O27   O     O_R   0.693133 0.169349 0.965983 -0.438636
O28   O     O_R   0.662747 0.338783 0.955476 -0.392928
N7    N     N_R   0.593107 0.045834 0.370540 0.252297
O29   O     O_R   0.457530 0.064298 0.396461 -0.379077
O30   O     O_R   0.600648 0.043835 0.285233 -0.474653
N8    N     N_2   0.546326 0.270049 0.235113 -0.109994
H59   H     H_    0.497664 0.227186 0.281997 0.251411
C43   C     C_3   0.465440 0.231994 0.142244 -0.873952
H60   H     H_    0.331595 0.234110 0.134351 0.265385
H61   H     H_    0.476569 0.148434 0.125765 0.259199
H62   H     H_    0.512263 0.282822 0.092936 0.273737

loop_
_geom_bond_atom_site_label_1
_geom_bond_atom_site_label_2
_geom_bond_distance
_ccdc_geom_bond_type
P7    O22   1.746962 S    
C10   H19   1.115659 S    
C26   H34   1.073113 S    
C2    C3    1.527353 S    
P2    O7    1.528024 D    
P7    C32   1.838441 S    
Ba1   O13   2.857324 S    
C15   O24   1.406640 S    
O6    C10   1.409565 S    
C16   N6    1.455634 S    
H32   C16   1.111815 S    
C40   H48   1.114630 S    
C9    H17   1.108847 S    
C31   H40   1.072167 S    
C5    H8    1.095026 S    
C31   C32   1.398265 A    
C8    H14   1.102792 S    
C4    C5    1.531657 S    
C2    H3    1.125896 S    
C39   H45   1.108747 S    
P6    C20   1.852190 S    
C1    H20   1.105907 S    
C18   H36   1.082674 S    
C40   H49   1.112998 S    
C36   C37   1.425339 A    
N1    H43   1.028273 S    
C27   C28   1.388467 A    
C7    H13   1.114529 S    
C13   C14   1.535927 S    
C25   C26   1.405236 A    
C12   H24   1.106257 S    
O19   C13   1.410697 S    
Ba1   O20   2.956671 S    
O12   Ba2   2.914250 S    
P4    Ba2   3.460534 S    
P5    O18   1.541782 D    
C29   C30   1.417043 A    
P2    Ba1   3.437110 S    
C41   H52   1.092694 S    
N1    C39   1.448045 S    
C43   H62   1.115341 S    
P3    O11   1.734388 S    
P2    C35   1.840224 S    
C6    H12   1.112107 S    
C17   C24   1.399660 A    
P2    O20   1.573377 S    
P4    O15   1.766715 S    
C2    H4    1.122208 S    
C27   C32   1.388448 A    
P1    C21   1.904224 S    
P5    O17   1.762320 S    
P7    O21   1.573126 D    
O13   Ba2   2.948387 S    
C11   H21   1.110671 S    
C3    H5    1.109453 S    
O8    Ba1   2.799736 S    
C1    C10   1.539030 S    
O14   P8    1.752298 S    
N7    O30   1.299912 A    
N7    O29   1.301675 A    
C9    H18   1.116230 S    
C36   H39   1.077588 S    
C18   C20   1.389497 A    
C35   C38   1.388693 A    
C11   H22   1.107873 S    
O17   Ba2   2.800342 S    
O16   P7    1.752960 S    
P1    O5    1.749343 S    
O7    Ba1   2.864189 S    
N8    H59   1.034433 S    
N5    C42   1.444290 S    
C19   C23   1.429361 A    
C39   H46   1.104906 S    
C15   C16   1.532429 S    
C9    H16   1.117780 S    
C14   H28   1.111708 S    
C19   C20   1.399267 A    
C1    H1    1.105242 S    
C40   H50   1.105073 S    
C29   H38   1.076307 S    
P4    C24   1.907930 S    
P1    O2    1.608250 S    
C17   H35   1.082276 S    
C38   H41   1.083080 S    
O2    Ba1   2.947472 S    
N4    C41   1.446335 S    
P4    O12   1.526175 D    
N3    O26   1.304796 A    
C12   H23   1.105553 S    
C11   O22   1.405396 S    
P2    O10   1.742075 S    
O4    P6    1.538218 D    
C6    H11   1.106940 S    
P3    O9    1.536319 D    
O11   C2    1.412314 S    
C6    C7    1.539227 S    
C30   C37   1.517993 S    
Ba1   Ba2   4.606770 S    
C4    H7    1.110602 S    
P4    O13   1.608267 S    
N2    H47   1.033230 S    
C42   H57   1.109942 S    
P8    C25   1.862441 S    
N8    C43   1.464025 S    
C41   H53   1.113322 S    
Ba1   O16   2.808073 S    
C7    N3    1.463538 S    
C28   C29   1.400793 A    
C13   N5    1.446618 S    
C3    H6    1.110148 S    
C4    N8    1.455549 S    
C43   H61   1.105057 S    
N3    O25   1.305052 A    
C19   N7    1.423066 S    
C34   C38   1.386227 A    
C18   C21   1.393183 A    
C11   C12   1.515163 S    
C12   H25   1.106480 S    
O3    P6    1.727445 S    
N6    O27   1.299869 A    
C4    O15   1.402736 S    
C8    C9    1.525647 S    
C15   H31   1.110830 S    
P3    O8    1.748810 S    
N5    H55   1.027867 S    
C42   H58   1.113074 S    
C14   H29   1.111896 S    
C33   C37   1.414378 A    
Ba2   O20   2.807299 S    
P3    C34   1.821621 S    
C7    N2    1.456231 S    
P5    C28   1.836217 S    
C35   C36   1.406801 A    
C5    H9    1.104006 S    
C33   H37   1.074688 S    
O1    Ba1   2.913837 S    
C8    H15   1.111766 S    
N4    H51   1.037274 S    
C27   H42   1.082721 S    
C14   H27   1.109482 S    
C39   H44   1.107532 S    
O10   C8    1.388773 S    
C15   H30   1.108573 S    
O2    Ba2   2.857960 S    
C23   C24   1.462884 A    
C10   N1    1.458189 S    
C41   H54   1.109048 S    
O16   Ba2   2.955747 S    
P1    O1    1.525831 D    
O14   Ba2   2.819244 S    
P1    Ba1   3.460051 S    
O5    C6    1.400539 S    
N6    O28   1.303792 A    
C22   C26   1.415710 A    
C13   H26   1.091966 S    
Ba2   O21   2.864363 S    
P8    O23   1.546877 D    
C3    N4    1.440267 S    
N2    C40   1.446953 S    
C42   H56   1.102876 S    
P5    O19   1.760120 S    
C21   C22   1.455250 A    
C5    H10   1.095600 S    
C1    H2    1.107565 S    
C16   H33   1.117313 S    
C33   C34   1.391860 A    
C43   H60   1.107254 S    
C30   C31   1.422781 A    
C17   C25   1.395324 A    
O6    P6    1.754966 S    
C22   C23   1.454418 A    
P8    O24   1.750861 S    
O3    Ba1   2.819892 S    
