data_mof_unit_47821.cif
_audit_creation_date              2012-12-10T16:51:16-0500
_audit_creation_method            fapswitch 2.2
_symmetry_space_group_name_H-M    P1
_symmetry_Int_Tables_number       1
_space_group_crystal_system       triclinic
_cell_length_a                    27.628695
_cell_length_b                    8.732692
_cell_length_c                    7.560412
_cell_angle_alpha                 102.295812
_cell_angle_beta                  95.982683
_cell_angle_gamma                 90.972876
_cell_volume                      1771.1307972

loop_
_atom_site_label
_atom_site_type_symbol
_atom_type_description
_atom_site_fract_x
_atom_site_fract_y
_atom_site_fract_z
_atom_type_partial_charge
C1    C     C_R   0.498549 0.200511 0.454182 0.869029
C2    C     C_R   0.501451 0.799489 0.545818 0.869030
C3    C     C_R   0.102518 0.529972 0.512449 -0.092626
C4    C     C_R   0.897482 0.470023 0.487557 -0.092626
C5    C     C_R   0.129317 0.404863 0.427532 -0.157391
C6    C     C_R   0.870683 0.595133 0.572473 -0.157391
C7    C     C_R   0.104540 0.263643 0.336250 0.231055
C8    C     C_R   0.895460 0.736352 0.663755 0.231055
C9    C     C_R   0.127223 0.670432 0.607314 -0.061451
C10   C     C_R   0.872777 0.329564 0.392691 -0.061453
C11   C     C_R   0.355273 0.534283 0.504187 -0.135996
C12   C     C_R   0.644727 0.465716 0.495814 -0.135989
C13   C     C_R   0.974618 0.364013 0.393019 0.010107
C14   C     C_R   0.025383 0.635982 0.606987 0.010106
C15   C     C_R   0.973571 0.626911 0.588598 -0.062073
C16   C     C_R   0.026429 0.373083 0.411408 -0.062073
C17   C     C_R   0.948857 0.485703 0.493517 -0.010130
C18   C     C_R   0.051143 0.514292 0.506489 -0.010130
C19   C     C_R   0.946858 0.246809 0.262317 0.326864
C20   C     C_R   0.053142 0.753186 0.737689 0.326865
C21   C     C_R   0.897607 0.220223 0.275967 -0.218151
C22   C     C_R   0.102393 0.779772 0.724039 -0.218151
C23   C     C_R   0.407718 0.507646 0.500911 0.839440
C24   C     C_R   0.592282 0.492354 0.499089 0.839440
C25   C     C_R   0.054838 0.241931 0.351755 0.457852
C26   C     C_R   0.945162 0.758064 0.648251 0.457852
C27   C     C_2   0.497481 0.033017 0.428508 -0.330504
C28   C     C_2   0.502519 0.966983 0.571492 -0.330504
C29   C     C_R   0.180434 0.422415 0.449126 0.688090
C30   C     C_R   0.819566 0.577582 0.550877 0.688089
C31   C     C_R   0.177262 0.690874 0.596125 0.679475
C32   C     C_R   0.822738 0.309122 0.403880 0.679478
C33   C     C_R   0.286521 0.617430 0.675540 0.506708
C34   C     C_R   0.713479 0.382566 0.324462 0.506721
C35   C     C_R   0.336355 0.588287 0.670389 -0.299575
C36   C     C_R   0.663645 0.411711 0.329612 -0.299586
C37   C     C_R   0.324265 0.513779 0.341316 -0.240363
C38   C     C_R   0.675734 0.486222 0.658685 -0.240371
C39   C     C_R   0.274520 0.535820 0.344530 0.259369
C40   C     C_R   0.725480 0.464179 0.655472 0.259366
C41   C     C_R   0.254945 0.581137 0.512184 0.174794
C42   C     C_R   0.745055 0.418860 0.487819 0.174797
Cu1   Cu    Cu3+1 0.505380 0.517380 0.684380 1.064268
Cu2   Cu    Cu3+1 0.494620 0.482620 0.315620 1.064269
H1    H     H_    0.338300 0.475973 0.211147 0.211041
H2    H     H_    0.661700 0.524029 0.788854 0.211039
H3    H     H_    0.639803 0.394615 0.203511 0.188458
H4    H     H_    0.360197 0.605381 0.796490 0.188463
H5    H     H_    0.877670 0.124068 0.181026 0.243591
H6    H     H_    0.122330 0.875927 0.818980 0.243591
H7    H     H_    0.492415 0.963430 0.289901 0.205091
H8    H     H_    0.507584 0.036570 0.710099 0.205091
N1    N     N_R   0.203010 0.566783 0.517321 -0.444102
N2    N     N_R   0.796990 0.433213 0.482683 -0.444104
N3    N     N_2   0.486510 0.456430 0.038510 0.052529
N4    N     N_2   0.513490 0.543570 0.961490 0.052529
O1    O     O_R   0.503500 0.286120 0.619780 -0.559162
O2    O     O_R   0.496500 0.713880 0.380220 -0.559162
O3    O     O_R   0.494410 0.256780 0.308360 -0.566698
O4    O     O_R   0.505590 0.743220 0.691640 -0.566697
O5    O     O_R   0.434810 0.514700 0.655690 -0.559876
O6    O     O_R   0.565190 0.485300 0.344310 -0.559876
O7    O     O_R   0.425720 0.485350 0.344280 -0.575734
O8    O     O_R   0.574280 0.514650 0.655720 -0.575735
O9    O     O_2   0.207885 0.296088 0.408668 -0.451330
O10   O     O_2   0.792115 0.703909 0.591334 -0.451328
O11   O     O_2   0.800190 0.167486 0.335839 -0.493339
O12   O     O_2   0.199810 0.832510 0.664165 -0.493353
Br1   Br    Br    0.439641 0.306096 0.903580 -0.392000
Br2   Br    Br    0.560358 0.693904 0.096420 -0.391999
Br3   Br    Br    0.233553 0.491921 0.117052 -0.378109
Br4   Br    Br    0.766446 0.508080 0.882951 -0.378111
Br5   Br    Br    0.134691 0.101578 0.172497 -0.346257
Br6   Br    Br    0.865309 0.898417 0.827508 -0.346253
O13   O     O_3   0.733171 0.336380 0.160991 -0.530001
C43   C     C_3   0.707191 0.203941 0.049121 -0.136384
H9    H     H_    0.674773 0.240258 0.970702 0.133086
H10   H     H_    0.696547 0.116487 0.127543 0.161722
H11   H     H_    0.731154 0.144649 0.948796 0.228279
O14   O     O_3   0.266829 0.663611 0.839013 -0.530003
C44   C     C_3   0.292805 0.796069 0.950867 -0.136378
H12   H     H_    0.303436 0.883529 0.872433 0.161743
H13   H     H_    0.325230 0.759779 0.029272 0.133073
H14   H     H_    0.268842 0.855344 0.051206 0.228277
Br7   Br    Br    0.967739 0.172986 0.026587 -0.340241
Br8   Br    Br    0.032261 0.827008 0.973419 -0.340241
O15   O     O_3   0.034458 0.091357 0.317999 -0.531130
C45   C     C_3   0.054841 0.013556 0.452553 -0.200763
H15   H     H_    0.094324 0.995491 0.446802 0.200567
H16   H     H_    0.037144 0.895039 0.426789 0.207470
H17   H     H_    0.048766 0.077541 0.591823 0.174497
O16   O     O_3   0.965542 0.908638 0.682007 -0.531130
C46   C     C_3   0.945159 0.986439 0.547453 -0.200763
H18   H     H_    0.962856 0.104956 0.573218 0.207470
H19   H     H_    0.905676 0.004504 0.553203 0.200567
H20   H     H_    0.951234 0.922454 0.408183 0.174497

loop_
_geom_bond_atom_site_label_1
_geom_bond_atom_site_label_2
_ccdc_geom_bond_type
O15   C45   S    
C46   H18   S    
C8    C26   A    
C14   C18   A    
C34   C42   A    
C43   H11   S    
N3    N4    D    
C21   H5    S    
C44   H12   S    
C7    Br5   S    
C30   N2    A    
C36   H3    S    
C19   C21   A    
C43   H10   S    
C1    O3    A    
C2    O4    A    
C9    C22   A    
Cu2   O3    S    
C26   O16   S    
C25   O15   S    
C3    C18   A    
C11   C23   S    
C11   C37   A    
Cu2   O2    S    
C20   Br8   S    
C12   C36   A    
C34   O13   S    
C22   H6    S    
C40   C42   A    
C24   O8    A    
C19   Br7   S    
C35   H4    S    
C32   N2    A    
C44   H13   S    
C27   H7    S    
Cu1   O8    S    
C5    C29   A    
C10   C21   A    
C31   O12   S    
C13   C19   A    
C14   C20   A    
C43   H9    S    
C4    C6    A    
C5    C7    A    
C9    C31   A    
C15   C26   A    
C6    C8    A    
Cu2   O6    S    
O13   C43   S    
C3    C9    A    
C1    O1    A    
C45   H17   S    
C8    Br6   S    
C30   O10   S    
C31   N1    A    
C41   N1    S    
N3    Br1   S    
Cu1   O4    S    
C32   O11   S    
C29   O9    S    
C4    C17   A    
C6    C30   A    
C20   C22   A    
C46   H20   S    
N4    Br2   S    
Cu1   Cu2   S    
C4    C10   A    
C44   H14   S    
Cu1   O5    S    
C16   C25   A    
C15   C17   A    
C24   O6    A    
C40   Br4   S    
C45   H16   S    
O14   C44   S    
C3    C5    A    
C2    O2    A    
C33   O14   S    
C12   C24   S    
C7    C25   A    
C13   C17   A    
C33   C41   A    
C11   C35   A    
C37   C39   A    
C42   N2    S    
C38   C40   A    
C28   H8    S    
Cu2   N3    S    
C46   H19   S    
C29   N1    A    
C23   O7    A    
O16   C46   S    
C33   C35   A    
C34   C36   A    
C12   C38   A    
C38   H2    S    
Cu1   O1    S    
C10   C32   A    
Cu1   N4    S    
C23   O5    A    
C45   H15   S    
C39   C41   A    
C16   C18   A    
Cu2   O7    S    
C13   C16   A    
C27   C28   D    
C1    C27   S    
C39   Br3   S    
C14   C15   A    
C2    C28   S    
C37   H1    S    
