data_mof_unit_29572.cif
_audit_creation_date              2012-10-26T21:21:06-0400
_audit_creation_method            fapswitch 2.2
_symmetry_space_group_name_H-M    P1
_symmetry_Int_Tables_number       1
_space_group_crystal_system       triclinic
_cell_length_a                    10.779576
_cell_length_b                    10.937127
_cell_length_c                    9.701864
_cell_angle_alpha                 89.821452
_cell_angle_beta                  89.974553
_cell_angle_gamma                 90.023966
_cell_volume                      1143.82063338

loop_
_atom_site_label
_atom_site_type_symbol
_atom_type_description
_atom_site_fract_x
_atom_site_fract_y
_atom_site_fract_z
_atom_type_partial_charge
C1    C     C_R   0.505641 0.265505 0.500212 0.544562
C2    C     C_2   0.526922 0.134637 0.501482 -0.021464
C3    C     C_2   0.427774 0.430286 0.922403 -0.006584
C4    C     C_R   0.262630 0.503842 0.500059 0.535164
C5    C     C_2   0.428879 0.429154 0.078073 -0.010181
C6    C     C_R   0.495875 0.734368 0.499892 0.539635
C7    C     C_R   0.737366 0.503926 0.499935 0.540639
C8    C     C_R   0.129433 0.700837 0.640234 -0.102411
C9    C     C_R   0.064492 0.793043 0.708002 -0.122037
C10   C     C_R   0.935462 0.793181 0.707740 -0.114491
C11   C     C_R   0.870536 0.701081 0.639752 -0.100824
C12   C     C_R   0.065605 0.605464 0.572188 0.026384
C13   C     C_R   0.934382 0.605560 0.572001 0.023855
C14   C     C_1   0.600772 0.085865 0.614097 0.200006
C15   C     C_R   0.128896 0.512128 0.499953 0.004276
C16   C     C_R   0.063995 0.424714 0.424324 -0.149559
C17   C     C_R   0.936011 0.424738 0.424260 -0.144992
C18   C     C_R   0.871101 0.512242 0.499723 0.005261
C19   C     C_2   0.501517 0.933463 0.388787 -0.158102
C20   C     C_2   0.481779 0.865510 0.501340 -0.111306
C21   C     C_2   0.489407 0.066630 0.393718 -0.172859
Cu1   Cu    Cu3+1 0.500020 0.500020 0.638630 0.943593
Cu2   Cu    Cu3+1 0.499980 0.499980 0.361370 0.940879
H1    H     H_    0.112841 0.354379 0.367507 0.121764
H2    H     H_    0.521387 0.891335 0.289968 0.155913
H3    H     H_    0.452547 0.906623 0.597715 0.119687
H4    H     H_    0.447114 0.110075 0.304485 0.139846
H5    H     H_    0.887170 0.354376 0.367471 0.131802
H6    H     H_    0.363364 0.369175 0.871313 0.141630
H7    H     H_    0.561068 0.555822 0.893649 0.207248
H8    H     H_    0.366546 0.365956 0.129636 0.134163
H9    H     H_    0.556884 0.559901 0.105827 0.207013
H10   H     H_    0.229506 0.706751 0.639731 0.136499
H11   H     H_    0.114545 0.865552 0.759490 0.116855
H12   H     H_    0.885416 0.865797 0.759018 0.142222
H13   H     H_    0.770470 0.707188 0.638825 0.143310
N1    N     N_2   0.498640 0.498660 0.846910 -0.344605
N2    N     N_2   0.498610 0.498630 0.153040 -0.344437
N3    N     N_1   0.659871 0.047345 0.703844 -0.320867
O1    O     O_R   0.500020 0.321960 0.617040 -0.483568
O2    O     O_R   0.499980 0.321920 0.382900 -0.502210
O3    O     O_R   0.319670 0.500020 0.617100 -0.503107
O4    O     O_R   0.319630 0.499980 0.382950 -0.494559
O5    O     O_R   0.500020 0.678080 0.617100 -0.510042
O6    O     O_R   0.499980 0.678040 0.382960 -0.493591
O7    O     O_R   0.680370 0.500020 0.617050 -0.497152
O8    O     O_R   0.680330 0.499980 0.382900 -0.493257

loop_
_geom_bond_atom_site_label_1
_geom_bond_atom_site_label_2
_ccdc_geom_bond_type
C10   H12   S    
Cu2   O6    S    
C4    O4    A    
H9    N2    S    
Cu2   N2    S    
C6    C20   S    
C9    C10   A    
C19   C20   D    
Cu2   O2    S    
C12   C15   A    
C8    C12   A    
C7    C18   S    
Cu1   O1    S    
C4    O3    A    
C2    C21   D    
Cu1   N1    S    
C17   C18   A    
C21   H4    S    
C16   H1    S    
C6    O5    A    
C5    N2    D    
C11   C13   A    
Cu1   O3    S    
C20   H3    S    
C13   C18   A    
C4    C15   S    
C19   H2    S    
C1    O2    A    
C11   H13   S    
C19   C21   S    
C8    H10   S    
C9    H11   S    
C2    C14   S    
Cu2   O8    S    
C10   C11   A    
C6    O6    A    
C15   C16   A    
C7    O7    A    
C3    C5    S    
Cu2   O4    S    
C12   C13   A    
C3    N1    D    
C1    C2    S    
C3    H6    S    
Cu1   Cu2   S    
C8    C9    A    
C1    O1    A    
Cu1   O7    S    
C14   N3    T    
C17   H5    S    
Cu1   O5    S    
H7    N1    S    
C16   C17   A    
C5    H8    S    
C7    O8    A    
