data_mof_unit_23384.cif
_audit_creation_date              2012-12-10T17:12:54-0500
_audit_creation_method            fapswitch 2.2
_symmetry_space_group_name_H-M    P1
_symmetry_Int_Tables_number       1
_space_group_crystal_system       triclinic
_cell_length_a                    14.329169
_cell_length_b                    12.954533
_cell_length_c                    11.761648
_cell_angle_alpha                 99.533158
_cell_angle_beta                  93.131213
_cell_angle_gamma                 91.119604
_cell_volume                      2149.01561959

loop_
_atom_site_label
_atom_site_type_symbol
_atom_type_description
_atom_site_fract_x
_atom_site_fract_y
_atom_site_fract_z
_atom_type_partial_charge
C1    C     C_R   0.496513 0.299913 0.479301 0.863656
C2    C     C_R   0.500016 0.700314 0.520665 0.872842
C3    C     C_R   0.538671 0.025341 0.521768 -0.156046
C4    C     C_R   0.449790 0.976721 0.481556 -0.149202
C5    C     C_R   0.404110 0.412426 0.026598 -0.378056
C6    C     C_R   0.602957 0.577111 0.971927 -0.373170
C7    C     C_R   0.416870 0.415542 0.146870 0.605736
C8    C     C_R   0.589216 0.576014 0.852076 0.619107
C9    C     C_R   0.545166 0.536955 0.155575 0.617951
C10   C     C_R   0.450847 0.470492 0.847015 0.607382
C11   C     C_R   0.537669 0.529236 0.032501 -0.161956
C12   C     C_R   0.463087 0.471108 0.968539 -0.150875
C13   C     C_R   0.331190 0.499997 0.500471 0.822902
C14   C     C_R   0.668811 0.500374 0.499495 0.818965
C15   C     C_1   0.228901 0.500326 0.501133 -0.179955
C16   C     C_1   0.771104 0.500866 0.498608 -0.157867
C17   C     C_1   0.143450 0.500532 0.500891 -0.015740
C18   C     C_1   0.856561 0.501012 0.498710 -0.010449
C19   C     C_1   0.042746 0.500722 0.500143 0.005573
C20   C     C_1   0.957261 0.500877 0.499405 0.006588
C21   C     C_R   0.507355 0.812981 0.529804 -0.210380
C22   C     C_R   0.484298 0.187908 0.470259 -0.190975
C23   C     C_R   0.375885 0.037709 0.445851 0.485752
C24   C     C_R   0.606944 0.968339 0.574654 0.482014
C25   C     C_R   0.395085 0.143887 0.441730 -0.394220
C26   C     C_R   0.590454 0.862928 0.577439 -0.401429
C27   C     C_R   0.556532 0.130105 0.509987 0.397666
C28   C     C_R   0.437315 0.867650 0.479015 0.417254
Cu1   Cu    Cu3+1 0.506360 0.507730 0.615930 1.019513
Cu2   Cu    Cu3+1 0.493640 0.492270 0.384070 0.997551
H1    H     H_    0.645197 0.818540 0.611927 0.178152
H2    H     H_    0.339996 0.195343 0.422637 0.150602
H3    H     H_    0.348488 0.363174 0.979072 0.196355
H4    H     H_    0.665936 0.614133 0.016247 0.195407
N1    N     N_R   0.515930 0.519350 0.790130 -0.255628
N2    N     N_R   0.484070 0.480650 0.209870 -0.256265
O1    O     O_R   0.504510 0.354460 0.582000 -0.529042
O2    O     O_R   0.495490 0.645540 0.418000 -0.571404
O3    O     O_R   0.493770 0.341410 0.386200 -0.578110
O4    O     O_R   0.506230 0.658590 0.613800 -0.572322
O5    O     O_R   0.381420 0.506530 0.597920 -0.547041
O6    O     O_R   0.618580 0.493470 0.402080 -0.530566
O7    O     O_R   0.370680 0.493470 0.402120 -0.532903
O8    O     O_R   0.629320 0.506530 0.597880 -0.513630
O9    O     O_3   0.356968 0.813072 0.429100 -0.536919
C29   C     C_3   0.362499 0.792658 0.307586 0.109018
H5    H     H_    0.432770 0.766932 0.281632 0.116336
H6    H     H_    0.346252 0.863597 0.269544 0.149645
C30   C     C_3   0.292204 0.705798 0.255620 -0.767858
H7    H     H_    0.221176 0.725452 0.284020 0.252639
H8    H     H_    0.291069 0.694990 0.159879 0.180153
H9    H     H_    0.312195 0.631252 0.283432 0.266332
O10   O     O_3   0.642596 0.178942 0.544995 -0.548223
C31   C     C_3   0.696484 0.175878 0.447494 0.092638
H10   H     H_    0.668672 0.230528 0.391063 0.116193
H11   H     H_    0.697545 0.095341 0.396243 0.139205
C32   C     C_3   0.796723 0.209937 0.487673 -0.749230
H12   H     H_    0.828683 0.152082 0.536786 0.264922
H13   H     H_    0.838389 0.215282 0.411863 0.191259
H14   H     H_    0.798156 0.287618 0.544243 0.243896
O11   O     O_3   0.284911 0.994545 0.432152 -0.530751
C33   C     C_3   0.225714 0.039566 0.354662 0.061533
H15   H     H_    0.261660 0.049989 0.275529 0.110695
H16   H     H_    0.200309 0.115673 0.398462 0.153705
C34   C     C_3   0.140408 0.967800 0.317489 -0.758567
H17   H     H_    0.104785 0.951521 0.394458 0.260203
H18   H     H_    0.090679 0.005833 0.262747 0.191951
H19   H     H_    0.161629 0.892988 0.266607 0.238659
O12   O     O_3   0.692105 0.013559 0.619682 -0.545140
C35   C     C_3   0.687665 0.042217 0.740430 0.123244
H20   H     H_    0.680973 0.971475 0.782108 0.106877
H21   H     H_    0.627684 0.093998 0.762345 0.154055
C36   C     C_3   0.777153 0.102089 0.789642 -0.768054
H22   H     H_    0.784286 0.174963 0.752265 0.267323
H23   H     H_    0.775192 0.123272 0.884901 0.189620
H24   H     H_    0.838590 0.052909 0.769051 0.241114
O13   O     O_3   0.374578 0.418019 0.784759 -0.555205
C37   C     C_3   0.294897 0.480213 0.803717 -0.302810
H25   H     H_    0.237263 0.445387 0.741568 0.191474
H26   H     H_    0.307791 0.562100 0.789506 0.158495
H27   H     H_    0.269993 0.481906 0.891622 0.146119
O14   O     O_3   0.618440 0.593231 0.221297 -0.546293
C38   C     C_3   0.612715 0.702055 0.219625 -0.334286
H28   H     H_    0.679567 0.731024 0.191387 0.167158
H29   H     H_    0.605193 0.743964 0.308551 0.191201
H30   H     H_    0.554751 0.724664 0.162361 0.114139
O15   O     O_3   0.654165 0.625447 0.795059 -0.538093
C39   C     C_3   0.655619 0.734415 0.835242 -0.350519
H31   H     H_    0.682480 0.754556 0.926786 0.140308
H32   H     H_    0.585340 0.767598 0.823446 0.163735
H33   H     H_    0.704632 0.772465 0.784207 0.185475
O16   O     O_3   0.357272 0.358841 0.203614 -0.544809
C40   C     C_3   0.364627 0.250734 0.162573 -0.324531
H34   H     H_    0.438781 0.226281 0.162416 0.157638
H35   H     H_    0.329022 0.227853 0.075516 0.150818
H36   H     H_    0.328259 0.206954 0.221088 0.169771

loop_
_geom_bond_atom_site_label_1
_geom_bond_atom_site_label_2
_ccdc_geom_bond_type
O15   C39   S    
C40   H34   S    
C7    N2    A    
C19   C20   T    
C21   C26   A    
C13   O5    A    
O13   C37   S    
C29   C30   S    
Cu1   Cu2   S    
C24   C26   A    
C37   H26   S    
C32   H13   S    
Cu2   O2    S    
C36   H22   S    
C33   H16   S    
C31   H10   S    
C34   H18   S    
C22   C25   A    
C5    H3    S    
C9    N2    A    
C35   H20   S    
C1    O1    A    
C9    O14   S    
C14   O6    A    
C30   H9    S    
C25   H2    S    
C1    C22   S    
C40   H35   S    
C36   H23   S    
C3    C24   A    
O11   C33   S    
C2    C21   S    
C4    C28   A    
C10   O13   S    
C24   O12   S    
C29   H6    S    
C31   H11   S    
C28   O9    S    
C5    C12   A    
C6    C11   A    
C5    C7    A    
C4    C23   A    
C37   H25   S    
C32   H14   S    
C6    C8    A    
C30   H8    S    
O9    C29   S    
C6    H4    S    
C8    N1    A    
C33   H15   S    
C2    O2    A    
C38   H28   S    
C39   H33   S    
C34   H19   S    
C35   C36   S    
C9    C11   A    
C10   N1    A    
C10   C12   A    
C38   H29   S    
C21   C28   A    
C39   H32   S    
O14   C38   S    
C40   H36   S    
C22   C27   A    
C13   C15   S    
Cu1   O8    S    
C36   H24   S    
C14   C16   S    
Cu2   O7    S    
C3    C4    A    
C13   O7    A    
C14   O8    A    
C15   C17   T    
C29   H5    S    
C33   C34   S    
Cu1   O5    S    
C26   H1    S    
C11   C12   A    
C27   O10   S    
O10   C31   S    
Cu1   N1    S    
Cu2   N2    S    
C8    O15   S    
C3    C27   A    
C34   H17   S    
C37   H27   S    
C32   H12   S    
C7    O16   S    
Cu1   O4    S    
O16   C40   S    
C17   C19   S    
Cu2   O3    S    
C18   C20   S    
C23   C25   A    
O12   C35   S    
C1    O3    A    
C2    O4    A    
C23   O11   S    
C38   H30   S    
C39   H31   S    
C16   C18   T    
C30   H7    S    
Cu1   O1    S    
Cu2   O6    S    
C35   H21   S    
C31   C32   S    
