data_mof_unit_37198.cif
_audit_creation_date              2012-12-10T16:36:44-0500
_audit_creation_method            fapswitch 2.2
_symmetry_space_group_name_H-M    P1
_symmetry_Int_Tables_number       1
_space_group_crystal_system       triclinic
_cell_length_a                    14.094152
_cell_length_b                    16.436386
_cell_length_c                    15.158805
_cell_angle_alpha                 89.583624
_cell_angle_beta                  92.421111
_cell_angle_gamma                 90.07279
_cell_volume                      3508.41311439

loop_
_atom_site_label
_atom_site_type_symbol
_atom_type_description
_atom_site_fract_x
_atom_site_fract_y
_atom_site_fract_z
_atom_type_partial_charge
C1    C     C_R   0.679414 0.844248 0.519904 0.858658
C2    C     C_R   0.949721 0.480049 0.108295 0.433047
C3    C     C_R   0.608159 0.038627 0.127881 0.420186
C4    C     C_R   0.108158 0.538628 0.127881 0.420197
C5    C     C_R   0.614963 0.045965 0.036590 0.459604
C6    C     C_R   0.114963 0.545964 0.036590 0.459610
C7    C     C_2   0.255687 0.225239 0.464979 0.142200
C8    C     C_2   0.242948 0.784313 0.477586 0.106964
C9    C     C_2   0.755683 0.725235 0.464983 0.142188
C10   C     C_2   0.742950 0.284312 0.477584 0.106964
C11   C     C_2   0.748702 0.780805 0.528888 0.381064
C12   C     C_R   0.680344 0.154672 0.520037 0.831279
C13   C     C_2   0.753257 0.215228 0.524788 0.401731
C14   C     C_2   0.248700 0.280803 0.528888 0.381093
C15   C     C_2   0.253258 0.715228 0.524787 0.401736
C16   C     C_R   0.321227 0.157144 0.478800 0.798465
C17   C     C_R   0.319180 0.844215 0.480940 0.836015
C18   C     C_R   0.821226 0.657143 0.478801 0.798496
C19   C     C_R   0.819181 0.344215 0.480940 0.836010
C20   C     C_R   0.520074 0.000750 0.260420 0.897776
C21   C     C_R   0.020074 0.500749 0.260420 0.897786
C22   C     C_R   0.479220 0.999522 0.738451 0.948707
C23   C     C_R   0.179414 0.344248 0.519904 0.858669
C24   C     C_R   0.979220 0.499522 0.738451 0.948708
C25   C     C_R   0.526513 0.005625 0.164129 -0.352331
C26   C     C_R   0.026512 0.505625 0.164129 -0.352354
C27   C     C_R   0.469799 0.997125 0.833131 -0.355282
C28   C     C_R   0.969799 0.497125 0.833131 -0.355279
C29   C     C_R   0.388284 0.946782 0.959259 0.608306
C30   C     C_R   0.888285 0.446781 0.959258 0.608298
C31   C     C_R   0.393540 0.954825 0.868238 0.276795
C32   C     C_R   0.893540 0.454824 0.868238 0.276796
C33   C     C_R   0.541756 0.029993 0.888078 0.606560
C34   C     C_R   0.180344 0.654672 0.520037 0.831274
C35   C     C_R   0.041756 0.529993 0.888079 0.606558
C36   C     C_3   0.298451 0.011293 0.144159 0.190609
C37   C     C_3   0.211031 0.978534 0.189068 -0.299084
C38   C     C_3   0.133711 0.043026 0.193468 -0.948956
C39   C     C_3   0.798451 0.511287 0.144163 0.190605
C40   C     C_3   0.711035 0.478525 0.189075 -0.299086
C41   C     C_3   0.633719 0.543019 0.193492 -0.948950
C42   C     C_3   0.767356 0.020959 0.001328 0.156466
C43   C     C_3   0.857005 0.059211 0.965607 -0.261435
C44   C     C_3   0.938141 0.997814 0.964234 -0.970190
C45   C     C_R   0.538659 0.020435 0.980048 -0.300537
C46   C     C_3   0.267355 0.520953 0.001329 0.156463
C47   C     C_3   0.357008 0.559202 0.965614 -0.261440
C48   C     C_3   0.438141 0.497801 0.964243 -0.970189
C49   C     C_3   0.250945 0.970014 0.794508 0.091514
C50   C     C_3   0.181636 0.930215 0.727591 -0.304106
C51   C     C_3   0.097205 0.985568 0.704532 -0.869886
C52   C     C_3   0.750943 0.470010 0.794511 0.091514
C53   C     C_3   0.681638 0.430213 0.727589 -0.304107
C54   C     C_3   0.597201 0.485562 0.704538 -0.869893
C55   C     C_3   0.755719 0.756454 0.318011 0.053247
C56   C     C_R   0.038659 0.520435 0.980049 -0.300542
C57   C     C_3   0.691213 0.790603 0.243025 -0.273398
C58   C     C_3   0.748382 0.819549 0.165434 -0.970852
C59   C     C_3   0.656811 0.278220 0.346780 0.092963
C60   C     C_3   0.559564 0.296504 0.302512 -0.346845
C61   C     C_3   0.550887 0.262413 0.209162 -0.912695
C62   C     C_3   0.255752 0.256414 0.317995 0.053297
C63   C     C_3   0.191273 0.290596 0.243007 -0.273465
C64   C     C_3   0.248461 0.319460 0.165394 -0.970899
C65   C     C_3   0.156801 0.778226 0.346786 0.092963
C66   C     C_3   0.059549 0.796508 0.302526 -0.346831
C67   C     C_R   0.458200 0.982400 0.016143 -0.312650
C68   C     C_3   0.050866 0.762421 0.209176 -0.912715
C69   C     C_R   0.958200 0.482399 0.016143 -0.312640
C70   C     C_R   0.449720 0.980051 0.108295 0.433043
F1    F     F_    0.680659 0.067115 0.181052 -0.642447
F2    F     F_    0.837451 0.193488 0.565620 -0.638899
F3    F     F_    0.180657 0.567117 0.181052 -0.642435
F4    F     F_    0.316508 0.901189 0.990763 -0.613835
F5    F     F_    0.816509 0.401187 0.990762 -0.613839
F6    F     F_    0.615888 0.068275 0.850804 -0.617107
F7    F     F_    0.115888 0.568275 0.850804 -0.617104
F8    F     F_    0.296026 0.273487 0.608753 -0.652398
F9    F     F_    0.337454 0.693485 0.565613 -0.638899
F10   F     F_    0.796040 0.773498 0.608747 -0.652391
H1    H     H_    0.277014 0.030228 0.075531 0.133682
H2    H     H_    0.682373 0.425386 0.151669 0.242311
H3    H     H_    0.731691 0.458123 0.257253 0.249050
H4    H     H_    0.659651 0.594869 0.234386 0.283648
H5    H     H_    0.570486 0.516372 0.224141 0.276004
H6    H     H_    0.612434 0.565249 0.126158 0.264083
H7    H     H_    0.744255 0.969914 0.957343 0.136658
H8    H     H_    0.784928 0.996446 0.068775 0.155457
H9    H     H_    0.841414 0.082355 0.897445 0.264750
H10   H     H_    0.879497 0.111377 0.007862 0.244638
H11   H     H_    0.956172 0.975051 0.032078 0.271781
H12   H     H_    0.325174 0.065973 0.180572 0.112054
H13   H     H_    0.002012 0.027520 0.937994 0.269857
H14   H     H_    0.917909 0.945664 0.921167 0.281925
H15   H     H_    0.244253 0.469910 0.957341 0.136657
H16   H     H_    0.284922 0.496436 0.068776 0.155458
H17   H     H_    0.341422 0.582348 0.897453 0.264745
H18   H     H_    0.379501 0.611365 0.007872 0.244638
H19   H     H_    0.456167 0.475036 0.032087 0.271781
H20   H     H_    0.502015 0.527505 0.938006 0.269856
H21   H     H_    0.417908 0.445653 0.921173 0.281925
H22   H     H_    0.276534 0.028226 0.765533 0.117564
H23   H     H_    0.182375 0.925390 0.151666 0.242318
H24   H     H_    0.212909 0.983202 0.855792 0.165449
H25   H     H_    0.219108 0.916456 0.666340 0.218889
H26   H     H_    0.155278 0.872065 0.755421 0.262022
H27   H     H_    0.057657 0.998966 0.764599 0.266530
H28   H     H_    0.048398 0.954858 0.655902 0.289100
H29   H     H_    0.121802 0.043535 0.675007 0.270522
H30   H     H_    0.776528 0.528227 0.765543 0.117558
H31   H     H_    0.712905 0.483191 0.855796 0.165458
H32   H     H_    0.719111 0.416465 0.666336 0.218883
H33   H     H_    0.655286 0.372059 0.755412 0.262024
H34   H     H_    0.231681 0.958140 0.257250 0.249040
H35   H     H_    0.557650 0.498949 0.764607 0.266530
H36   H     H_    0.548397 0.454855 0.655904 0.289098
H37   H     H_    0.621791 0.543535 0.675023 0.270523
H38   H     H_    0.795769 0.703576 0.293247 0.150128
H39   H     H_    0.807057 0.805238 0.338842 0.137238
H40   H     H_    0.640093 0.743080 0.219832 0.224802
H41   H     H_    0.650103 0.842659 0.267909 0.238487
H42   H     H_    0.799020 0.868108 0.186833 0.276114
H43   H     H_    0.699451 0.844630 0.112706 0.260244
H44   H     H_    0.788364 0.767987 0.138047 0.256285
H45   H     H_    0.159637 0.094883 0.234354 0.283634
H46   H     H_    0.670106 0.211560 0.343071 0.164798
H47   H     H_    0.712266 0.311209 0.310371 0.164591
H48   H     H_    0.503054 0.269054 0.342284 0.209832
H49   H     H_    0.548496 0.363444 0.299722 0.235318
H50   H     H_    0.607944 0.287102 0.168294 0.290332
H51   H     H_    0.481004 0.279680 0.178022 0.251594
H52   H     H_    0.555693 0.195023 0.211261 0.280382
H53   H     H_    0.295748 0.203504 0.293237 0.150174
H54   H     H_    0.307137 0.305166 0.338815 0.137178
H55   H     H_    0.140089 0.243113 0.219840 0.224831
H56   H     H_    0.070477 0.016381 0.224117 0.276004
H57   H     H_    0.150235 0.342701 0.267878 0.238524
H58   H     H_    0.299168 0.367975 0.186769 0.276071
H59   H     H_    0.199552 0.344571 0.112667 0.260263
H60   H     H_    0.288367 0.267848 0.138017 0.256297
H61   H     H_    0.170099 0.711567 0.343073 0.164791
H62   H     H_    0.212250 0.811219 0.310374 0.164597
H63   H     H_    0.003043 0.769054 0.342302 0.209832
H64   H     H_    0.048477 0.863448 0.299741 0.235319
H65   H     H_    0.107915 0.787117 0.168302 0.290326
H66   H     H_    0.980977 0.779684 0.178043 0.251584
H67   H     H_    0.112430 0.065245 0.126128 0.264092
H68   H     H_    0.055679 0.695031 0.211270 0.280378
H69   H     H_    0.777010 0.530221 0.075535 0.133681
H70   H     H_    0.825175 0.565968 0.180574 0.112076
O1    O     O_3   0.500000 0.000000 0.500000 -0.530567
O2    O     O_R   0.885830 0.337110 0.539910 -0.580450
O3    O     O_R   0.692160 0.095230 0.468550 -0.643892
O4    O     O_R   0.692160 0.904770 0.468550 -0.658931
O5    O     O_R   0.192160 0.595230 0.468550 -0.643887
O6    O     O_R   0.192160 0.404770 0.468550 -0.658911
O7    O     O_R   0.316720 0.904790 0.427870 -0.646714
O8    O     O_R   0.316720 0.095210 0.427870 -0.644109
O9    O     O_R   0.816720 0.404790 0.427870 -0.646715
O10   O     O_R   0.816720 0.595210 0.427870 -0.644085
O11   O     O_R   0.594900 1.000000 0.310900 -0.593183
O12   O     O_3   0.000000 0.500000 0.500000 -0.530572
O13   O     O_R   0.094900 0.500000 0.310900 -0.593195
O14   O     O_R   0.483090 0.932320 0.697550 -0.610211
O15   O     O_R   0.483090 0.067680 0.697550 -0.606716
O16   O     O_R   0.983090 0.432320 0.697550 -0.610209
O17   O     O_R   0.983090 0.567680 0.697550 -0.606718
O18   O     O_R   0.438930 0.000000 0.294000 -0.645525
O19   O     O_R   0.938930 0.500000 0.294000 -0.645522
O20   O     O_3   0.368229 0.949297 0.144376 -0.558317
O21   O     O_3   0.868231 0.449292 0.144376 -0.558319
O22   O     O_3   0.695587 0.080864 0.003418 -0.533023
O23   O     O_R   0.605310 0.837110 0.563680 -0.615397
O24   O     O_3   0.195589 0.580860 0.003419 -0.533021
O25   O     O_3   0.327186 0.916141 0.813280 -0.566137
O26   O     O_3   0.827187 0.416140 0.813279 -0.566137
O27   O     O_3   0.699049 0.731254 0.388029 -0.658190
O28   O     O_3   0.656612 0.304033 0.435419 -0.658229
O29   O     O_3   0.199061 0.231267 0.388021 -0.658199
O30   O     O_3   0.156608 0.804037 0.435426 -0.658228
O31   O     O_R   0.605310 0.162890 0.563680 -0.619047
O32   O     O_R   0.105310 0.337110 0.563680 -0.615400
O33   O     O_R   0.105310 0.662890 0.563680 -0.619045
O34   O     O_R   0.385830 0.162890 0.539910 -0.586554
O35   O     O_R   0.385830 0.837110 0.539910 -0.580450
O36   O     O_R   0.885830 0.662890 0.539910 -0.586562
Zn1   Zn    Zn3+2 0.493670 0.096680 0.574000 1.051100
Zn2   Zn    Zn3+2 0.493670 0.903320 0.574000 1.065485
Zn3   Zn    Zn3+2 0.993670 0.596680 0.574000 1.051099
Zn4   Zn    Zn3+2 0.993670 0.403320 0.574000 1.065485
Zn5   Zn    Zn3+2 0.617760 0.000000 0.438070 1.015678
Zn6   Zn    Zn3+2 0.117760 0.500000 0.438070 1.015692
Zn7   Zn    Zn3+2 0.394920 0.000000 0.413930 0.957561
Zn8   Zn    Zn3+2 0.894920 0.500000 0.413930 0.957573

loop_
_geom_bond_atom_site_label_1
_geom_bond_atom_site_label_2
_ccdc_geom_bond_type
O9    Zn8   S    
C66   C68   S    
C21   C26   S    
O23   Zn2   S    
C21   O13   A    
C33   C45   A    
C3    F1    S    
C1    C11   S    
C49   O25   S    
C12   O3    A    
O11   Zn5   S    
C30   C69   A    
C49   H24   S    
O12   Zn6   S    
O31   Zn1   S    
C68   H66   S    
C31   O25   S    
C53   C54   S    
C27   C33   A    
C59   H46   S    
O1    Zn1   S    
C41   H6    S    
C32   O26   S    
C39   H70   S    
C1    O23   A    
C58   H43   S    
C43   H9    S    
C47   H18   S    
O7    Zn7   S    
C25   C70   A    
C62   H53   S    
C36   C37   S    
C10   C19   S    
O3    Zn5   S    
C66   H64   S    
C20   C25   S    
C48   H21   S    
C59   H47   S    
C34   O5    A    
C22   O14   A    
C66   H63   S    
C49   C50   S    
O2    Zn4   S    
C44   H13   S    
C61   H52   S    
C29   C67   A    
C22   O15   A    
C7    C14   D    
C15   F9    S    
C46   H15   S    
C12   O31   A    
C28   C35   A    
C17   O35   A    
C51   H28   S    
C54   H36   S    
C45   C67   A    
C50   H25   S    
C39   O21   S    
C46   O24   S    
O13   Zn6   S    
C38   H56   S    
C2    C69   A    
C17   O7    A    
C52   O26   S    
C15   C34   S    
C68   H68   S    
C2    O21   S    
C36   H12   S    
O1    Zn5   S    
C59   C60   S    
C51   H29   S    
C23   O6    A    
C63   H57   S    
C40   H3    S    
C48   H20   S    
O33   Zn3   S    
C53   H33   S    
O32   Zn4   S    
C19   O2    A    
O1    Zn2   S    
C20   O18   A    
C58   H42   S    
O8    Zn7   S    
C16   O8    A    
C10   O28   S    
C40   H2    S    
C28   C32   A    
C24   O17   A    
C18   O10   A    
C23   O32   A    
C4    C6    A    
C11   F10   S    
C49   H22   S    
C37   H23   S    
O35   Zn2   S    
C55   H39   S    
C37   H34   S    
C6    O24   S    
C52   H31   S    
O14   Zn2   S    
C55   O27   S    
C43   H10   S    
C27   C31   A    
C35   F7    S    
C64   H59   S    
C60   C61   S    
O16   Zn4   S    
C63   H55   S    
C14   C23   S    
C24   O16   A    
C43   C44   S    
C37   C38   S    
C65   H61   S    
C8    O30   S    
C33   F6    S    
C47   C48   S    
C62   O29   S    
C3    C25   A    
C36   H1    S    
C54   H35   S    
O12   Zn8   S    
C62   C63   S    
C50   C51   S    
C7    O29   S    
C34   O33   A    
C2    C26   A    
O15   Zn1   S    
C9    C11   D    
C4    F3    S    
C44   H11   S    
C42   O22   S    
C61   H50   S    
C57   H40   S    
O6    Zn6   S    
C53   H32   S    
C7    C16   S    
C65   O30   S    
C65   C66   S    
C8    C15   D    
C22   C27   S    
C55   C57   S    
C42   H8    S    
C42   C43   S    
O12   Zn4   S    
C38   H45   S    
C9    O27   S    
C52   C53   S    
O10   Zn8   S    
C64   H60   S    
C48   H19   S    
C46   C47   S    
C40   C41   S    
C30   F5    S    
C35   C56   A    
C58   H44   S    
C59   O28   S    
C24   C28   S    
C60   H48   S    
C6    C56   A    
C3    C5    A    
C10   C13   D    
C60   H49   S    
C4    C26   A    
C16   O34   A    
O19   Zn8   S    
C29   F4    S    
C13   F2    S    
C41   H5    S    
C39   H69   S    
C36   O20   S    
C8    C17   S    
C47   H17   S    
O34   Zn1   S    
O18   Zn7   S    
C67   C70   A    
C19   O9    A    
O1    Zn7   S    
O36   Zn3   S    
C70   O20   S    
C64   H58   S    
C29   C31   A    
C30   C32   A    
C65   H62   S    
C41   H4    S    
C62   H54   S    
C57   C58   S    
C5    C45   A    
C21   O19   A    
C20   O11   A    
C5    O22   S    
C18   O36   A    
C14   F8    S    
C1    O4    A    
C38   H67   S    
C44   H14   S    
O5    Zn6   S    
C61   H51   S    
C57   H41   S    
C63   C64   S    
C39   C40   S    
C9    C18   S    
C46   H16   S    
C12   C13   S    
C51   H27   S    
C56   C69   A    
C54   H37   S    
C50   H26   S    
C42   H7    S    
C52   H30   S    
C55   H38   S    
O12   Zn3   S    
O17   Zn3   S    
C68   H65   S    
O4    Zn5   S    
