data_mof_unit_43162.cif
_audit_creation_date              2012-12-10T19:48:36-0500
_audit_creation_method            fapswitch 2.2
_symmetry_space_group_name_H-M    P1
_symmetry_Int_Tables_number       1
_space_group_crystal_system       triclinic
_cell_length_a                    13.16908
_cell_length_b                    14.178877
_cell_length_c                    14.964173
_cell_angle_alpha                 89.50808
_cell_angle_beta                  90.082579
_cell_angle_gamma                 70.136427
_cell_volume                      2627.78678977

loop_
_atom_site_label
_atom_site_type_symbol
_atom_type_description
_atom_site_fract_x
_atom_site_fract_y
_atom_site_fract_z
_atom_type_partial_charge
C1    C     C_R   0.501030 0.499232 0.672476 0.891521
C2    C     C_R   0.981649 0.457117 0.496969 0.000948
C3    C     C_R   0.878373 0.469111 0.530856 0.003657
C4    C     C_R   0.029405 0.529699 0.519137 0.040993
C5    C     C_R   0.978963 0.606635 0.581517 0.051462
C6    C     C_R   0.880409 0.611917 0.619989 0.431977
C7    C     C_R   0.832595 0.542092 0.596446 -0.281731
C8    C     C_R   0.127021 0.527370 0.481627 -0.218967
C9    C     C_R   0.131016 0.665885 0.572938 -0.214543
C10   C     C_R   0.821369 0.409239 0.496909 -0.121542
C11   C     C_R   0.494900 0.412066 0.907171 0.465299
C12   C     C_R   0.704139 0.444512 0.501738 0.904988
C13   C     C_R   0.487744 0.417195 0.814869 -0.279967
C14   C     C_R   0.506725 0.495856 0.768698 -0.105718
C15   C     C_R   0.532858 0.570004 0.814748 -0.228235
C16   C     C_R   0.538462 0.566313 0.906867 -0.153369
C17   C     C_R   0.518663 0.488279 0.953102 0.066507
C18   C     C_R   0.606560 0.494344 0.097898 0.354628
C19   C     C_R   0.599462 0.503095 0.190851 0.267547
C20   C     C_R   0.505814 0.499287 0.233095 -0.247802
C21   C     C_R   0.416921 0.493567 0.185162 0.368501
C22   C     C_R   0.422282 0.491190 0.092535 -0.271639
C23   C     C_R   0.501354 0.499968 0.328273 1.063783
C24   C     C_R   0.516472 0.490746 0.049479 -0.105668
C25   C     C_R   0.477690 0.900228 0.579842 -0.206506
C26   C     C_R   0.476502 0.801526 0.576941 -0.039838
C27   C     C_R   0.521983 0.790423 0.423904 0.000167
C28   C     C_R   0.522423 0.889534 0.423624 -0.289856
C29   C     C_R   0.501663 0.945982 0.502676 0.156938
C30   C     C_R   0.589959 0.077860 0.465515 0.305205
C31   C     C_R   0.583870 0.178946 0.462590 -0.018656
C32   C     C_R   0.418624 0.229596 0.540481 -0.145440
C33   C     C_R   0.416925 0.130336 0.541605 0.363741
C34   C     C_R   0.296106 0.555456 0.500194 0.901175
C35   C     C_R   0.503877 0.052021 0.504132 -0.110056
C36   C     C_R   0.029514 0.675596 0.606047 -0.167987
C37   C     C_R   0.180776 0.589150 0.513218 -0.044887
C38   C     C_R   0.873089 0.326818 0.442963 -0.284842
C39   C     C_R   0.980182 0.307079 0.417134 0.484231
C40   C     C_R   0.032996 0.372781 0.442566 -0.211706
H1    H     H_    0.173285 0.713670 0.598365 0.156451
H2    H     H_    0.466347 0.360043 0.779737 0.183468
H3    H     H_    0.548425 0.630895 0.779780 0.168178
H4    H     H_    0.555735 0.625514 0.942300 0.174690
H5    H     H_    0.353193 0.489793 0.053791 0.188656
H6    H     H_    0.461898 0.939657 0.642701 0.179866
H7    H     H_    0.458139 0.767884 0.637065 0.137402
H8    H     H_    0.538873 0.748088 0.362860 0.134035
H9    H     H_    0.539193 0.921825 0.361944 0.172913
H10   H     H_    0.648917 0.198432 0.432605 0.158073
H11   H     H_    0.355011 0.288575 0.572906 0.158569
H12   H     H_    0.993471 0.733919 0.654195 0.178881
H13   H     H_    0.167252 0.474159 0.431111 0.156679
H14   H     H_    0.828630 0.280945 0.417382 0.152463
H15   H     H_    0.115046 0.353909 0.419992 0.148643
H16   H     H_    0.758747 0.545836 0.630344 0.176115
N1    N     N_R   0.500000 0.747530 0.500020 -0.090849
N2    N     N_R   0.499940 0.252470 0.500020 -0.141338
O1    O     O_R   0.499990 0.420530 0.630930 -0.618497
O2    O     O_R   0.499990 0.579480 0.630940 -0.641719
O3    O     O_R   0.653620 0.381060 0.499970 -0.626269
O4    O     O_R   0.653620 0.540010 0.499980 -0.624740
O5    O     O_R   0.500010 0.420520 0.369060 -0.594378
O6    O     O_R   0.500010 0.579470 0.369070 -0.630478
O7    O     O_R   0.346380 0.459990 0.500020 -0.616865
O8    O     O_R   0.346380 0.618940 0.500030 -0.612106
Zn1   Zn    Zn3+2 0.500000 0.393860 0.499990 0.960313
Zn2   Zn    Zn3+2 0.500000 0.606140 0.500010 0.943636
O9    O     O_3   0.699075 0.494427 0.054272 -0.621705
C41   C     C_3   0.771073 0.394957 0.048204 0.120912
H17   H     H_    0.741930 0.353734 0.997014 0.117240
H18   H     H_    0.781515 0.354167 0.113533 0.161811
C42   C     C_3   0.880994 0.396746 0.019191 -0.780167
H19   H     H_    0.912750 0.437060 0.069357 0.258678
H20   H     H_    0.938339 0.318850 0.013254 0.205805
H21   H     H_    0.874093 0.435302 0.953370 0.259559
O10   O     O_3   0.687451 0.503202 0.241952 -0.607923
C43   C     C_3   0.704331 0.595921 0.231278 0.160079
H22   H     H_    0.627303 0.660692 0.234442 0.111231
H23   H     H_    0.744443 0.598721 0.166594 0.195779
C44   C     C_3   0.778504 0.607038 0.305473 -0.833640
H24   H     H_    0.855503 0.542554 0.305241 0.269618
H25   H     H_    0.796399 0.677463 0.295368 0.207351
H26   H     H_    0.739019 0.610175 0.371256 0.270014
O11   O     O_3   0.325939 0.491965 0.230271 -0.767055
H27   H     H_    0.271335 0.487554 0.186307 0.339277
O12   O     O_3   0.832316 0.682522 0.684095 -0.610595
C45   C     C_3   0.761067 0.768381 0.640694 0.079141
H28   H     H_    0.694790 0.750285 0.606970 0.159701
H29   H     H_    0.804011 0.799047 0.590198 0.138512
C46   C     C_3   0.712277 0.849274 0.709572 -0.814938
H30   H     H_    0.777437 0.865235 0.746972 0.260452
H31   H     H_    0.661231 0.919314 0.675670 0.207627
H32   H     H_    0.661867 0.824139 0.757210 0.250983
O13   O     O_3   0.682495 0.007634 0.432613 -0.774818
H33   H     H_    0.691295 0.941493 0.459887 0.334628
O14   O     O_3   0.335070 0.107839 0.585042 -0.620283
C47   C     C_3   0.235278 0.156243 0.541904 0.119885
H34   H     H_    0.241831 0.147166 0.467917 0.173107
H35   H     H_    0.204652 0.237327 0.558452 0.137467
C48   C     C_3   0.153695 0.109736 0.575162 -0.768284
H36   H     H_    0.144586 0.118155 0.648732 0.248357
H37   H     H_    0.073993 0.147515 0.543130 0.222545
H38   H     H_    0.181369 0.028743 0.558572 0.253998
O15   O     O_3   0.034138 0.226653 0.364009 -0.782227
H39   H     H_    0.986156 0.187255 0.352223 0.334169
O16   O     O_3   0.468585 0.337743 0.951770 -0.611430
C49   C     C_3   0.564337 0.257807 0.972196 0.088179
H40   H     H_    0.610493 0.280032 0.025370 0.129850
H41   H     H_    0.616152 0.232873 0.912019 0.131129
C50   C     C_3   0.535219 0.169333 0.007226 -0.780516
H42   H     H_    0.489487 0.144456 0.955511 0.255542
H43   H     H_    0.609939 0.106051 0.024201 0.201593
H44   H     H_    0.484936 0.191221 0.068193 0.263257

loop_
_geom_bond_atom_site_label_1
_geom_bond_atom_site_label_2
_ccdc_geom_bond_type
C27   H8    S    
O8    Zn2   S    
O12   C45   S    
C48   H36   S    
C34   C37   S    
C42   H19   S    
C50   H42   S    
C32   N2    A    
C4    C8    A    
C34   O8    A    
C44   H24   S    
O10   C43   S    
C30   C35   A    
C18   C24   A    
O6    Zn2   S    
C31   N2    A    
C28   C29   A    
C3    C7    A    
C1    O1    A    
C30   C31   A    
C43   H23   S    
C15   C16   A    
C5    C36   A    
C49   H40   S    
C18   C19   A    
C19   O10   S    
O1    Zn1   S    
O13   H33   S    
C16   C17   A    
O7    Zn1   S    
C9    C36   A    
O16   C49   S    
C45   C46   S    
C41   H17   S    
C16   H4    S    
C36   H12   S    
C18   O9    S    
C23   O5    A    
C48   H37   S    
C21   C22   A    
C42   H20   S    
C7    H16   S    
C34   O7    A    
C13   H2    S    
C44   H25   S    
O14   C47   S    
C21   O11   S    
C25   C29   A    
C38   C39   A    
O5    Zn1   S    
C17   C24   S    
C27   N1    A    
C1    O2    A    
C39   C40   A    
C43   H22   S    
C25   C26   A    
O11   H27   S    
C6    O12   S    
C2    C4    A    
C32   H11   S    
C30   O13   S    
C46   H31   S    
C12   O4    A    
C28   H9    S    
O3    Zn1   S    
C38   H14   S    
C20   C23   S    
C40   H15   S    
C41   C42   S    
C9    C37   A    
C50   H43   S    
C20   C21   A    
C10   C12   S    
C26   H7    S    
C23   O6    A    
C45   H29   S    
C48   H38   S    
C47   H35   S    
C11   O16   S    
C42   H21   S    
C22   C24   A    
C8    C37   A    
N1    Zn2   S    
C46   H30   S    
C44   H26   S    
C39   O15   S    
C11   C17   A    
C4    C5    A    
C8    H13   S    
C6    C7    A    
C47   C48   S    
O15   H39   S    
C29   C35   S    
C9    H1    S    
C49   C50   S    
O4    Zn2   S    
C10   C38   A    
C32   C33   A    
C19   C20   A    
C2    C3    A    
C15   H3    S    
C3    C10   A    
C46   H32   S    
C12   O3    A    
C11   C13   A    
C43   C44   S    
C5    C6    A    
C33   C35   A    
C49   H41   S    
C50   H44   S    
C33   O14   S    
O9    C41   S    
C26   N1    A    
C2    C40   A    
N2    Zn1   S    
C22   H5    S    
C45   H28   S    
O2    Zn2   S    
C47   H34   S    
C27   C28   A    
C14   C15   A    
C41   H18   S    
C1    C14   S    
C31   H10   S    
C13   C14   A    
C25   H6    S    
