data_mof_unit_12053.cif
_audit_creation_date              2012-10-26T21:07:43-0400
_audit_creation_method            fapswitch 2.2
_symmetry_space_group_name_H-M    P1
_symmetry_Int_Tables_number       1
_space_group_crystal_system       triclinic
_cell_length_a                    11.129737
_cell_length_b                    9.090702
_cell_length_c                    7.788949
_cell_angle_alpha                 90.047847
_cell_angle_beta                  102.550293
_cell_angle_gamma                 90.054892
_cell_volume                      769.232386246

loop_
_atom_site_label
_atom_site_type_symbol
_atom_type_description
_atom_site_fract_x
_atom_site_fract_y
_atom_site_fract_z
_atom_type_partial_charge
C1    C     C_R   0.500151 0.220043 0.500000 0.536098
C2    C     C_1   0.499944 0.934621 0.500047 -0.064064
C3    C     C_3   0.905150 0.735182 0.321622 -0.022779
C4    C     C_3   0.796850 0.826488 0.351666 -0.348219
C5    C     C_3   0.094863 0.264847 0.678391 -0.022805
C6    C     C_3   0.203242 0.173561 0.648602 -0.348132
C7    C     C_R   0.499850 0.779957 0.500001 0.536105
C8    C     C_R   0.262708 0.497108 0.429843 0.544837
C9    C     C_R   0.737291 0.502892 0.570157 0.544841
C10   C     C_2   0.129180 0.503671 0.390518 -0.098325
C11   C     C_2   0.870819 0.496335 0.609483 -0.098314
C12   C     C_2   0.065226 0.477762 0.515343 0.234225
C13   C     C_2   0.934775 0.522264 0.484667 0.234245
C14   C     C_1   0.500058 0.065379 0.499954 -0.064065
Cu1   Cu    Cu3+1 0.500010 0.500000 0.669080 1.033081
Cu2   Cu    Cu3+1 0.499990 0.500000 0.330920 1.033086
H1    H     H_    0.916385 0.459996 0.740169 0.101618
H2    H     H_    0.287621 0.202991 0.747617 0.191369
H3    H     H_    0.183586 0.054814 0.661774 0.091183
H4    H     H_    0.218787 0.193278 0.514512 0.138505
H5    H     H_    0.083613 0.540005 0.259831 0.101624
H6    H     H_    0.920893 0.762477 0.189293 0.146723
H7    H     H_    0.990267 0.769024 0.418310 0.102510
H8    H     H_    0.781425 0.806740 0.485817 0.138454
H9    H     H_    0.816517 0.945231 0.338504 0.091192
H10   H     H_    0.712395 0.797106 0.252768 0.191378
H11   H     H_    0.009825 0.230961 0.581572 0.102506
H12   H     H_    0.078992 0.237577 0.810656 0.146690
N1    N     N_1   0.499980 0.500000 0.076820 -0.072009
N2    N     N_1   0.500020 0.500000 0.923180 -0.072013
O1    O     O_R   0.500010 0.288400 0.642760 -0.509783
O2    O     O_3   0.122453 0.417127 0.676258 -0.550549
O3    O     O_R   0.499990 0.711600 0.357240 -0.509784
O4    O     O_R   0.499990 0.288400 0.357240 -0.499744
O5    O     O_R   0.500010 0.711600 0.642760 -0.499733
O6    O     O_R   0.320690 0.500000 0.590310 -0.443456
O7    O     O_R   0.679310 0.500000 0.409690 -0.443452
O8    O     O_R   0.320680 0.500000 0.304730 -0.511246
O9    O     O_R   0.679320 0.500000 0.695270 -0.511247
O10   O     O_3   0.877547 0.582906 0.323755 -0.550550

loop_
_geom_bond_atom_site_label_1
_geom_bond_atom_site_label_2
_ccdc_geom_bond_type
C1    O4    A    
C4    H10   S    
Cu1   O1    S    
N1    N2    T    
Cu2   O3    S    
C5    H12   S    
C11   C13   D    
C3    H7    S    
C2    C7    S    
C9    O9    A    
Cu2   O7    S    
C5    O2    S    
C9    O7    A    
C4    H9    S    
C12   O2    S    
C6    H3    S    
C9    C11   S    
Cu1   O9    S    
C10   C12   D    
C2    C14   T    
Cu1   O5    S    
C3    O10   S    
C8    O8    A    
C10   H5    S    
C5    C6    S    
C4    H8    S    
C6    H2    S    
C7    O3    A    
Cu1   Cu2   S    
Cu1   O6    S    
C1    O1    A    
C6    H4    S    
C12   C13   S    
Cu1   N2    S    
C8    C10   S    
C8    O6    A    
C11   H1    S    
C13   O10   S    
C1    C14   S    
Cu2   O4    S    
Cu2   N1    S    
C5    H11   S    
C7    O5    A    
C3    C4    S    
Cu2   O8    S    
C3    H6    S    
