data_mof_unit_17941.cif
_audit_creation_date              2012-12-11T14:30:07-0500
_audit_creation_method            fapswitch 2.2
_symmetry_space_group_name_H-M    P1
_symmetry_Int_Tables_number       1
_space_group_crystal_system       triclinic
_cell_length_a                    12.716736
_cell_length_b                    12.716818
_cell_length_c                    26.987987
_cell_angle_alpha                 89.999601
_cell_angle_beta                  90.000113
_cell_angle_gamma                 120.000385
_cell_volume                      3779.66709968

loop_
_atom_site_label
_atom_site_type_symbol
_atom_type_description
_atom_site_fract_x
_atom_site_fract_y
_atom_site_fract_z
_atom_type_partial_charge
C1    C     C_R   0.557196 0.455864 0.821819 0.543062
C2    C     C_R   0.893774 0.439035 0.676906 0.539760
C3    C     C_R   0.544135 0.101332 0.821818 0.543067
C4    C     C_R   0.560964 0.454740 0.676906 0.539760
C5    C     C_R   0.898667 0.442803 0.821818 0.543064
C6    C     C_R   0.545261 0.106227 0.676906 0.539763
C7    C     C_R   0.455860 0.557199 0.321820 0.543046
C8    C     C_R   0.439038 0.893777 0.176905 0.539777
C9    C     C_R   0.101340 0.544139 0.321820 0.543045
C10   C     C_R   0.454742 0.560961 0.176906 0.539773
C11   C     C_R   0.442801 0.898661 0.321820 0.543045
C12   C     C_R   0.106221 0.545260 0.176906 0.539773
C13   C     C_R   0.020979 0.522757 0.970305 0.027858
C14   C     C_R   0.527510 0.037722 0.521873 0.027931
C15   C     C_R   0.477245 0.498219 0.970306 0.027852
C16   C     C_R   0.962290 0.489790 0.521874 0.027941
C17   C     C_R   0.501776 0.979010 0.970304 0.027849
C18   C     C_R   0.510210 0.472500 0.521875 0.027937
C19   C     C_R   0.522773 0.020967 0.470309 0.027793
C20   C     C_R   0.037710 0.527492 0.021872 0.028011
C21   C     C_R   0.498194 0.477237 0.470310 0.027798
C22   C     C_R   0.489780 0.962280 0.021870 0.028011
C23   C     C_R   0.979046 0.501805 0.470310 0.027800
C24   C     C_R   0.472520 0.510214 0.021873 0.028003
C25   C     C_R   0.935525 0.656424 0.977912 0.094968
C26   C     C_R   0.660163 0.951069 0.529983 0.091848
C27   C     C_R   0.343574 0.279093 0.977915 0.094972
C28   C     C_R   0.048949 0.709096 0.529983 0.091840
C29   C     C_R   0.720898 0.064443 0.977910 0.094986
C30   C     C_R   0.290904 0.339846 0.529983 0.091846
C31   C     C_R   0.656190 0.935225 0.477945 0.094935
C32   C     C_R   0.951321 0.660378 0.029954 0.091856
C33   C     C_R   0.279036 0.343812 0.477944 0.094934
C34   C     C_R   0.709049 0.048618 0.029951 0.091851
C35   C     C_R   0.064807 0.720967 0.477945 0.094934
C36   C     C_R   0.339631 0.290937 0.029956 0.091872
C37   C     C_R   0.938445 0.567105 0.897777 -0.115492
C38   C     C_R   0.598700 0.020778 0.603647 -0.124846
C39   C     C_R   0.432890 0.371337 0.897778 -0.115495
C40   C     C_R   0.979222 0.577924 0.603646 -0.124852
C41   C     C_R   0.628660 0.061547 0.897776 -0.115492
C42   C     C_R   0.422073 0.401306 0.603648 -0.124848
C43   C     C_R   0.566992 0.938278 0.397797 -0.115506
C44   C     C_R   0.020878 0.598801 0.103635 -0.124806
C45   C     C_R   0.371287 0.433010 0.397797 -0.115507
C46   C     C_R   0.577919 0.979098 0.103633 -0.124805
C47   C     C_R   0.061734 0.628712 0.397797 -0.115510
C48   C     C_R   0.401212 0.422073 0.103637 -0.124808
C49   C     C_R   0.069491 0.531766 0.124755 -0.014473
C50   C     C_R   0.486598 0.960026 0.369719 -0.022044
C51   C     C_R   0.468244 0.537722 0.124756 -0.014473
C52   C     C_R   0.039980 0.526571 0.369719 -0.022044
C53   C     C_R   0.462273 0.930506 0.124754 -0.014471
C54   C     C_R   0.473428 0.513404 0.369719 -0.022045
C55   C     C_R   0.531781 0.069531 0.624753 -0.014464
C56   C     C_R   0.960060 0.486602 0.869713 -0.022058
C57   C     C_R   0.537746 0.468224 0.624754 -0.014462
C58   C     C_R   0.526541 0.039936 0.869713 -0.022057
C59   C     C_R   0.930474 0.462253 0.624754 -0.014462
C60   C     C_R   0.513394 0.473457 0.869713 -0.022058
C61   C     C_R   0.966763 0.584497 0.948420 0.028149
C62   C     C_R   0.595420 0.002114 0.552051 0.029437
C63   C     C_R   0.415499 0.382262 0.948421 0.028143
C64   C     C_R   0.997892 0.593307 0.552050 0.029427
C65   C     C_R   0.617733 0.033224 0.948419 0.028147
C66   C     C_R   0.406691 0.404589 0.552052 0.029432
C67   C     C_R   0.584387 0.966601 0.448439 0.028104
C68   C     C_R   0.002227 0.595521 0.052036 0.029496
C69   C     C_R   0.382215 0.415618 0.448439 0.028101
C70   C     C_R   0.593290 0.997744 0.052034 0.029498
C71   C     C_R   0.033416 0.617785 0.448439 0.028097
C72   C     C_R   0.404493 0.406701 0.052039 0.029494
C73   C     C_R   0.024030 0.434750 0.890673 -0.126385
C74   C     C_R   0.462346 0.101180 0.594362 -0.123381
C75   C     C_R   0.565245 0.589280 0.890672 -0.126389
C76   C     C_R   0.898839 0.361171 0.594365 -0.123370
C77   C     C_R   0.410716 0.975964 0.890672 -0.126398
C78   C     C_R   0.638830 0.537663 0.594364 -0.123368
C79   C     C_R   0.434859 0.024116 0.390664 -0.126374
C80   C     C_R   0.100992 0.462201 0.094375 -0.123357
C81   C     C_R   0.589258 0.565148 0.390665 -0.126382
C82   C     C_R   0.361207 0.899018 0.094375 -0.123349
C83   C     C_R   0.975894 0.410742 0.390666 -0.126381
C84   C     C_R   0.537818 0.638788 0.094376 -0.123351
C85   C     C_R   0.054744 0.452285 0.940783 0.018034
C86   C     C_R   0.461468 0.087803 0.543362 0.008401
C87   C     C_R   0.547716 0.602458 0.940783 0.018024
C88   C     C_R   0.912215 0.373668 0.543364 0.008415
C89   C     C_R   0.397536 0.945248 0.940782 0.018007
C90   C     C_R   0.626333 0.538543 0.543364 0.008412
C91   C     C_R   0.452413 0.054852 0.440773 0.017960
C92   C     C_R   0.087637 0.461325 0.043374 0.008495
C93   C     C_R   0.602440 0.547598 0.440775 0.017966
C94   C     C_R   0.373684 0.912366 0.043373 0.008484
C95   C     C_R   0.945163 0.397561 0.440775 0.017970
C96   C     C_R   0.538694 0.626309 0.043375 0.008480
C97   C     C_R   0.124634 0.395581 0.013653 -0.145135
C98   C     C_R   0.393256 0.110952 0.462515 -0.138560
C99   C     C_R   0.604444 0.729051 0.013653 -0.145155
C100  C     C_R   0.889072 0.282306 0.462519 -0.138566
C101  C     C_R   0.270941 0.875373 0.013652 -0.145147
C102  C     C_R   0.717696 0.606758 0.462518 -0.138563
C103  C     C_R   0.395840 0.124919 0.513627 -0.145077
C104  C     C_R   0.110705 0.393010 0.962539 -0.138618
C105  C     C_R   0.729079 0.604173 0.513630 -0.145081
C106  C     C_R   0.282298 0.889293 0.962539 -0.138628
C107  C     C_R   0.875108 0.270924 0.513631 -0.145085
C108  C     C_R   0.607001 0.717696 0.962539 -0.138628
Cr1   Cr    Cr6+3 0.487630 0.241180 0.750000 1.024202
Cr2   Cr    Cr6+3 0.753550 0.512370 0.750000 1.024202
Cr3   Cr    Cr6+3 0.758820 0.246450 0.750000 1.024202
Cr4   Cr    Cr6+3 0.241180 0.487630 0.250000 1.024190
Cr5   Cr    Cr6+3 0.512370 0.753550 0.250000 1.024195
Cr6   Cr    Cr6+3 0.246450 0.758820 0.250000 1.024192
H1    H     H_    0.999166 0.653837 0.127478 0.160830
H2    H     H_    0.608024 0.890003 0.381079 0.180014
H3    H     H_    0.346174 0.345324 0.127480 0.160830
H4    H     H_    0.110010 0.718020 0.381078 0.180023
H5    H     H_    0.654665 0.000800 0.127475 0.160836
H6    H     H_    0.281978 0.391975 0.381079 0.180015
H7    H     H_    0.653639 0.998956 0.627501 0.160837
H8    H     H_    0.890270 0.608230 0.881046 0.179979
H9    H     H_    0.345313 0.346364 0.627500 0.160837
H10   H     H_    0.717960 0.109722 0.881046 0.179977
H11   H     H_    0.001035 0.654683 0.627498 0.160836
H12   H     H_    0.391764 0.282038 0.881048 0.179972
H13   H     H_    0.142035 0.412784 0.110178 0.143929
H14   H     H_    0.374571 0.042968 0.368826 0.135186
H15   H     H_    0.587239 0.729249 0.110178 0.143945
H16   H     H_    0.957041 0.331602 0.368829 0.135183
H17   H     H_    0.270747 0.857986 0.110178 0.143935
H18   H     H_    0.668398 0.625435 0.368828 0.135182
H19   H     H_    0.413030 0.142339 0.610157 0.143932
H20   H     H_    0.042791 0.374382 0.868847 0.135216
H21   H     H_    0.729305 0.586979 0.610160 0.143933
H22   H     H_    0.331588 0.957205 0.868846 0.135218
H23   H     H_    0.857689 0.270698 0.610161 0.143935
H24   H     H_    0.625613 0.668409 0.868846 0.135216
H25   H     H_    0.161252 0.343495 0.030205 0.126623
H26   H     H_    0.339398 0.137674 0.440354 0.127051
H27   H     H_    0.656544 0.817751 0.030206 0.126670
H28   H     H_    0.862356 0.201725 0.440360 0.127045
H29   H     H_    0.182238 0.838766 0.030205 0.126644
H30   H     H_    0.798277 0.660615 0.440358 0.127040
H31   H     H_    0.343850 0.161659 0.530168 0.126663
H32   H     H_    0.137342 0.339068 0.940388 0.127046
H33   H     H_    0.817809 0.656161 0.530172 0.126674
H34   H     H_    0.201718 0.862659 0.940388 0.127048
H35   H     H_    0.838376 0.182196 0.530174 0.126659
H36   H     H_    0.660944 0.798274 0.940388 0.127041
O1    O     O_R   0.460870 0.120930 0.805240 -0.511508
O2    O     O_R   0.660060 0.539130 0.694760 -0.513953
O3    O     O_R   0.879070 0.339940 0.805240 -0.511505
O4    O     O_R   0.460870 0.120930 0.694760 -0.513953
O5    O     O_R   0.660060 0.539130 0.805240 -0.511505
O6    O     O_R   0.879070 0.339940 0.694760 -0.513953
O7    O     O_R   0.120930 0.460870 0.305240 -0.511501
O8    O     O_R   0.539130 0.660060 0.194760 -0.513976
O9    O     O_R   0.339940 0.879070 0.305240 -0.511498
O10   O     O_R   0.120930 0.460870 0.194760 -0.513978
O11   O     O_R   0.539130 0.660060 0.305240 -0.511500
O12   O     O_R   0.339940 0.879070 0.194760 -0.513976
O13   O     O_R   0.498910 0.350470 0.801870 -0.503430
O14   O     O_R   0.851560 0.501090 0.698130 -0.503757
O15   O     O_R   0.649530 0.148440 0.801870 -0.503430
O16   O     O_R   0.498910 0.350470 0.698130 -0.503757
O17   O     O_R   0.851560 0.501090 0.801870 -0.503432
O18   O     O_R   0.649530 0.148440 0.698130 -0.503756
O19   O     O_R   0.350470 0.498910 0.301870 -0.503445
O20   O     O_R   0.501090 0.851560 0.198130 -0.503743
O21   O     O_R   0.148440 0.649530 0.301870 -0.503448
O22   O     O_R   0.350470 0.498910 0.198130 -0.503740
O23   O     O_R   0.501090 0.851560 0.301870 -0.503446
O24   O     O_R   0.148440 0.649530 0.198130 -0.503741
O25   O     O_3   0.666667 0.333333 0.750000 -0.241707
O26   O     O_3   0.333333 0.666667 0.250000 -0.241698
N1    N     N_3   0.916446 0.730347 0.060502 -0.656775
H37   H     H_    0.823631 0.697853 0.055797 0.244310
H38   H     H_    0.964598 0.821045 0.049195 0.220238
N2    N     N_3   0.723785 0.886110 0.454866 -0.660619
H39   H     H_    0.815850 0.942257 0.462949 0.221693
H40   H     H_    0.694666 0.800577 0.469992 0.247377
N3    N     N_3   0.269653 0.186092 0.060505 -0.656761
H41   H     H_    0.302090 0.125729 0.055784 0.244304
H42   H     H_    0.178947 0.143593 0.049212 0.220231
N4    N     N_3   0.113963 0.837683 0.454867 -0.660620
H43   H     H_    0.057834 0.873626 0.462943 0.221691
H44   H     H_    0.199495 0.894074 0.469999 0.247395
N5    N     N_3   0.813888 0.083425 0.060496 -0.656799
H45   H     H_    0.874229 0.176237 0.055807 0.244300
H46   H     H_    0.856415 0.035265 0.049174 0.220226
N6    N     N_3   0.162328 0.276199 0.454864 -0.660625
H47   H     H_    0.126430 0.184135 0.462946 0.221687
H48   H     H_    0.105897 0.305297 0.469989 0.247376
N7    N     N_3   0.730035 0.916094 0.560544 -0.656721
H49   H     H_    0.697448 0.823260 0.555848 0.244336
H50   H     H_    0.820741 0.964165 0.549242 0.220303
N8    N     N_3   0.886625 0.724192 0.954814 -0.660676
H51   H     H_    0.942906 0.816235 0.962896 0.221636
H52   H     H_    0.801113 0.695239 0.969926 0.247310
N9    N     N_3   0.186053 0.269983 0.560545 -0.656721
H53   H     H_    0.125818 0.302585 0.555848 0.244338
H54   H     H_    0.143407 0.179277 0.549243 0.220304
N10   N     N_3   0.837567 0.113328 0.954811 -0.660661
H55   H     H_    0.873295 0.057007 0.962876 0.221631
H56   H     H_    0.894159 0.198815 0.969938 0.247297
N11   N     N_3   0.083967 0.813951 0.560545 -0.656730
H57   H     H_    0.176821 0.874131 0.555868 0.244344
H58   H     H_    0.035984 0.856666 0.549228 0.220316
N12   N     N_3   0.275815 0.162422 0.954819 -0.660669
H59   H     H_    0.183772 0.126619 0.962916 0.221646
H60   H     H_    0.304815 0.105887 0.969919 0.247305

loop_
_geom_bond_atom_site_label_1
_geom_bond_atom_site_label_2
_ccdc_geom_bond_type
C44   C49   A    
C79   H14   S    
C74   H19   S    
C103  H31   S    
C82   C94   A    
C18   C21   A    
C22   C94   A    
N9    H53   S    
C25   N8    S    
C5    C56   S    
C6    C55   S    
C50   C79   A    
C12   C49   S    
C11   O9    A    
C76   H23   S    
C78   C90   A    
C31   C67   A    
C99   C108  A    
C7    O11   A    
C24   C72   A    
C33   N6    S    
Cr3   O25   S    
C41   H10   S    
Cr5   O23   S    
Cr1   O1    S    
C41   C58   A    
Cr2   O2    S    
N3    H42   S    
C21   C69   A    
C5    O3    A    
Cr6   O12   S    
C26   N7    S    
C10   O22   A    
C98   C103  A    
C105  H33   S    
C96   C99   A    
C84   H15   S    
C106  H34   S    
Cr3   O18   S    
C102  C105  A    
N5    H46   S    
C84   C96   A    
C1    O5    A    
Cr2   O5    S    
C58   C77   A    
C40   C59   A    
C37   C56   A    
C47   H4    S    
C38   C55   A    
C94   C101  A    
N2    H40   S    
N1    H38   S    
C89   C106  A    
C92   C97   A    
C19   C67   A    
N8    H51   S    
Cr3   O15   S    
C77   H22   S    
Cr5   O8    S    
C78   H21   S    
C34   C70   A    
C79   C91   A    
C13   C20   A    
C33   C69   A    
C32   C68   A    
C25   C32   A    
Cr6   O26   S    
C35   C71   A    
C26   C31   A    
C39   H12   S    
N10   H55   S    
N9    H54   S    
C9    C52   S    
C102  H30   S    
C48   C72   A    
C86   C103  A    
C14   C19   A    
C42   C57   A    
C8    O20   A    
C42   H9    S    
C48   C51   A    
Cr6   O21   S    
C4    O2    A    
C6    O18   A    
C11   O23   A    
Cr4   O7    S    
C87   C108  A    
C45   C69   A    
N11   H57   S    
C18   C90   A    
C104  H32   S    
C17   C89   A    
C14   C86   A    
C83   H16   S    
Cr1   O13   S    
C1    C60   S    
C2    O14   A    
C88   C107  A    
Cr2   O14   S    
C2    C59   S    
C81   H18   S    
C41   C65   A    
Cr2   O25   S    
C29   C34   A    
C44   H1    S    
C27   N12   S    
C12   O10   A    
C76   C88   A    
N7    H49   S    
C98   H26   S    
C53   C82   A    
N6    H48   S    
C80   C92   A    
C52   C83   A    
N3    H41   S    
C23   C71   A    
C43   H2    S    
C81   C93   A    
Cr2   O17   S    
Cr4   O19   S    
C9    O7    A    
C83   C95   A    
C101  H29   S    
C36   N3    S    
C25   C61   A    
C74   C86   A    
Cr1   O4    S    
Cr3   O3    S    
C47   C71   A    
C30   C66   A    
C85   C104  A    
C27   C63   A    
N4    H43   S    
Cr5   O26   S    
C29   C65   A    
C39   C60   A    
C28   C64   A    
C45   H6    S    
C75   C87   A    
C15   C24   A    
Cr4   O26   S    
N10   H56   S    
C45   C54   A    
N12   H59   S    
C20   C92   A    
N12   H60   S    
C7    O19   A    
C108  H36   S    
C32   N1    S    
C44   C68   A    
C18   C66   A    
N4    H44   S    
C22   C70   A    
N2    H39   S    
C3    O15   A    
C12   O24   A    
C73   C85   A    
C101  C106  A    
C28   C35   A    
C30   N9    S    
C10   O8    A    
C100  C107  A    
C2    O6    A    
C56   C73   A    
Cr4   O10   S    
C30   C33   A    
C95   C100  A    
C93   C102  A    
C3    O1    A    
C57   C78   A    
C20   C68   A    
C34   N5    S    
C42   C66   A    
C90   C105  A    
N11   H58   S    
C75   H24   S    
C8    C53   S    
Cr5   O20   S    
C37   C61   A    
Cr1   O25   S    
C43   C50   A    
C99   H27   S    
C48   H3    S    
C77   C89   A    
C80   H13   S    
C27   C36   A    
C16   C23   A    
C39   C63   A    
C60   C75   A    
C17   C65   A    
C17   C22   A    
C40   C64   A    
C49   C80   A    
C31   N2    S    
C10   C51   S    
N6    H47   S    
C24   C96   A    
C26   C62   A    
C97   C104  A    
C55   C74   A    
C11   C50   S    
C100  H28   S    
C6    O4    A    
Cr4   O22   S    
C21   C93   A    
C35   N4    S    
C16   C88   A    
C40   H11   S    
C59   C76   A    
C46   C53   A    
C23   C95   A    
C46   H5    S    
C4    O16   A    
C5    O17   A    
C91   C98   A    
N5    H45   S    
Cr6   O9    S    
C46   C70   A    
C38   H7    S    
C9    O21   A    
Cr1   O16   S    
Cr5   O11   S    
C37   H8    S    
C107  H35   S    
C3    C58   S    
Cr6   O24   S    
Cr3   O6    S    
C13   C61   A    
C73   H20   S    
C1    O13   A    
C43   C67   A    
N1    H37   S    
C15   C87   A    
C13   C85   A    
C29   N10   S    
C28   N11   S    
C15   C63   A    
C19   C91   A    
C47   C52   A    
N8    H52   S    
C8    O12   A    
C16   C64   A    
C7    C54   S    
C38   C62   A    
C82   H17   S    
C51   C84   A    
C97   H25   S    
C54   C81   A    
C36   C72   A    
C4    C57   S    
N7    H50   S    
C14   C62   A    
