data_mof_unit_8450.cif
_audit_creation_date              2012-12-10T20:55:05-0500
_audit_creation_method            fapswitch 2.2
_symmetry_space_group_name_H-M    P1
_symmetry_Int_Tables_number       1
_space_group_crystal_system       triclinic
_cell_length_a                    15.844103
_cell_length_b                    15.067345
_cell_length_c                    10.608377
_cell_angle_alpha                 87.941555
_cell_angle_beta                  90.109903
_cell_angle_gamma                 90.081437
_cell_volume                      2530.88143872

loop_
_atom_site_label
_atom_site_type_symbol
_atom_type_description
_atom_site_fract_x
_atom_site_fract_y
_atom_site_fract_z
_atom_type_partial_charge
C1    C     C_R   0.338882 0.499821 0.500077 0.925032
C2    C     C_R   0.661118 0.500006 0.499243 0.949517
C3    C     C_R   0.955449 0.441887 0.613249 -0.079412
C4    C     C_R   0.044630 0.439532 0.610632 -0.098724
C5    C     C_1   0.824005 0.498142 0.513823 0.029118
C6    C     C_1   0.175947 0.495579 0.510488 0.033840
C7    C     C_1   0.250636 0.498615 0.504870 -0.076447
C8    C     C_1   0.749348 0.499531 0.506066 -0.099827
C9    C     C_R   0.422603 0.953189 0.489738 -0.068454
C10   C     C_R   0.577264 0.952793 0.510459 -0.057336
C11   C     C_R   0.499921 0.905043 0.500003 -0.031173
C12   C     C_R   0.576690 0.047495 0.510670 -0.074115
C13   C     C_R   0.423343 0.047890 0.489928 -0.067444
C14   C     C_R   0.500035 0.095067 0.500333 -0.010376
C15   C     C_1   0.499952 0.806994 0.500001 0.261997
C16   C     C_1   0.500034 0.193093 0.500135 0.118549
C17   C     C_R   0.485111 0.502189 0.261547 0.876710
C18   C     C_R   0.501145 0.498191 0.741898 0.975910
C19   C     C_R   0.485291 0.673692 0.096719 0.024048
C20   C     C_R   0.590330 0.629017 0.895952 0.014822
C21   C     C_R   0.538566 0.737560 0.039803 -0.231191
C22   C     C_R   0.593787 0.714099 0.944722 -0.213430
C23   C     C_R   0.528316 0.567676 0.943119 0.044281
C24   C     C_R   0.489682 0.584352 0.057289 0.075925
C25   C     C_R   0.462589 0.508909 0.129077 -0.172010
C26   C     C_R   0.497118 0.494358 0.877509 -0.154359
C27   C     C_R   0.433530 0.432825 0.069437 -0.071082
C28   C     C_R   0.445551 0.428675 0.939127 -0.078411
C29   C     C_R   0.956529 0.547054 0.431488 -0.210007
C30   C     C_R   0.043295 0.544628 0.428673 -0.204028
C31   C     C_R   0.912936 0.496275 0.522085 0.131439
C32   C     C_R   0.087017 0.491721 0.516794 0.123274
H1    H     H_    0.538024 0.805533 0.069848 0.141596
H2    H     H_    0.638603 0.762841 0.908026 0.141303
H3    H     H_    0.076582 0.584600 0.357652 0.166020
H4    H     H_    0.923130 0.588063 0.361700 0.160105
N1    N     N_1   0.500000 0.270550 0.500000 -0.083685
N2    N     N_1   0.500000 0.729450 0.500000 -0.074890
O1    O     O_R   0.378020 0.573650 0.500040 -0.581764
O2    O     O_R   0.621980 0.573650 0.499960 -0.609680
O3    O     O_R   0.378020 0.426320 0.500100 -0.601596
O4    O     O_R   0.621980 0.426320 0.499900 -0.599583
O5    O     O_R   0.500000 0.573680 0.316780 -0.610479
O6    O     O_R   0.500000 0.573680 0.683220 -0.627969
O7    O     O_R   0.500000 0.426350 0.316830 -0.626912
O8    O     O_R   0.500000 0.426350 0.683170 -0.608300
Zn1   Zn    Zn3+2 0.500000 0.598370 0.500000 1.040300
Zn2   Zn    Zn3+2 0.500000 0.401630 0.500000 1.022027
C33   C     C_2   0.384466 0.364100 0.143268 0.426701
H5    H     H_    0.351975 0.382171 0.228619 0.068781
O9    O     O_2   0.381626 0.286900 0.112496 -0.625919
C34   C     C_2   0.400101 0.360088 0.868200 0.516204
H6    H     H_    0.416009 0.290451 0.882287 0.098313
O10   O     O_2   0.343915 0.381508 0.794367 -0.530918
C35   C     C_2   0.419162 0.705278 0.183380 0.470767
H7    H     H_    0.424179 0.770845 0.222018 0.039355
O11   O     O_2   0.357263 0.659860 0.209343 -0.571982
C36   C     C_2   0.657723 0.604400 0.807072 0.413746
H8    H     H_    0.691714 0.655760 0.753641 0.078266
O12   O     O_2   0.678672 0.527032 0.797093 -0.552557
C37   C     C_2   0.907760 0.385283 0.706992 0.345153
H9    H     H_    0.934030 0.322817 0.742496 0.033083
O13   O     O_2   0.839195 0.408060 0.746871 -0.514339
C38   C     C_2   0.092236 0.386043 0.708323 0.368458
H10   H     H_    0.064680 0.371801 0.800321 0.065445
O14   O     O_2   0.162242 0.356389 0.687228 -0.530651
C39   C     C_R   0.343271 0.098983 0.482552 0.057375
C40   C     C_R   0.322440 0.148520 0.372259 -0.132095
C41   C     C_R   0.248821 0.199623 0.367209 -0.128075
C42   C     C_R   0.195558 0.201359 0.471968 -0.073549
C43   C     C_R   0.215824 0.151944 0.581926 -0.059479
C44   C     C_R   0.289522 0.100937 0.587462 -0.158211
H11   H     H_    0.363531 0.147845 0.290872 0.177318
H12   H     H_    0.233158 0.238039 0.282233 0.156233
H13   H     H_    0.138676 0.241088 0.468012 0.138573
H14   H     H_    0.174626 0.153524 0.663075 0.147657
H15   H     H_    0.305109 0.063597 0.673487 0.142950
C45   C     C_R   0.656954 0.098225 0.517685 0.080940
C46   C     C_R   0.677240 0.144216 0.626569 -0.159921
C47   C     C_R   0.751388 0.194470 0.631207 -0.097076
C48   C     C_R   0.805660 0.199029 0.527433 -0.103898
C49   C     C_R   0.785922 0.153224 0.418923 -0.129023
C50   C     C_R   0.711765 0.103006 0.413811 -0.145810
H16   H     H_    0.635399 0.141479 0.707241 0.133442
H17   H     H_    0.766665 0.229997 0.715142 0.165586
H18   H     H_    0.862959 0.238056 0.530998 0.119502
H19   H     H_    0.827938 0.156908 0.338581 0.136165
H20   H     H_    0.696692 0.068388 0.328898 0.138938
C51   C     C_2   0.339934 0.906457 0.475748 0.368947
H21   H     H_    0.286368 0.941318 0.433893 0.089748
O15   O     O_2   0.329590 0.829601 0.512859 -0.556366
C52   C     C_2   0.659802 0.905387 0.524412 0.349479
H22   H     H_    0.712999 0.937571 0.568376 0.090734
O16   O     O_2   0.670443 0.831178 0.484778 -0.581120

loop_
_geom_bond_atom_site_label_1
_geom_bond_atom_site_label_2
_ccdc_geom_bond_type
O2    Zn1   S    
C6    C32   S    
C35   H7    S    
C18   C26   S    
C47   H17   S    
C48   C49   A    
C29   H4    S    
C29   C30   A    
C30   H3    S    
C19   C21   A    
C17   O7    A    
C43   H14   S    
C21   H1    S    
C36   O12   D    
C49   H19   S    
C39   C44   A    
C23   C26   A    
C37   O13   D    
C9    C13   A    
C11   C15   S    
C45   C50   A    
C40   C41   A    
C33   O9    D    
C12   C45   S    
C23   C24   A    
C42   C43   A    
C51   O15   D    
C48   H18   S    
O6    Zn1   S    
C16   N1    T    
C50   H20   S    
C10   C52   S    
C21   C22   A    
C37   H9    S    
C18   O8    A    
C34   O10   D    
C3    C37   S    
C22   H2    S    
O8    Zn2   S    
C39   C40   A    
C24   C25   A    
C9    C51   S    
C45   C46   A    
C36   H8    S    
C38   O14   D    
C17   O5    A    
C15   N2    T    
C44   H15   S    
C18   O6    A    
C20   C23   A    
C52   O16   D    
C41   H12   S    
O4    Zn2   S    
N1    Zn2   S    
C3    C31   A    
C9    C11   A    
N2    Zn1   S    
C4    C32   A    
C10   C12   A    
C1    O3    A    
C20   C22   A    
C49   C50   A    
C35   O11   D    
C14   C16   S    
C20   C36   S    
C3    C4    A    
C27   C28   A    
C34   H6    S    
O1    Zn1   S    
C13   C39   S    
O7    Zn2   S    
C19   C35   S    
C1    C7    S    
C2    C8    S    
C12   C14   A    
C47   C48   A    
C5    C8    T    
C6    C7    T    
C25   C27   A    
C4    C38   S    
C26   C28   A    
C17   C25   S    
C38   H10   S    
C19   C24   A    
C40   H11   S    
C43   C44   A    
C29   C31   A    
C30   C32   A    
C28   C34   S    
C46   H16   S    
C2    O4    A    
C52   H22   S    
O3    Zn2   S    
C41   C42   A    
C10   C11   A    
C1    O1    A    
C46   C47   A    
C2    O2    A    
C33   H5    S    
C42   H13   S    
C51   H21   S    
C13   C14   A    
O5    Zn1   S    
C27   C33   S    
C5    C31   S    
