data_mof_unit_55147.cif
_audit_creation_date              2013-03-05T16:18:23-0500
_audit_creation_method            fapswitch 2.2
_symmetry_space_group_name_H-M    P1
_symmetry_Int_Tables_number       1
_space_group_crystal_system       triclinic
_cell_length_a                    10.630001
_cell_length_b                    9.762727
_cell_length_c                    10.48465
_cell_angle_alpha                 89.630916
_cell_angle_beta                  89.311991
_cell_angle_gamma                 90.175855
_cell_volume                      1087.96748161

loop_
_atom_site_label
_atom_site_type_symbol
_atom_site_description
_atom_site_fract_x
_atom_site_fract_y
_atom_site_fract_z
_atom_type_partial_charge
O1    O     O_R   0.314910 0.616040 0.499970 -0.617004
O2    O     O_R   0.314910 0.383960 0.499970 -0.620126
C1    C     C_R   0.257770 0.500180 0.497712 0.852580
O3    O     O_R   0.500080 0.616020 0.313900 -0.638468
O4    O     O_R   0.500080 0.383980 0.313900 -0.633884
C2    C     C_R   0.498360 0.500483 0.257366 0.864220
Zn1   Zn    Zn3+2 0.500150 0.654960 0.499940 0.949337
Zn2   Zn    Zn3+2 0.500150 0.345040 0.499940 0.948360
O5    O     O_R   0.685320 0.616040 0.499930 -0.643416
O6    O     O_R   0.685320 0.383960 0.499930 -0.642200
O7    O     O_R   0.500150 0.616060 0.686000 -0.569593
O8    O     O_R   0.500150 0.383940 0.686000 -0.575571
C3    C     C_R   0.742327 0.500461 0.497120 0.817157
C4    C     C_R   0.503070 0.499644 0.742536 0.900291
C5    C     C_3   0.455620 0.621503 0.039590 -0.100023
C6    C     C_3   0.427230 0.397726 0.042453 -0.138555
C7    C     C_3   0.384024 0.517570 0.956947 -0.130051
H1    H     H_    0.288688 0.531261 0.916693 0.155730
H2    H     H_    0.418022 0.719887 0.076217 0.157323
H3    H     H_    0.366584 0.314324 0.081613 0.152741
C8    C     C_3   0.504092 0.499252 0.877626 0.016787
C9    C     C_3   0.575835 0.603198 0.957530 -0.130016
C10   C     C_3   0.547589 0.379642 0.960622 -0.102025
C11   C     C_3   0.618957 0.483562 0.043261 -0.254753
C12   C     C_3   0.498839 0.501566 0.122398 -0.023764
H4    H     H_    0.636687 0.686325 0.918216 0.158353
H5    H     H_    0.588283 0.282181 0.925849 0.185705
H6    H     H_    0.714292 0.469883 0.083511 0.134822
C13   C     C_3   0.071962 0.649724 0.476363 -0.386463
C14   C     C_3   0.069821 0.443434 0.623761 -0.361780
H7    H     H_    0.108468 0.693438 0.384692 0.162302
H8    H     H_    0.101717 0.336248 0.637125 0.223413
H9    H     H_    0.104363 0.717109 0.554535 0.223317
H10   H     H_    0.105540 0.504925 0.704851 0.182035
C15   C     C_3   0.929022 0.649957 0.475871 -0.403097
C16   C     C_3   0.925687 0.445151 0.624339 -0.427788
H11   H     H_    0.894238 0.717837 0.553639 0.178306
H12   H     H_    0.890705 0.510147 0.704067 0.161437
H13   H     H_    0.895641 0.693000 0.383657 0.168245
H14   H     H_    0.889344 0.339379 0.641299 0.177057
H15   H     H_    0.109698 0.452500 0.291585 0.156284
H16   H     H_    0.107734 0.304614 0.394413 0.178413
H17   H     H_    0.894365 0.450737 0.291715 0.151062
H18   H     H_    0.894368 0.304025 0.396010 0.174290
C17   C     C_3   0.073387 0.411738 0.384427 -0.415917
C18   C     C_3   0.121191 0.501230 0.495524 0.162512
C19   C     C_3   0.878615 0.501673 0.495343 0.195824
C20   C     C_3   0.928839 0.411290 0.384805 -0.392282
C21   C     C_3   0.388817 0.080355 0.569121 0.219892
C22   C     C_3   0.387767 0.917832 0.567442 0.222638
H19   H     H_    0.302806 0.112782 0.517038 0.051731
H20   H     H_    0.302824 0.888582 0.512141 0.046348
H21   H     H_    0.404926 0.119292 0.318657 0.159127
H22   H     H_    0.408474 0.880382 0.316591 0.159171
C23   C     C_3   0.491874 0.082063 0.365511 -0.342108
C24   C     C_3   0.493571 0.919579 0.365402 -0.344179
C25   C     C_3   0.617707 0.080683 0.550425 -0.245491
C26   C     C_3   0.616726 0.919491 0.552516 -0.251487
N1    N     N_3   0.499750 0.138610 0.497240 -0.097169
N2    N     N_3   0.499750 0.861390 0.497240 -0.095808
H23   H     H_    0.699401 0.115997 0.491359 0.143901
H24   H     H_    0.699621 0.882673 0.496928 0.144615
H25   H     H_    0.637067 0.121956 0.646185 0.200023
H26   H     H_    0.632227 0.880207 0.650200 0.202224
H27   H     H_    0.571638 0.121471 0.306003 0.188480
H28   H     H_    0.575347 0.883388 0.307686 0.185403
N3    N     N_R   0.375099 0.137247 0.698217 0.258622
O9    O     O_R   0.462672 0.125168 0.782886 -0.395523
O10   O     O_R   0.268760 0.191823 0.732842 -0.433193
N4    N     N_R   0.369206 0.855558 0.694776 0.258059
O11   O     O_R   0.453922 0.863264 0.782904 -0.378459
O12   O     O_R   0.262399 0.796820 0.723195 -0.437945

loop_
_geom_bond_atom_site_label_1
_geom_bond_atom_site_label_2
_geom_bond_distance
_ccdc_geom_bond_type
C26   H24   1.112499 S    
C23   C24   1.586456 S    
C23   N1    1.493861 S    
C15   H13   1.114079 S    
C15   C19   1.553477 S    
C17   C18   1.550148 S    
Zn1   O7    1.984994 S    
C4    C8    1.416523 S    
C15   H11   1.114431 S    
Zn2   N1    2.015694 S    
O4    C2    1.279460 A    
O7    C4    1.279070 A    
C25   N1    1.489992 S    
C2    C12   1.415015 S    
C26   N2    1.490309 S    
C13   H9    1.111530 S    
C16   C19   1.546737 S    
C5    C7    1.543374 S    
O5    C3    1.282768 A    
C5    C9    1.543417 S    
C6    C7    1.543775 S    
C21   H19   1.116200 S    
C22   H20   1.116320 S    
C10   C11   1.542060 S    
N4    O11   1.300316 A    
C10   H5    1.108408 S    
H17   C20   1.113471 S    
C6    H3    1.110521 S    
C8    C9    1.528005 S    
O3    Zn1   1.989676 S    
C23   H27   1.112837 S    
C25   H25   1.105624 S    
H21   C23   1.112808 S    
C26   H26   1.105695 S    
H22   C24   1.112704 S    
C14   H10   1.113699 S    
N3    O9    1.299122 A    
C16   H14   1.113878 S    
C11   C12   1.525615 S    
O3    C2    1.277770 A    
C3    C19   1.448649 S    
C7    C8    1.526577 S    
C24   N2    1.493324 S    
O1    C1    1.282717 A    
H16   C17   1.113487 S    
C5    H2    1.110489 S    
C19   C20   1.551779 S    
Zn2   O8    1.989797 S    
C7    H1    1.110578 S    
O8    C4    1.279514 A    
C6    C10   1.543096 S    
C8    C10   1.527895 S    
C9    C11   1.543339 S    
Zn1   N2    2.015355 S    
C17   C20   1.536501 S    
C6    C12   1.526844 S    
Zn1   O5    2.005838 S    
C21   N3    1.472146 S    
O1    Zn1   2.004276 S    
C14   C18   1.547576 S    
O2    Zn2   2.006567 S    
C11   H6    1.110536 S    
O6    C3    1.287094 A    
O4    Zn2   1.984869 S    
C25   H23   1.113110 S    
C13   C15   1.519531 S    
C1    C18   1.452356 S    
C21   N1    1.500338 S    
C14   C16   1.532233 S    
C13   C18   1.555407 S    
C22   N2    1.500198 S    
C16   H12   1.113770 S    
O2    C1    1.288836 A    
C22   N4    1.474241 S    
C13   H7    1.114110 S    
C14   H8    1.109512 S    
C25   C26   1.573685 S    
C24   H28   1.112956 S    
C5    C12   1.528297 S    
Zn2   O6    2.003548 S    
C21   C22   1.586882 S    
C9    H4    1.110407 S    
H15   C17   1.113520 S    
N4    O12   1.300897 A    
N3    O10   1.299914 A    
H18   C20   1.113423 S    
