data_mof_unit_37721.cif
_audit_creation_date              2013-03-05T16:10:15-0500
_audit_creation_method            fapswitch 2.2
_symmetry_space_group_name_H-M    P1
_symmetry_Int_Tables_number       1
_space_group_crystal_system       triclinic
_cell_length_a                    9.881672
_cell_length_b                    10.743831
_cell_length_c                    13.112318
_cell_angle_alpha                 90.588591
_cell_angle_beta                  69.84674
_cell_angle_gamma                 89.983541
_cell_volume                      1306.78393347

loop_
_atom_site_label
_atom_site_type_symbol
_atom_site_description
_atom_site_fract_x
_atom_site_fract_y
_atom_site_fract_z
_atom_type_partial_charge
O1    O     O_R   0.385370 0.683250 0.500010 -0.626741
O2    O     O_R   0.614700 0.683220 0.500010 -0.581827
C1    C     C_R   0.500280 0.739700 0.498964 0.939653
O3    O     O_R   0.328400 0.499990 0.653620 -0.579316
O4    O     O_R   0.557730 0.499960 0.653620 -0.582471
C2    C     C_R   0.419147 0.493346 0.704719 0.914413
Zn1   Zn    Zn3+2 0.346870 0.500020 0.500000 1.028014
Zn2   Zn    Zn3+2 0.653130 0.499980 0.500000 1.030466
O5    O     O_R   0.385300 0.316780 0.499990 -0.565740
O6    O     O_R   0.614630 0.316750 0.499990 -0.591650
O7    O     O_R   0.442270 0.500040 0.346380 -0.614515
O8    O     O_R   0.671600 0.500010 0.346380 -0.632729
C3    C     C_R   0.501954 0.259888 0.497188 0.918068
C4    C     C_R   0.580347 0.499063 0.295713 0.880203
C5    C     C_R   0.772731 0.364959 0.019350 -0.074472
H1    H     H_    0.827227 0.382322 0.163851 0.155056
H2    H     H_    0.774228 0.279154 0.826929 0.193708
H3    H     H_    0.866901 0.308618 0.977564 0.167543
C6    C     C_R   0.629916 0.480799 0.178923 -0.049251
C7    C     C_R   0.225353 0.525748 0.887549 0.291071
C8    C     C_R   0.189878 0.543543 0.999554 0.439160
C9    C     C_R   0.294782 0.522873 0.046995 -0.359998
C10   C     C_R   0.432642 0.475951 0.984962 0.068869
C11   C     C_R   0.459595 0.440599 0.876271 0.042210
C12   C     C_R   0.543494 0.459612 0.028690 0.140040
C13   C     C_R   0.667418 0.387522 0.972075 0.141529
C14   C     C_R   0.682281 0.337130 0.870515 -0.109915
C15   C     C_R   0.580345 0.364263 0.822715 -0.078372
C16   C     C_R   0.534218 0.513921 0.127521 -0.199748
C17   C     C_R   0.752218 0.409104 0.124090 -0.111428
C18   C     C_R   0.364704 0.481811 0.824030 -0.312679
H4    H     H_    0.448721 0.578444 0.169143 0.148356
H5    H     H_    0.263310 0.537265 0.133634 0.144997
H6    H     H_    0.595533 0.322976 0.744136 0.193670
C19   C     C_R   0.592079 0.934817 0.538838 -0.175210
H7    H     H_    0.660205 0.885986 0.574115 0.242428
C20   C     C_R   0.596436 0.061973 0.537503 0.286222
C21   C     C_R   0.508330 0.126893 0.490401 -0.288635
C22   C     C_R   0.422493 0.062079 0.440621 0.316030
C23   C     C_R   0.416678 0.933819 0.447072 -0.226329
H8    H     H_    0.351343 0.882388 0.409642 0.196406
C24   C     C_R   0.501408 0.871602 0.496002 -0.163842
C25   C     C_R   0.965594 0.444048 0.417539 -0.092812
H9    H     H_    0.941578 0.399257 0.351518 0.157595
C26   C     C_R   0.108986 0.443414 0.417918 -0.035759
H10   H     H_    0.192777 0.397809 0.352084 0.188223
N1    N     N_R   0.142790 0.500030 0.500030 -0.118943
C27   C     C_R   0.036224 0.556201 0.581646 -0.061666
H11   H     H_    0.063013 0.603192 0.645354 0.215171
C28   C     C_R   0.892362 0.555390 0.583540 0.357747
N2    N     N_R   0.857180 0.499940 0.500010 -0.136134
N3    N     N_R   0.689939 0.122012 0.585553 0.206329
O9    O     O_R   0.675167 0.097172 0.685740 -0.398347
O10   O     O_R   0.812878 0.165407 0.522351 -0.338635
N4    N     N_R   0.347602 0.123923 0.378864 0.222553
O11   O     O_R   0.415137 0.204179 0.305223 -0.411807
O12   O     O_R   0.221049 0.085257 0.382910 -0.351289
N5    N     N_R   0.785816 0.612495 0.675470 0.218690
O13   O     O_R   0.711626 0.706216 0.661675 -0.373959
O14   O     O_R   0.790738 0.594460 0.772088 -0.341583
N6    N     N_R   0.116822 0.548046 0.840382 0.230524
O15   O     O_R   0.052373 0.655693 0.853828 -0.304216
O16   O     O_R   0.061837 0.454071 0.805114 -0.401490
O17   O     O_3   0.052057 0.582218 0.060630 -0.710562
H12   H     H_    0.043557 0.589120 0.138080 0.327126

loop_
_geom_bond_atom_site_label_1
_geom_bond_atom_site_label_2
_geom_bond_distance
_ccdc_geom_bond_type
C5    H3    1.083550 S    
C10   C11   1.404858 A    
C1    C24   1.418012 S    
C20   C21   1.415973 A    
O4    Zn2   1.907274 S    
Zn1   N1    2.016516 S    
C7    N6    1.431800 S    
H2    C14   1.083832 S    
N1    C27   1.352118 A    
Zn2   O8    1.958943 S    
O17   H12   0.991747 S    
N4    O11   1.301784 A    
C23   C24   1.392166 A    
C28   N2    1.387258 A    
C13   C14   1.392286 A    
C11   C18   1.411784 A    
C15   H6    1.079314 S    
O1    Zn1   2.005130 S    
C8    C9    1.399258 A    
C7    C8    1.398503 A    
Zn1   O7    1.907275 S    
C25   C26   1.418691 A    
Zn2   N2    2.016400 S    
C25   N2    1.365911 A    
C3    C21   1.430744 S    
O4    C2    1.303117 A    
O3    Zn1   1.958942 S    
C27   C28   1.413272 A    
C23   H8    1.084443 S    
C19   C20   1.366934 A    
O8    C4    1.291233 A    
C2    C18   1.475250 S    
C16   H4    1.079988 S    
O2    C1    1.287347 A    
N4    O12   1.301658 A    
C25   H9    1.081844 S    
C12   C16   1.389535 A    
N6    O15   1.300878 A    
Zn2   O6    2.005133 S    
O7    C4    1.295523 A    
C22   N4    1.438270 S    
N5    O13   1.295683 A    
C20   N3    1.435232 S    
H1    C17   1.083172 S    
C6    C16   1.385319 A    
C11   C15   1.414126 A    
C14   C15   1.389631 A    
C10   C12   1.412166 A    
C21   C22   1.415242 A    
N3    O9    1.301287 A    
C5    C17   1.395336 A    
O3    C2    1.293488 A    
C19   C24   1.385212 A    
C26   N1    1.369410 A    
C22   C23   1.381455 A    
Zn1   O5    2.004874 S    
C9    H5    1.078936 S    
O5    C3    1.293722 A    
C9    C10   1.413937 A    
C27   H11   1.080078 S    
C8    O17   1.382054 S    
O1    C1    1.283441 A    
C12   C13   1.418385 A    
C26   H10   1.081389 S    
C6    C17   1.400067 A    
N5    O14   1.300921 A    
C4    C6    1.449296 S    
O6    C3    1.281567 A    
N6    O16   1.300900 A    
O2    Zn2   2.004875 S    
C19   H7    1.077848 S    
N3    O10   1.301746 A    
C5    C13   1.404794 A    
C7    C18   1.419138 A    
C28   N5    1.431036 S    
