data_mof_unit_57618.cif
_audit_creation_date              2012-12-10T19:09:28-0500
_audit_creation_method            fapswitch 2.2
_symmetry_space_group_name_H-M    P1
_symmetry_Int_Tables_number       1
_space_group_crystal_system       triclinic
_cell_length_a                    16.337989
_cell_length_b                    14.121601
_cell_length_c                    9.756134
_cell_angle_alpha                 90.36266
_cell_angle_beta                  90.000018
_cell_angle_gamma                 89.999979
_cell_volume                      2250.87611494

loop_
_atom_site_label
_atom_site_type_symbol
_atom_type_description
_atom_site_fract_x
_atom_site_fract_y
_atom_site_fract_z
_atom_type_partial_charge
C1    C     C_R   0.117661 0.373815 0.501379 0.852087
C2    C     C_R   0.117661 0.626184 0.498621 0.852089
C3    C     C_R   0.617661 0.873816 0.501379 0.852087
C4    C     C_R   0.617661 0.126184 0.498621 0.852088
C5    C     C_3   0.914230 0.497675 0.081018 -0.228742
C6    C     C_3   0.914231 0.502330 0.918982 -0.228742
C7    C     C_3   0.414231 0.997673 0.081018 -0.228743
C8    C     C_3   0.414231 0.002328 0.918982 -0.228744
C9    C     C_R   0.885665 0.370877 0.497845 0.884112
C10   C     C_R   0.885665 0.629122 0.502154 0.884114
C11   C     C_R   0.385665 0.870877 0.497845 0.884111
C12   C     C_R   0.385665 0.129123 0.502154 0.884113
C13   C     C_3   0.832804 0.213134 0.579362 0.202791
C14   C     C_3   0.797039 0.268428 0.339085 0.312409
C15   C     C_3   0.832803 0.786864 0.420637 0.202792
C16   C     C_3   0.797039 0.731572 0.660915 0.312408
C17   C     C_3   0.332804 0.713134 0.579361 0.202791
C18   C     C_3   0.297039 0.768428 0.339085 0.312408
C19   C     C_3   0.332803 0.286865 0.420637 0.202792
C20   C     C_3   0.297039 0.231573 0.660915 0.312408
C21   C     C_3   0.251958 0.659685 0.597031 -0.421401
C22   C     C_3   0.231843 0.689669 0.348378 -0.399176
C23   C     C_3   0.251956 0.340313 0.402967 -0.421399
C24   C     C_3   0.231843 0.310331 0.651621 -0.399174
C25   C     C_3   0.751958 0.159685 0.597031 -0.421400
C26   C     C_3   0.731843 0.189669 0.348378 -0.399176
C27   C     C_3   0.751957 0.840313 0.402967 -0.421399
C28   C     C_3   0.731843 0.810331 0.651621 -0.399174
C29   C     C_3   0.741618 0.358576 0.541523 -0.569709
C30   C     C_3   0.741617 0.641423 0.458479 -0.569708
C31   C     C_3   0.241618 0.858576 0.541523 -0.569708
C32   C     C_3   0.241618 0.141423 0.458479 -0.569709
C33   C     C_3   0.817476 0.302425 0.489306 -0.022180
C34   C     C_3   0.817476 0.697574 0.510694 -0.022180
C35   C     C_3   0.317476 0.802425 0.489306 -0.022180
C36   C     C_3   0.317476 0.197574 0.510694 -0.022181
C37   C     C_3   0.186634 0.694874 0.491988 0.020166
C38   C     C_3   0.186633 0.305125 0.508012 0.020165
C39   C     C_3   0.686634 0.194874 0.491988 0.020166
C40   C     C_3   0.686634 0.805125 0.508012 0.020165
C41   C     C_3   0.159916 0.802604 0.520684 0.195194
C42   C     C_3   0.159915 0.197394 0.479318 0.195194
C43   C     C_3   0.659916 0.302605 0.520684 0.195194
C44   C     C_3   0.659915 0.697395 0.479317 0.195193
C45   C     C_3   0.042556 0.417553 0.079823 -0.225141
C46   C     C_3   0.038127 0.414170 0.918729 -0.246940
C47   C     C_3   0.042559 0.582444 0.920177 -0.225142
C48   C     C_3   0.038131 0.585827 0.081271 -0.246940
C49   C     C_3   0.542557 0.917554 0.079823 -0.225139
C50   C     C_3   0.538128 0.914171 0.918729 -0.246940
C51   C     C_3   0.542558 0.082445 0.920177 -0.225142
C52   C     C_3   0.538130 0.085828 0.081271 -0.246942
H1    H     H_    0.856713 0.234023 0.681840 0.113616
H2    H     H_    0.773153 0.328931 0.280181 0.098876
H3    H     H_    0.856712 0.765975 0.318159 0.113614
H4    H     H_    0.773153 0.671070 0.719819 0.098874
H5    H     H_    0.356713 0.734023 0.681840 0.113615
H6    H     H_    0.273153 0.828931 0.280181 0.098875
H7    H     H_    0.356712 0.265975 0.318158 0.113614
H8    H     H_    0.273154 0.171070 0.719820 0.098875
H9    H     H_    0.261429 0.582023 0.582719 0.219311
H10   H     H_    0.261147 0.618916 0.336721 0.247719
H11   H     H_    0.261428 0.417975 0.417278 0.219311
H12   H     H_    0.261147 0.381084 0.663277 0.247719
H13   H     H_    0.761429 0.082023 0.582719 0.219311
H14   H     H_    0.761147 0.118916 0.336722 0.247719
H15   H     H_    0.761428 0.917975 0.417277 0.219310
H16   H     H_    0.761147 0.881084 0.663277 0.247719
H17   H     H_    0.232796 0.664483 0.704373 0.148259
H18   H     H_    0.192327 0.694734 0.257874 0.144807
H19   H     H_    0.232793 0.335515 0.295625 0.148259
H20   H     H_    0.192327 0.305266 0.742126 0.144807
H21   H     H_    0.732796 0.164483 0.704373 0.148259
H22   H     H_    0.692327 0.194735 0.257874 0.144807
H23   H     H_    0.732794 0.835515 0.295625 0.148260
H24   H     H_    0.692327 0.805266 0.742125 0.144807
H25   H     H_    0.752238 0.383217 0.647589 0.192328
H26   H     H_    0.739065 0.425967 0.484771 0.152765
H27   H     H_    0.752236 0.616779 0.352415 0.192328
H28   H     H_    0.739064 0.574033 0.515234 0.152763
H29   H     H_    0.252238 0.883217 0.647589 0.192328
H30   H     H_    0.239065 0.925967 0.484772 0.152765
H31   H     H_    0.252237 0.116780 0.352413 0.192329
H32   H     H_    0.239065 0.074033 0.515233 0.152764
H33   H     H_    0.015530 0.351782 0.121908 0.200386
H34   H     H_    0.002840 0.350549 0.886759 0.150151
H35   H     H_    0.015536 0.648216 0.878092 0.200381
H36   H     H_    0.002847 0.649451 0.113241 0.150148
H37   H     H_    0.515533 0.851783 0.121909 0.200378
H38   H     H_    0.502842 0.850549 0.886760 0.150149
H39   H     H_    0.515535 0.148216 0.878091 0.200382
H40   H     H_    0.502844 0.149450 0.113240 0.150149
H41   H     H_    0.107931 0.421750 0.110685 0.144062
H42   H     H_    0.100984 0.406422 0.876880 0.154280
H43   H     H_    0.107934 0.578243 0.889315 0.144065
H44   H     H_    0.100988 0.593572 0.123119 0.154282
H45   H     H_    0.607932 0.921753 0.110685 0.144063
H46   H     H_    0.600985 0.906423 0.876880 0.154282
H47   H     H_    0.607934 0.078244 0.889316 0.144064
H48   H     H_    0.600986 0.093574 0.123120 0.154282
H49   H     H_    0.882388 0.432163 0.114306 0.183820
H50   H     H_    0.877897 0.442203 0.877014 0.151325
H51   H     H_    0.882391 0.567844 0.885695 0.183823
H52   H     H_    0.877900 0.557805 0.122986 0.151325
H53   H     H_    0.382389 0.932160 0.114305 0.183821
H54   H     H_    0.377898 0.942201 0.877014 0.151325
H55   H     H_    0.382390 0.067842 0.885695 0.183822
H56   H     H_    0.377899 0.057802 0.122986 0.151326
N1    N     N_3   0.998760 0.500000 0.138610 -0.041657
N2    N     N_3   0.998760 0.500000 0.861390 -0.041658
N3    N     N_3   0.498760 0.000000 0.138610 -0.041657
N4    N     N_3   0.498760 0.000000 0.861390 -0.041658
O1    O     O_R   0.092530 0.407440 0.616040 -0.642823
O2    O     O_R   0.092530 0.407440 0.383960 -0.624067
O3    O     O_R   0.092530 0.592560 0.383960 -0.642823
O4    O     O_R   0.092530 0.592560 0.616040 -0.624067
O5    O     O_R   0.592530 0.907440 0.616040 -0.642823
O6    O     O_R   0.592530 0.907440 0.383960 -0.624067
O7    O     O_R   0.592530 0.092560 0.383960 -0.642823
O8    O     O_R   0.592530 0.092560 0.616040 -0.624067
O9    O     O_R   0.907330 0.407420 0.616040 -0.651388
O10   O     O_R   0.907330 0.407420 0.383960 -0.587938
O11   O     O_R   0.907330 0.592580 0.383960 -0.651389
O12   O     O_R   0.907330 0.592580 0.616040 -0.587938
O13   O     O_R   0.407330 0.907420 0.616040 -0.651388
O14   O     O_R   0.407330 0.907420 0.383960 -0.587938
O15   O     O_R   0.407330 0.092580 0.383960 -0.651388
O16   O     O_R   0.407330 0.092580 0.616040 -0.587938
Zn1   Zn    Zn3+2 0.999890 0.500000 0.654960 0.917453
Zn2   Zn    Zn3+2 0.999890 0.500000 0.345040 0.917453
Zn3   Zn    Zn3+2 0.499890 0.000000 0.654960 0.917452
Zn4   Zn    Zn3+2 0.499890 0.000000 0.345040 0.917452
Cl1   Cl    Cl    0.902909 0.130400 0.500609 -0.633196
Cl2   Cl    Cl    0.880553 0.231734 0.231199 -0.674566
Cl3   Cl    Cl    0.902908 0.869600 0.499388 -0.633193
Cl4   Cl    Cl    0.880553 0.768266 0.768799 -0.674568
Cl5   Cl    Cl    0.402909 0.630399 0.500608 -0.633193
Cl6   Cl    Cl    0.380553 0.731735 0.231198 -0.674563
Cl7   Cl    Cl    0.402908 0.369601 0.499388 -0.633193
Cl8   Cl    Cl    0.380554 0.268267 0.768799 -0.674567
C53   C     C_3   0.103263 0.818322 0.649329 -0.301321
C54   C     C_3   0.137574 0.792549 0.791446 -0.398319
C55   C     C_3   0.093737 0.844118 0.906811 -0.893960
H57   H     H_    0.104869 0.921572 0.900448 0.258828
H58   H     H_    0.027029 0.830055 0.903222 0.320868
H59   H     H_    0.118686 0.817705 0.005224 0.245125
H60   H     H_    0.128674 0.717004 0.806886 0.225129
H61   H     H_    0.203537 0.806315 0.805247 0.218182
H62   H     H_    0.086617 0.894689 0.654606 0.228407
H63   H     H_    0.045020 0.779211 0.633770 0.251590
C56   C     C_3   0.114071 0.853244 0.395919 -0.425804
C57   C     C_3   0.048593 0.799878 0.313489 -0.313269
C58   C     C_3   0.002738 0.868094 0.218108 -0.808906
H64   H     H_    0.969051 0.923805 0.274543 0.330057
H65   H     H_    0.046586 0.906899 0.152927 0.242828
H66   H     H_    0.959327 0.828162 0.151987 0.247401
H67   H     H_    0.076641 0.747615 0.245300 0.198469
H68   H     H_    0.006938 0.760261 0.380972 0.249782
H69   H     H_    0.085890 0.920060 0.434172 0.230710
H70   H     H_    0.157083 0.880055 0.318275 0.177214
C59   C     C_3   0.103261 0.181676 0.350674 -0.301320
C60   C     C_3   0.137573 0.207447 0.208556 -0.398315
C61   C     C_3   0.093740 0.155870 0.093194 -0.893973
H71   H     H_    0.104880 0.078419 0.099559 0.258825
H72   H     H_    0.027032 0.169926 0.096783 0.320873
H73   H     H_    0.118686 0.182284 0.994780 0.245128
H74   H     H_    0.128670 0.282991 0.193110 0.225128
H75   H     H_    0.203537 0.193685 0.194758 0.218183
H76   H     H_    0.086616 0.105309 0.345399 0.228410
H77   H     H_    0.045019 0.220788 0.366232 0.251588
C62   C     C_3   0.114071 0.146756 0.604084 -0.425803
C63   C     C_3   0.048593 0.200123 0.686514 -0.313269
C64   C     C_3   0.002737 0.131907 0.781894 -0.808912
H78   H     H_    0.969048 0.076198 0.725459 0.330057
H79   H     H_    0.046584 0.093100 0.847073 0.242829
H80   H     H_    0.959328 0.171840 0.848018 0.247400
H81   H     H_    0.076641 0.252386 0.754703 0.198470
H82   H     H_    0.006938 0.239739 0.619030 0.249780
H83   H     H_    0.085891 0.079940 0.565833 0.230710
H84   H     H_    0.157083 0.119946 0.681729 0.177213
C65   C     C_3   0.603262 0.318322 0.649328 -0.301320
C66   C     C_3   0.637574 0.292549 0.791446 -0.398317
C67   C     C_3   0.593737 0.344119 0.906810 -0.893960
H85   H     H_    0.604870 0.421573 0.900447 0.258828
H86   H     H_    0.527030 0.330056 0.903222 0.320868
H87   H     H_    0.618686 0.317706 0.005223 0.245125
H88   H     H_    0.628674 0.217004 0.806886 0.225129
H89   H     H_    0.703537 0.306315 0.805246 0.218182
H90   H     H_    0.586617 0.394690 0.654605 0.228407
H91   H     H_    0.545020 0.279212 0.633769 0.251589
C68   C     C_3   0.614071 0.353244 0.395919 -0.425806
C69   C     C_3   0.548593 0.299877 0.313489 -0.313268
C70   C     C_3   0.502737 0.368094 0.218108 -0.808906
H92   H     H_    0.469051 0.423804 0.274543 0.330058
H93   H     H_    0.546585 0.406898 0.152927 0.242825
H94   H     H_    0.459327 0.328161 0.151987 0.247401
H95   H     H_    0.576641 0.247614 0.245300 0.198470
H96   H     H_    0.506938 0.260261 0.380973 0.249781
H97   H     H_    0.585891 0.420059 0.434171 0.230710
H98   H     H_    0.657083 0.380055 0.318274 0.177214
C71   C     C_3   0.603261 0.681678 0.350672 -0.301310
C72   C     C_3   0.637575 0.707446 0.208553 -0.398319
C73   C     C_3   0.593741 0.655870 0.093192 -0.893939
H99   H     H_    0.604863 0.578414 0.099577 0.258829
H100  H     H_    0.527034 0.669947 0.096763 0.320857
H101  H     H_    0.618703 0.682267 0.994777 0.245120
H102  H     H_    0.628674 0.782990 0.193104 0.225123
H103  H     H_    0.703538 0.693682 0.194757 0.218180
H104  H     H_    0.586613 0.605312 0.345399 0.228409
H105  H     H_    0.545020 0.720792 0.366228 0.251585
C74   C     C_3   0.614070 0.646757 0.604083 -0.425804
C75   C     C_3   0.548592 0.700124 0.686512 -0.313267
C76   C     C_3   0.502736 0.631909 0.781893 -0.808912
H106  H     H_    0.469047 0.576200 0.725459 0.330057
H107  H     H_    0.546583 0.593102 0.847072 0.242829
H108  H     H_    0.459327 0.671843 0.848017 0.247397
H109  H     H_    0.576640 0.752387 0.754701 0.198473
H110  H     H_    0.506937 0.739741 0.619028 0.249780
H111  H     H_    0.585889 0.579941 0.565831 0.230712
H112  H     H_    0.657081 0.619947 0.681728 0.177212

loop_
_geom_bond_atom_site_label_1
_geom_bond_atom_site_label_2
_ccdc_geom_bond_type
C63   H81   S    
C16   C28   S    
C55   H59   S    
C30   C44   S    
C62   C63   S    
O16   Zn3   S    
C11   O13   A    
C51   N4    S    
O8    Zn3   S    
C6    N2    S    
C71   C72   S    
C45   H33   S    
C61   H71   S    
C73   H99   S    
C45   H41   S    
C14   C33   S    
C6    H51   S    
C59   C60   S    
C20   H8    S    
C42   C59   S    
C65   H90   S    
C7    C8    S    
C12   O15   A    
C45   C46   S    
C13   C33   S    
C74   H112  S    
C73   H100  S    
C31   H30   S    
O1    Zn1   S    
C32   C36   S    
C17   C35   S    
C61   H72   S    
C68   H97   S    
C38   C42   S    
C10   O12   A    
C19   C36   S    
C67   H86   S    
C5    C6    S    
C45   N1    S    
C26   C39   S    
C64   H80   S    
C15   Cl3   S    
C75   H109  S    
C28   C40   S    
C55   H57   S    
C29   C33   S    
O10   Zn2   S    
N2    Zn1   S    
C65   H91   S    
C18   Cl6   S    
O15   Zn4   S    
C3    O5    A    
C16   C34   S    
C66   C67   S    
C2    O4    A    
C50   H38   S    
C29   H26   S    
C20   C24   S    
C7    N3    S    
C70   H93   S    
C24   C38   S    
C56   C57   S    
C48   H36   S    
C4    O7    A    
C69   H96   S    
C12   C36   S    
C48   H44   S    
C18   C35   S    
C15   C34   S    
C13   H1    S    
C49   N3    S    
C59   H76   S    
C76   H107  S    
C48   N1    S    
C5    H52   S    
C43   C68   S    
C24   H12   S    
C72   H103  S    
C29   C43   S    
C9    C33   S    
O2    Zn2   S    
C62   H83   S    
C1    O1    A    
C27   H23   S    
C71   H104  S    
C18   H6    S    
C53   H63   S    
C9    O10   A    
C5    H49   S    
C64   H79   S    
C51   H47   S    
C15   C27   S    
C32   H32   S    
C73   H101  S    
C57   H68   S    
C50   H46   S    
C72   C73   S    
C30   C34   S    
C53   H62   S    
C68   C69   S    
C26   H14   S    
C47   C48   S    
C23   H19   S    
C61   H73   S    
C25   H13   S    
C68   H98   S    
C10   O11   A    
C42   C62   S    
C67   H87   S    
C49   H37   S    
C39   C43   S    
C14   Cl2   S    
C52   N3    S    
C19   H7    S    
C65   C66   S    
C22   C37   S    
C49   H45   S    
C43   C65   S    
C17   C21   S    
C51   C52   S    
C21   H17   S    
C56   H69   S    
C19   C23   S    
C67   H85   S    
C16   H4    S    
C41   C53   S    
C3    O6    A    
C54   H61   S    
C22   H10   S    
C2    O3    A    
O13   Zn3   S    
C9    O9    A    
C74   C75   S    
C46   H42   S    
C4    C39   S    
C76   H106  S    
C27   C40   S    
C70   H94   S    
C11   O14   A    
C7    H53   S    
O7    Zn4   S    
C29   H25   S    
C10   C34   S    
C27   H15   S    
C66   H89   S    
C69   H95   S    
C14   C26   S    
C58   H66   S    
C1    C38   S    
C7    H56   S    
C12   O16   A    
C59   H77   S    
C14   H2    S    
C15   H3    S    
C3    C40   S    
C70   H92   S    
C72   H102  S    
C46   N2    S    
O11   Zn2   S    
C44   C71   S    
C31   C35   S    
C62   H84   S    
C52   H40   S    
C58   H65   S    
C1    O2    A    
C30   H27   S    
C16   Cl4   S    
C8    H55   S    
C71   H105  S    
C63   C64   S    
C24   H20   S    
C60   C61   S    
C76   H108  S    
C63   H82   S    
C55   H58   S    
C32   H31   S    
C57   H67   S    
C32   C42   S    
C31   C41   S    
C28   H16   S    
C18   C22   S    
C21   H9    S    
C54   H60   S    
O9    Zn1   S    
C13   C25   S    
C8    H54   S    
C41   C56   S    
C47   N2    S    
C74   H111  S    
C31   H29   S    
C23   C38   S    
C44   C74   S    
C69   C70   S    
C20   Cl8   S    
C11   C35   S    
C50   N4    S    
C30   H28   S    
C53   C54   S    
C56   H70   S    
C2    C37   S    
O4    Zn1   S    
C75   H110  S    
C23   H11   S    
C26   H22   S    
C8    N4    S    
C52   H48   S    
O12   Zn1   S    
C25   H21   S    
C66   H88   S    
C6    H50   S    
N4    Zn3   S    
C37   C41   S    
O5    Zn3   S    
C13   Cl1   S    
O6    Zn4   S    
O14   Zn4   S    
C60   H75   S    
C64   H78   S    
C60   H74   S    
C20   C36   S    
N3    Zn4   S    
C40   C44   S    
C21   C37   S    
C75   C76   S    
C19   Cl7   S    
C49   C50   S    
C17   H5    S    
N1    Zn2   S    
C51   H39   S    
C47   H43   S    
C54   C55   S    
C4    O8    A    
C17   Cl5   S    
C57   C58   S    
C5    N1    S    
C58   H64   S    
C22   H18   S    
C25   C39   S    
C47   H35   S    
C46   H34   S    
O3    Zn2   S    
C28   H24   S    
