data_mof_unit_14716.cif
_audit_creation_date              2012-12-10T17:50:10-0500
_audit_creation_method            fapswitch 2.2
_symmetry_space_group_name_H-M    P1
_symmetry_Int_Tables_number       1
_space_group_crystal_system       triclinic
_cell_length_a                    10.632453
_cell_length_b                    14.734883
_cell_length_c                    14.91819
_cell_angle_alpha                 64.21998
_cell_angle_beta                  104.28642
_cell_angle_gamma                 103.607692
_cell_volume                      2017.45329555

loop_
_atom_site_label
_atom_site_type_symbol
_atom_type_description
_atom_site_fract_x
_atom_site_fract_y
_atom_site_fract_z
_atom_type_partial_charge
C1    C     C_R   0.485704 0.119856 0.313197 0.793825
C2    C     C_R   0.517584 0.880038 0.686880 0.794657
C3    C     C_R   0.496104 0.290670 0.176368 -0.298981
C4    C     C_R   0.546982 0.714459 0.825669 -0.236036
C5    C     C_R   0.531031 0.362101 0.083619 0.076038
C6    C     C_R   0.528273 0.639682 0.921378 0.083964
C7    C     C_R   0.545786 0.324897 0.014817 0.081948
C8    C     C_R   0.506506 0.672287 0.991716 0.039883
C9    C     C_R   0.541222 0.468808 0.054998 -0.060790
C10   C     C_R   0.533721 0.534572 0.950427 0.005396
C11   C     C_R   0.526423 0.491237 0.879547 0.241333
C12   C     C_R   0.558287 0.511954 0.127306 0.247870
C13   C     C_R   0.545541 0.390125 0.914007 -0.284687
C14   C     C_R   0.523732 0.609048 0.093934 -0.241720
C15   C     C_R   0.740671 0.296456 0.649049 -0.354801
C16   C     C_R   0.278464 0.714792 0.332894 -0.375388
C17   C     C_R   0.695830 0.208787 0.629717 0.453120
C18   C     C_R   0.313017 0.796418 0.362284 0.476952
C19   C     C_R   0.514589 0.283338 0.512888 -0.024752
C20   C     C_R   0.483931 0.715658 0.488020 -0.040442
C21   C     C_R   0.553361 0.373748 0.531835 -0.054826
C22   C     C_R   0.453065 0.630236 0.460988 -0.042937
C23   C     C_R   0.260055 0.998730 0.501847 0.817079
C24   C     C_R   0.739853 0.001168 0.498490 0.825618
C25   C     C_R   0.670060 0.379109 0.601384 0.081862
C26   C     C_R   0.343567 0.629237 0.384325 0.047198
C27   C     C_R   0.482340 0.459006 0.483035 0.019256
C28   C     C_R   0.526796 0.546620 0.507036 0.044014
C29   C     C_R   0.646126 0.549677 0.573398 -0.312778
C30   C     C_R   0.370065 0.460327 0.409190 -0.244717
C31   C     C_R   0.716622 0.467645 0.620668 0.271061
C32   C     C_R   0.302514 0.543654 0.359229 0.270576
C33   C     C_3   0.020062 0.903696 0.538543 0.235220
C34   C     C_3   0.979560 0.095920 0.464033 0.248821
C35   C     C_3   0.922621 0.952241 0.441481 -0.324425
C36   C     C_3   0.077231 0.047510 0.560960 -0.267626
C37   C     C_3   0.875915 0.001332 0.498493 -0.161732
C38   C     C_3   0.124034 0.998092 0.503498 -0.138565
C39   C     C_3   0.972216 0.951858 0.594123 0.253285
C40   C     C_3   0.026782 0.047929 0.408089 0.242758
C41   C     C_R   0.502112 0.187281 0.208718 -0.126324
C42   C     C_R   0.514291 0.811512 0.792682 -0.141131
C43   C     C_R   0.552182 0.221202 0.046213 -0.218210
C44   C     C_R   0.475137 0.770309 0.959815 -0.211492
C45   C     C_R   0.536443 0.152133 0.145095 0.260171
C46   C     C_R   0.470421 0.838758 0.858040 0.256713
Cu1   Cu    Cu3+1 0.465750 0.918270 0.475680 0.964123
Cu2   Cu    Cu3+1 0.534250 0.081730 0.524320 0.961490
H1    H     H_    0.561522 0.720047 0.548534 0.142373
H2    H     H_    0.429088 0.273337 0.460031 0.137047
H3    H     H_    0.831049 0.299093 0.701348 0.185066
H4    H     H_    0.201226 0.720084 0.269053 0.153800
N1    N     N_R   0.585750 0.204560 0.560800 -0.189742
N2    N     N_R   0.414250 0.795440 0.439200 -0.191355
O1    O     O_R   0.454850 0.022100 0.338110 -0.543510
O2    O     O_R   0.545150 0.977900 0.661890 -0.534434
O3    O     O_R   0.512700 0.160150 0.379180 -0.595260
O4    O     O_R   0.487300 0.839850 0.620820 -0.588040
O5    O     O_R   0.287930 0.931000 0.479440 -0.525556
O6    O     O_R   0.712070 0.069000 0.520560 -0.547178
O7    O     O_R   0.345780 0.069050 0.520520 -0.610096
O8    O     O_R   0.654220 0.930950 0.479480 -0.605391
H5    H     H_    0.858514 0.913408 0.393649 0.159478
H6    H     H_    0.142406 0.085882 0.608814 0.154897
N3    N     N_2   0.244885 0.881866 0.309629 -0.367310
H7    H     H_    0.261308 0.921524 0.236104 0.244533
C47   C     C_3   0.106507 0.860352 0.315955 -0.684033
H8    H     H_    0.052221 0.812097 0.274550 0.188260
H9    H     H_    0.065174 0.932752 0.281219 0.257216
H10   H     H_    0.091854 0.821153 0.395936 0.265031
N4    N     N_2   0.768398 0.125754 0.678860 -0.362160
H11   H     H_    0.862150 0.145110 0.662120 0.246700
C48   C     C_3   0.767947 0.072860 0.786370 -0.683906
H12   H     H_    0.827185 0.121139 0.826491 0.191348
H13   H     H_    0.810977 0.001596 0.815337 0.238347
H14   H     H_    0.666177 0.052480 0.802557 0.265775
H15   H     H_    0.689063 0.616005 0.589456 0.131158
H16   H     H_    0.332202 0.397844 0.386382 0.151321
N5    N     N_2   0.040516 0.798744 0.576222 -0.430249
H17   H     H_    0.954628 0.749315 0.572948 0.234909
C49   C     C_3   0.128956 0.760980 0.670529 -0.666532
H18   H     H_    0.160124 0.691033 0.678087 0.226443
H19   H     H_    0.078357 0.741067 0.734782 0.217158
H20   H     H_    0.217686 0.817765 0.673162 0.220046
N6    N     N_2   0.949405 0.198565 0.424343 -0.416161
H21   H     H_    0.870582 0.213065 0.366358 0.244346
C50   C     C_3   0.060236 0.278921 0.406295 -0.671957
H22   H     H_    0.027526 0.352081 0.388055 0.242119
H23   H     H_    0.101871 0.286489 0.341704 0.224334
H24   H     H_    0.137112 0.263614 0.474603 0.226879
N7    N     N_2   0.931595 0.899010 0.692279 -0.420844
H25   H     H_    0.882152 0.826416 0.705483 0.241893
C51   C     C_3   0.026619 0.908948 0.776593 -0.709272
H26   H     H_    0.985004 0.864160 0.847349 0.221959
H27   H     H_    0.050074 0.989947 0.766642 0.236945
H28   H     H_    0.117731 0.880425 0.783566 0.229117
N8    N     N_2   0.063114 0.100163 0.308534 -0.426397
H29   H     H_    0.143484 0.156054 0.303938 0.244605
C52   C     C_3   0.956155 0.130342 0.225532 -0.714379
H30   H     H_    0.993943 0.162634 0.153108 0.231041
H31   H     H_    0.910932 0.189169 0.228877 0.225641
H32   H     H_    0.880803 0.063402 0.227183 0.229857
H33   H     H_    0.545936 0.359664 0.859696 0.146396
H34   H     H_    0.518843 0.639011 0.147338 0.152640
H35   H     H_    0.590110 0.699809 0.775865 0.186480
H36   H     H_    0.462434 0.314629 0.224316 0.190263
N9    N     N_2   0.418877 0.932602 0.818754 -0.416510
H37   H     H_    0.349214 0.945365 0.754371 0.245440
C53   C     C_3   0.400741 0.972890 0.886406 -0.760704
H38   H     H_    0.373402 0.050496 0.842177 0.234180
H39   H     H_    0.494341 0.978887 0.937631 0.240100
H40   H     H_    0.321092 0.923644 0.929689 0.226989
N10   N     N_2   0.561316 0.049586 0.183862 -0.405446
H41   H     H_    0.640170 0.031978 0.241607 0.247671
C54   C     C_3   0.540973 0.999538 0.116086 -0.748879
H42   H     H_    0.621809 0.028819 0.071117 0.218284
H43   H     H_    0.444409 0.011484 0.066212 0.240420
H44   H     H_    0.540398 0.916384 0.160583 0.231725
H45   H     H_    0.571552 0.195312 0.993899 0.144223
H46   H     H_    0.451398 0.791302 0.014136 0.141797
N11   N     N_2   0.486595 0.543776 0.773914 -0.453661
H47   H     H_    0.525724 0.523484 0.729740 0.256927
C55   C     C_3   0.346516 0.543518 0.743304 -0.665154
H48   H     H_    0.324920 0.593292 0.661874 0.234131
H49   H     H_    0.308432 0.572938 0.786920 0.233914
H50   H     H_    0.295813 0.464938 0.755597 0.224480
N12   N     N_2   0.618771 0.460660 0.230091 -0.433566
H51   H     H_    0.679889 0.411324 0.238986 0.261764
C56   C     C_3   0.674387 0.518121 0.292197 -0.692110
H52   H     H_    0.723001 0.467776 0.366786 0.232506
H53   H     H_    0.596448 0.546484 0.306074 0.241231
H54   H     H_    0.748753 0.582665 0.255667 0.222121
N13   N     N_2   0.837650 0.476279 0.685842 -0.438591
H55   H     H_    0.893368 0.547309 0.660042 0.251268
C57   C     C_3   0.824894 0.441709 0.790374 -0.729312
H56   H     H_    0.923934 0.443420 0.836852 0.233039
H57   H     H_    0.772995 0.362242 0.818735 0.234795
H58   H     H_    0.770331 0.492554 0.798705 0.227308
N14   N     N_2   0.189457 0.536899 0.286310 -0.446664
H59   H     H_    0.110085 0.565979 0.285936 0.246864
C58   C     C_3   0.216842 0.562616 0.187152 -0.709729
H60   H     H_    0.124079 0.550641 0.136986 0.228923
H61   H     H_    0.284209 0.512898 0.191655 0.245802
H62   H     H_    0.261790 0.643747 0.154101 0.220895

loop_
_geom_bond_atom_site_label_1
_geom_bond_atom_site_label_2
_ccdc_geom_bond_type
C25   C31   A    
C57   H58   S    
C38   C40   S    
C50   H22   S    
C26   C32   A    
C51   H26   S    
C34   C37   S    
Cu2   O3    S    
C48   H12   S    
C36   H6    S    
C31   N13   S    
Cu1   O8    S    
N8    H29   S    
C55   H48   S    
C12   N12   S    
N6    H21   S    
C18   N3    S    
C23   O5    A    
C33   C39   S    
C34   C40   S    
C28   C29   A    
C35   C37   S    
N10   H41   S    
C58   H61   S    
C55   H49   S    
C44   H46   S    
C54   H42   S    
Cu2   O2    S    
C42   C46   A    
N8    C52   S    
Cu1   Cu2   S    
C54   H43   S    
C24   O8    A    
N9    H37   S    
C15   H3    S    
C13   H33   S    
C9    C10   A    
C56   H54   S    
C19   N1    A    
C21   C27   A    
C51   H27   S    
C22   C28   A    
C27   C30   A    
N9    C53   S    
C11   N11   S    
C39   N7    S    
C49   H19   S    
C44   C46   A    
Cu2   O6    S    
N6    C50   S    
C3    H36   S    
C16   C26   A    
Cu2   N1    S    
C47   H8    S    
C8    C44   A    
C57   H56   S    
C32   N14   S    
C20   N2    A    
C53   H40   S    
C40   N8    S    
C5    C7    A    
C33   N5    S    
C55   H50   S    
C6    C8    A    
N3    C47   S    
C49   H18   S    
C47   H9    S    
C34   N6    S    
N12   C56   S    
C5    C9    A    
C20   H1    S    
C1    O3    A    
N7    C51   S    
C14   H34   S    
C52   H30   S    
C7    C13   A    
C24   O6    A    
C54   H44   S    
C46   N9    S    
C24   C37   S    
C16   C18   A    
N14   C58   S    
C43   C45   A    
N11   H47   S    
Cu1   N2    S    
C4    C6    A    
C52   H31   S    
C12   C14   A    
C17   N4    S    
C51   H28   S    
C7    C43   A    
C50   H23   S    
N13   H55   S    
C48   H14   S    
C58   H62   S    
C48   H13   S    
N12   H51   S    
C17   N1    A    
N7    H25   S    
C49   H20   S    
Cu1   O1    S    
C56   H52   S    
C1    C41   S    
C57   H57   S    
C21   C25   A    
C3    C41   A    
C8    C14   A    
C19   C21   A    
C36   C39   S    
C16   H4    S    
C20   C22   A    
C3    C5    A    
C6    C10   A    
N14   H59   S    
C2    O4    A    
C15   C17   A    
C23   C38   S    
C4    H35   S    
N5    C49   S    
C33   C38   S    
C47   H10   S    
C53   H39   S    
C35   C40   S    
C1    O1    A    
N4    H11   S    
C37   C39   S    
C2    O2    A    
C58   H60   S    
Cu1   O4    S    
C30   C32   A    
C11   C13   A    
C19   H2    S    
Cu2   O7    S    
C4    C42   A    
C2    C42   S    
C36   C38   S    
C33   C35   S    
C34   C36   S    
C9    C12   A    
N11   C55   S    
C15   C25   A    
C10   C11   A    
C18   N2    A    
Cu1   O5    S    
N5    H17   S    
C30   H16   S    
C45   N10   S    
C23   O7    A    
C52   H32   S    
C29   H15   S    
C29   C31   A    
N3    H7    S    
C22   C26   A    
C50   H24   S    
N4    C48   S    
C27   C28   A    
N13   C57   S    
C41   C45   A    
C35   H5    S    
N10   C54   S    
C53   H38   S    
C43   H45   S    
C56   H53   S    
