data_mof_unit_46727.cif
_audit_creation_date              2012-12-11T15:13:50-0500
_audit_creation_method            fapswitch 2.2
_symmetry_space_group_name_H-M    P1
_symmetry_Int_Tables_number       1
_space_group_crystal_system       triclinic
_cell_length_a                    6.98751
_cell_length_b                    13.541395
_cell_length_c                    20.129046
_cell_angle_alpha                 104.235711
_cell_angle_beta                  89.741166
_cell_angle_gamma                 90.775593
_cell_volume                      1845.96588851

loop_
_atom_site_label
_atom_site_type_symbol
_atom_type_description
_atom_site_fract_x
_atom_site_fract_y
_atom_site_fract_z
_atom_type_partial_charge
O1    O     O_R   0.506780 0.600060 0.449950 -0.539674
O2    O     O_R   0.179840 0.597110 0.589410 -0.545080
O3    O     O_R   0.004570 0.399940 0.550050 -0.539265
C1    C     C_R   0.348238 0.618509 0.616823 0.698367
O4    O     O_R   0.177380 0.612160 0.452890 -0.541019
O5    O     O_R   0.002100 0.415100 0.412560 -0.537993
C2    C     C_R   0.347335 0.639305 0.437265 0.696415
O6    O     O_R   0.509250 0.584900 0.587440 -0.538834
O7    O     O_3   0.337570 0.435330 0.486930 -0.372887
V1    V     V_3+5 0.064650 0.512000 0.502430 1.419039
O8    O     O_R   0.672090 0.402890 0.410590 -0.546328
C3    C     C_R   0.840437 0.381424 0.383084 0.680846
O9    O     O_R   0.674540 0.387840 0.547110 -0.541927
C4    C     C_R   0.842055 0.361942 0.564169 0.693377
V2    V     V_3+5 0.564040 0.488000 0.497570 1.413990
O10   O     O_3   0.840990 0.564670 0.513070 -0.370610
C5    C     C_R   0.805363 0.109035 0.608179 -0.160112
H1    H     H_    0.800488 0.158983 0.515072 0.101339
H2    H     H_    0.788295 0.983295 0.690061 0.128748
H3    H     H_    0.783612 0.029862 0.581407 0.113759
C6    C     C_R   0.845287 0.284445 0.603438 -0.032298
C7    C     C_R   0.878760 0.317530 0.932896 -0.286525
C8    C     C_R   0.877362 0.396862 0.898829 0.474543
C9    C     C_R   0.865901 0.371601 0.827232 -0.208360
C10   C     C_R   0.854384 0.269215 0.788296 0.005506
C11   C     C_R   0.844930 0.190891 0.824251 0.033593
C12   C     C_R   0.846029 0.241988 0.714949 0.078871
C13   C     C_R   0.819447 0.137790 0.679888 0.116573
C14   C     C_R   0.806296 0.062856 0.716511 -0.201855
C15   C     C_R   0.817987 0.088756 0.787489 -0.185132
C16   C     C_R   0.862044 0.314261 0.674905 -0.214546
C17   C     C_R   0.815955 0.182115 0.570291 -0.173112
C18   C     C_R   0.863526 0.216011 0.896420 -0.133053
H4    H     H_    0.885234 0.394327 0.697440 0.094834
H5    H     H_    0.887375 0.333000 0.988106 0.113783
H6    H     H_    0.862242 0.434844 0.803652 0.130169
H7    H     H_    0.810066 0.027487 0.813294 0.127602
C19   C     C_3   0.799887 0.156817 0.251668 -0.105473
C20   C     C_3   0.972219 0.215726 0.291614 -0.158001
H8    H     H_    0.067508 0.186730 0.326349 0.112878
H9    H     H_    0.753957 0.078532 0.253030 0.131275
C21   C     C_3   0.848796 0.311775 0.312225 -0.033579
C22   C     C_3   0.676284 0.253729 0.273011 -0.061770
C23   C     C_3   0.741722 0.286451 0.207825 -0.118257
C24   C     C_3   0.914055 0.345369 0.247887 -0.179871
C25   C     C_3   0.037496 0.248501 0.226450 -0.109997
C26   C     C_3   0.864872 0.190251 0.187248 -0.000212
H10   H     H_    0.527142 0.256200 0.292572 0.128217
H11   H     H_    0.646888 0.315384 0.172925 0.105525
H12   H     H_    0.961440 0.423563 0.246850 0.113333
H13   H     H_    0.186444 0.247461 0.206967 0.149329
C27   C     C_3   0.470424 0.789065 0.707782 -0.234664
C28   C     C_3   0.294393 0.839240 0.747847 0.440221
H14   H     H_    0.561872 0.821878 0.673162 0.103654
C29   C     C_3   0.359598 0.810377 0.812866 -0.081102
C30   C     C_3   0.538058 0.759108 0.773677 -0.161205
C31   C     C_3   0.423519 0.657293 0.752016 -0.098873
C32   C     C_3   0.245743 0.709381 0.791655 -0.153117
C33   C     C_3   0.177127 0.739609 0.726213 -0.164261
C34   C     C_3   0.355185 0.688349 0.687376 -0.060482
H15   H     H_    0.686950 0.766775 0.793515 0.134844
H16   H     H_    0.478387 0.581206 0.753258 0.116283
H17   H     H_    0.153239 0.676536 0.825984 0.158479
H18   H     H_    0.028108 0.733261 0.706519 0.122508
C35   C     C_R   0.396624 0.893241 0.396447 -0.156579
H19   H     H_    0.396602 0.841425 0.488910 0.102173
H20   H     H_    0.379943 0.020817 0.318070 0.134652
H21   H     H_    0.412183 0.972463 0.424021 0.111169
C36   C     C_R   0.360410 0.717323 0.399135 -0.026874
C37   C     C_R   0.363656 0.682344 0.069680 -0.018877
C38   C     C_R   0.362592 0.607811 0.106512 -0.230133
C39   C     C_R   0.363326 0.633315 0.177383 -0.152578
C40   C     C_R   0.358892 0.735769 0.215468 0.088262
C41   C     C_R   0.351520 0.814447 0.179373 -0.044147
C42   C     C_R   0.364349 0.761886 0.288646 0.075210
C43   C     C_R   0.382619 0.865559 0.324645 0.112001
C44   C     C_R   0.377209 0.941535 0.289429 -0.223228
C45   C     C_R   0.349077 0.917936 0.218807 -0.051096
C46   C     C_R   0.349893 0.688545 0.327747 -0.216765
C47   C     C_R   0.386743 0.819224 0.433502 -0.173092
C48   C     C_R   0.355058 0.786423 0.105635 -0.119195
H22   H     H_    0.325886 0.608676 0.304823 0.089810
H23   H     H_    0.372960 0.569995 0.200636 0.110466
H24   H     H_    0.367400 0.527867 0.079990 0.108053
O11   O     O_R   0.203580 0.914920 0.912610 -0.533123
O12   O     O_R   0.535710 0.887810 0.047120 -0.528347
O13   O     O_R   0.710730 0.084950 0.087430 -0.519899
C49   C     C_R   0.366598 0.864041 0.065947 0.801002
O14   O     O_R   0.533010 0.902850 0.910600 -0.545745
O15   O     O_R   0.708010 0.100090 0.949930 -0.549066
C50   C     C_R   0.364797 0.880812 0.883373 0.767419
O16   O     O_R   0.206300 0.899780 0.050100 -0.548333
O17   O     O_3   0.375170 0.064580 0.013100 -0.375398
V3    V     V_3+5 0.648200 0.988020 0.997570 1.478774
O18   O     O_R   0.038030 0.112330 0.952840 -0.549032
C51   C     C_R   0.870109 0.137523 0.935290 0.690825
O19   O     O_R   0.040730 0.097300 0.089360 -0.549423
C52   C     C_R   0.872420 0.119645 0.116607 0.668511
V4    V     V_3+5 0.148780 0.012220 0.002360 1.454879
O20   O     O_3   0.871930 0.935430 0.986900 -0.371310
O21   O     O_3   0.215315 0.933421 0.745605 -0.580376
C53   C     C_3   0.358461 0.010386 0.757606 0.043229
H25   H     H_    0.432399 0.009653 0.708570 0.138117
H26   H     H_    0.463847 0.001576 0.796935 0.103530
C54   C     C_3   0.260143 0.111926 0.783524 -0.283875
H27   H     H_    0.168223 0.124640 0.741975 0.221341
H28   H     H_    0.176343 0.106844 0.829266 0.216896
C55   C     C_3   0.392188 0.203583 0.804752 -0.812803
H29   H     H_    0.477617 0.197423 0.849698 0.245157
H30   H     H_    0.305397 0.273656 0.820225 0.229266
H31   H     H_    0.482789 0.210104 0.760838 0.247550
C56   C     C_2   0.382146 0.645973 0.993679 0.296245
H32   H     H_    0.413239 0.566413 0.971012 0.073468
O22   O     O_2   0.359309 0.701898 0.955337 -0.544755
C57   C     C_2   0.290075 0.003758 0.191480 0.322229
H33   H     H_    0.150498 0.000804 0.168357 0.064677
O23   O     O_2   0.392544 0.078935 0.197131 -0.551667
O24   O     O_3   0.872490 0.500361 0.931852 -0.575369
C58   C     C_3   0.954630 0.525073 0.998095 0.088428
H34   H     H_    0.017904 0.602450 0.006152 0.158631
H35   H     H_    0.074873 0.474386 0.003438 0.095274
C59   C     C_3   0.800037 0.531321 0.053069 -0.320510
H36   H     H_    0.722078 0.603289 0.057707 0.205690
H37   H     H_    0.696147 0.467026 0.038049 0.187179
C60   C     C_3   0.884330 0.531752 0.122872 -0.832436
H38   H     H_    0.975341 0.464012 0.119329 0.222501
H39   H     H_    0.766691 0.529838 0.159825 0.231029
H40   H     H_    0.970100 0.602361 0.142420 0.251960

loop_
_geom_bond_atom_site_label_1
_geom_bond_atom_site_label_2
_ccdc_geom_bond_type
C23   H11   S    
C29   C30   S    
O17   V3    S    
C40   C41   A    
O18   C51   A    
H20   C44   S    
C1    O6    A    
C8    O24   S    
C56   O22   D    
O19   C52   A    
C28   C33   S    
C31   H16   S    
C44   C45   A    
C30   C31   S    
C7    H5    S    
C54   H28   S    
C33   H18   S    
O21   C53   S    
C26   C52   S    
C4    C6    S    
C13   C14   A    
O5    C3    A    
C19   C20   S    
O12   C49   A    
V2    O10   S    
O13   V3    S    
C5    H3    S    
C55   H29   S    
C53   C54   S    
O14   V3    S    
C37   C48   A    
O24   C58   S    
C3    C21   S    
C27   C34   S    
O8    V2    S    
C49   O16   A    
C28   O21   S    
C57   O23   D    
C60   H40   S    
C29   C50   S    
C8    C9    A    
C37   C38   A    
O1    V2    S    
O14   C50   A    
O12   V3    S    
C22   H10   S    
O17   V4    S    
C23   C26   S    
O13   C52   A    
C28   C29   S    
C33   C34   S    
C35   C47   A    
O9    C4    A    
C40   C42   A    
C56   H32   S    
O19   V4    S    
C27   H14   S    
O15   V3    S    
C20   C21   S    
C58   H35   S    
O11   C50   A    
C6    C17   A    
C12   C16   A    
C48   C49   S    
C43   C44   A    
C19   H9    S    
C20   H8    S    
O4    C2    A    
C31   C34   S    
C10   C11   A    
C24   C25   S    
C25   H13   S    
C15   H7    S    
C21   C24   S    
O2    C1    A    
C42   C43   A    
O5    V1    S    
C14   C15   A    
O11   V4    S    
C6    C16   A    
C11   C18   A    
V4    O20   S    
V3    O20   S    
O8    C3    A    
C35   H21   S    
C1    C34   S    
C16   H4    S    
C30   H15   S    
C9    H6    S    
C54   C55   S    
C9    C10   A    
C53   H26   S    
C35   C43   A    
C19   C26   S    
O3    C4    A    
C37   C56   S    
C20   C25   S    
C11   C15   A    
O6    V2    S    
O9    V2    S    
C22   C23   S    
C60   H38   S    
C19   C22   S    
C36   C46   A    
H1    C17   S    
C21   C22   S    
C41   C48   A    
C59   H37   S    
O2    V1    S    
C18   C51   S    
C27   C28   S    
C38   H24   S    
O7    V1    S    
C58   C59   S    
C32   H17   S    
C7    C18   A    
C25   C26   S    
O1    C2    A    
C5    C13   A    
C23   C24   S    
C39   C40   A    
C2    C36   S    
C46   H22   S    
C58   H34   S    
O15   C51   A    
C10   C12   A    
H19   C47   S    
C54   H27   S    
C55   H31   S    
C45   C57   S    
C59   C60   S    
O7    V2    S    
O4    V1    S    
O3    V1    S    
V1    O10   S    
C31   C32   S    
C24   H12   S    
C55   H30   S    
O18   V4    S    
C53   H25   S    
C32   C33   S    
C39   H23   S    
C38   C39   A    
C41   C45   A    
C29   C32   S    
C12   C13   A    
C60   H39   S    
C5    C17   A    
C7    C8    A    
C36   C47   A    
C57   H33   S    
C59   H36   S    
C42   C46   A    
C27   C30   S    
O16   V4    S    
H2    C14   S    
