data_mof_unit_34768.cif
_audit_creation_date              2012-12-10T21:29:38-0500
_audit_creation_method            fapswitch 2.2
_symmetry_space_group_name_H-M    P1
_symmetry_Int_Tables_number       1
_space_group_crystal_system       triclinic
_cell_length_a                    10.627227
_cell_length_b                    16.182036
_cell_length_c                    16.41748
_cell_angle_alpha                 87.718997
_cell_angle_beta                  94.126431
_cell_angle_gamma                 92.319977
_cell_volume                      2811.76169555

loop_
_atom_site_label
_atom_site_type_symbol
_atom_type_description
_atom_site_fract_x
_atom_site_fract_y
_atom_site_fract_z
_atom_type_partial_charge
C1    C     C_R   0.494464 0.489534 0.654406 0.968747
C2    C     C_R   0.503946 0.510972 0.345637 0.983426
C3    C     C_R   0.452677 0.484575 0.738511 -0.305571
C4    C     C_R   0.486797 0.518275 0.256153 -0.258722
C5    C     C_R   0.436958 0.556511 0.783089 0.223620
C6    C     C_R   0.476641 0.447162 0.210032 0.335428
C7    C     C_R   0.357855 0.550753 0.848197 0.283791
C8    C     C_R   0.397599 0.447727 0.138376 0.262332
C9    C     C_R   0.335645 0.472658 0.887199 0.088054
C10   C     C_R   0.374802 0.524409 0.096001 0.073404
C11   C     C_R   0.347883 0.401472 0.842383 0.306494
C12   C     C_R   0.406423 0.598253 0.137232 0.279985
C13   C     C_R   0.400912 0.408736 0.767137 -0.322895
C14   C     C_R   0.455174 0.594229 0.218334 -0.312087
C15   C     C_R   0.417889 0.764992 0.473805 0.347330
C16   C     C_R   0.531497 0.234438 0.556890 0.353622
C17   C     C_R   0.414617 0.851335 0.491255 0.218316
C18   C     C_R   0.504943 0.147738 0.559554 0.199566
C19   C     C_R   0.525524 0.890757 0.527610 0.062009
C20   C     C_R   0.480979 0.108163 0.484338 0.053457
C21   C     C_R   0.620519 0.839831 0.564348 0.292355
C22   C     C_R   0.438398 0.158372 0.415879 0.287547
C23   C     C_R   0.740048 0.501171 0.491140 0.908607
C24   C     C_R   0.262576 0.497924 0.512936 0.888334
C25   C     C_R   0.611924 0.753474 0.555545 -0.128459
C26   C     C_R   0.431679 0.244903 0.423046 -0.154299
C27   C     C_R   0.874159 0.358186 0.438259 -0.094548
C28   C     C_R   0.132631 0.628961 0.589028 -0.076600
C29   C     C_R   0.926316 0.280369 0.445978 -0.080086
C30   C     C_R   0.076666 0.704649 0.593104 0.032256
C31   C     C_R   0.039766 0.269978 0.492132 -0.079849
C32   C     C_R   0.966411 0.720117 0.544972 -0.031862
C33   C     C_R   0.105471 0.338575 0.525036 -0.101097
C34   C     C_R   0.904109 0.656499 0.501615 -0.131952
C35   C     C_R   0.058240 0.419068 0.511745 0.086056
C36   C     C_R   0.948717 0.574989 0.508933 0.090228
C37   C     C_R   0.935048 0.427115 0.477246 0.082734
C38   C     C_R   0.071276 0.565117 0.543509 0.065019
C39   C     C_R   0.130489 0.491872 0.531268 -0.235979
C40   C     C_R   0.876245 0.503304 0.483796 -0.212828
H1    H     H_    0.929480 0.781467 0.540589 0.212258
H2    H     H_    0.078135 0.209061 0.501194 0.171024
H3    H     H_    0.877227 0.227848 0.417619 0.178064
H4    H     H_    0.122729 0.752618 0.629871 0.203954
N1    N     N_2   0.334490 0.463840 0.974005 -0.022372
N2    N     N_2   0.347876 0.530716 0.009718 -0.035874
N3    N     N_R   0.515300 0.716920 0.509720 -0.186353
N4    N     N_R   0.484700 0.283080 0.490280 -0.195822
N5    N     N_2   0.539782 0.979324 0.533973 0.009687
N6    N     N_2   0.487675 0.020140 0.475421 -0.003680
O1    O     O_R   0.494530 0.422540 0.612660 -0.570626
O2    O     O_R   0.505470 0.577460 0.387340 -0.564401
O3    O     O_R   0.504350 0.561840 0.618900 -0.557796
O4    O     O_R   0.495650 0.438160 0.381100 -0.588211
O5    O     O_R   0.678310 0.430340 0.496890 -0.548812
O6    O     O_R   0.321690 0.569660 0.503110 -0.550596
O7    O     O_R   0.688140 0.569650 0.503130 -0.642525
O8    O     O_R   0.311860 0.430350 0.496870 -0.637953
Zn1   Zn    Zn3+2 0.493440 0.406980 0.495830 1.040767
Zn2   Zn    Zn3+2 0.506560 0.593020 0.504170 1.055106
S1    S     S_3+6 0.474817 0.098350 0.656968 0.161079
O9    O     O_2   0.596942 0.087962 0.707571 -0.137138
O10   O     O_2   0.393888 0.153975 0.700297 -0.228936
O11   O     O_3   0.398331 0.005592 0.652842 -0.459915
H5    H     H_    0.394635 0.985767 0.710515 0.411314
S2    S     S_3+6 0.267454 0.905420 0.475735 0.155614
O12   O     O_2   0.232306 0.916158 0.385770 -0.136759
O13   O     O_2   0.165617 0.854915 0.514702 -0.285270
O14   O     O_3   0.263505 0.998649 0.516525 -0.480442
H6    H     H_    0.181081 0.020845 0.496200 0.393213
S3    S     S_3+6 0.747387 0.882510 0.626510 0.098641
O15   O     O_2   0.832920 0.933689 0.573699 -0.274805
O16   O     O_2   0.696684 0.936697 0.687613 -0.153166
O17   O     O_3   0.829140 0.807338 0.677268 -0.534542
H7    H     H_    0.904317 0.836137 0.703797 0.403557
S4    S     S_3+6 0.381529 0.114010 0.322831 0.134688
O18   O     O_2   0.447845 0.035839 0.309618 -0.205393
O19   O     O_2   0.242480 0.094577 0.326085 -0.236260
O20   O     O_3   0.404372 0.181075 0.244095 -0.426933
H8    H     H_    0.366073 0.152977 0.195305 0.425013
H9    H     H_    0.683636 0.714892 0.584996 0.240189
H10   H     H_    0.389342 0.282172 0.373089 0.248070
H11   H     H_    0.786476 0.363868 0.401192 0.194941
H12   H     H_    0.222914 0.619803 0.622433 0.176362
H13   H     H_    0.192100 0.327827 0.562065 0.169735
H14   H     H_    0.822927 0.672572 0.461559 0.169981
S5    S     S_3+6 0.598477 0.375182 0.221552 0.083296
O21   O     O_2   0.575345 0.312363 0.288804 -0.266808
O22   O     O_2   0.607418 0.331560 0.143138 -0.197936
O23   O     O_3   0.735924 0.427016 0.244773 -0.585616
H15   H     H_    0.801444 0.385337 0.243521 0.388406
S6    S     S_3+6 0.524704 0.650954 0.766227 0.123514
O24   O     O_2   0.450061 0.705748 0.706323 -0.237381
O25   O     O_2   0.550463 0.694990 0.844857 -0.174361
O26   O     O_3   0.664432 0.633039 0.729458 -0.511706
H16   H     H_    0.706535 0.595057 0.770656 0.355708
S7    S     S_3+6 0.291146 0.361656 0.126126 0.125770
O27   O     O_2   0.349425 0.296767 0.079758 -0.138822
O28   O     O_2   0.262941 0.326054 0.209120 -0.284106
O29   O     O_3   0.155209 0.391131 0.076649 -0.485250
H17   H     H_    0.094782 0.343651 0.084017 0.408469
S8    S     S_3+6 0.247131 0.628849 0.856684 0.128528
O30   O     O_2   0.310968 0.707532 0.886234 -0.106190
O31   O     O_2   0.182808 0.646340 0.773791 -0.335911
O32   O     O_3   0.136681 0.596484 0.920440 -0.486051
H18   H     H_    0.074083 0.640443 0.916282 0.405133
S9    S     S_3+6 0.293891 0.302360 0.876336 0.154982
O33   O     O_2   0.189323 0.309348 0.932141 -0.165804
O34   O     O_2   0.244679 0.252884 0.804462 -0.225404
O35   O     O_3   0.414437 0.253012 0.926015 -0.418407
H19   H     H_    0.477438 0.248743 0.884892 0.388604
S10   S     S_3+6 0.384832 0.696690 0.089286 0.150451
O36   O     O_2   0.252213 0.700741 0.051461 -0.160575
O37   O     O_2   0.407273 0.764219 0.149503 -0.201859
O38   O     O_3   0.487453 0.711186 0.016389 -0.429785
H20   H     H_    0.571495 0.702521 0.044892 0.361534
H21   H     H_    0.401996 0.354388 0.731090 0.256543
H22   H     H_    0.469662 0.650466 0.251817 0.262983
S11   S     S_3+6 0.645677 0.268856 0.636568 0.111156
O39   O     O_2   0.585192 0.266543 0.716497 -0.258607
O40   O     O_2   0.748403 0.207202 0.643116 -0.231719
O41   O     O_3   0.718794 0.361653 0.627186 -0.526989
H23   H     H_    0.781116 0.364814 0.674931 0.378624
S12   S     S_3+6 0.304206 0.729716 0.393090 0.114715
O42   O     O_2   0.172194 0.741489 0.415714 -0.238246
O43   O     O_2   0.326979 0.784413 0.319072 -0.205419
O44   O     O_3   0.300936 0.632722 0.362067 -0.538813
H24   H     H_    0.233291 0.630025 0.317337 0.378782

loop_
_geom_bond_atom_site_label_1
_geom_bond_atom_site_label_2
_ccdc_geom_bond_type
S2    O13   D    
S5    O21   D    
C9    N1    S    
C31   H2    S    
O5    Zn1   S    
C28   H12   S    
C2    C4    S    
O26   H16   S    
S4    O20   S    
C22   S4    S    
C16   N4    A    
S10   O37   D    
S7    O27   D    
N1    N2    D    
C17   S2    S    
C21   S3    S    
C35   C37   A    
S4    O19   D    
C37   C40   A    
C38   C39   A    
S2    O14   S    
C27   C29   A    
O38   H20   S    
C24   C39   S    
S8    O32   S    
C23   O7    A    
C34   H14   S    
S1    O10   D    
C33   H13   S    
O35   H19   S    
S6    O24   D    
C20   N6    S    
O2    Zn2   S    
C33   C35   A    
N3    Zn2   S    
C28   C30   A    
C14   H22   S    
C7    S8    S    
C10   N2    S    
C32   H1    S    
C31   C33   A    
C15   N3    A    
C25   N3    A    
C18   C20   A    
C3    C13   A    
C26   N4    A    
S2    O12   D    
C26   H10   S    
C29   H3    S    
C25   H9    S    
S9    O34   D    
C30   H4    S    
O14   H6    S    
C10   C12   A    
S10   O36   D    
S7    O28   D    
O3    Zn2   S    
O4    Zn1   S    
S11   O40   D    
O17   H7    S    
S8    O30   D    
C36   C40   A    
S4    O18   D    
C4    C6    A    
C2    O4    A    
C16   S11   S    
C5    C7    A    
O7    Zn2   S    
C6    C8    A    
O8    Zn1   S    
S6    O26   S    
C6    S5    S    
O6    Zn2   S    
C1    C3    S    
C32   C34   A    
S1    O11   S    
C35   C39   A    
C8    S7    S    
C9    C11   A    
C19   N5    S    
C28   C38   A    
S9    O33   D    
C1    O3    A    
S6    O25   D    
C16   C18   A    
S8    O31   D    
C1    O1    A    
C2    O2    A    
S12   O44   S    
C8    C10   A    
C15   S12   S    
C12   C14   A    
S5    O22   D    
C11   S9    S    
S9    O35   S    
O1    Zn1   S    
O44   H24   S    
C12   S10   S    
S7    O29   S    
N4    Zn1   S    
S12   O43   D    
S11   O41   S    
C15   C17   A    
C21   C25   A    
C19   C21   A    
C20   C22   A    
C3    C5    A    
S3    O17   S    
C13   H21   S    
S11   O39   D    
C18   S1    S    
C23   O5    A    
C24   O6    A    
O32   H18   S    
O11   H5    S    
C27   H11   S    
S3    O15   D    
C29   C31   A    
C30   C32   A    
C11   C13   A    
O23   H15   S    
C27   C37   A    
C36   C38   A    
O29   H17   S    
C17   C19   A    
C34   C36   A    
C4    C14   A    
S1    O9    D    
C5    S6    S    
O20   H8    S    
C7    C9    A    
C24   O8    A    
N5    N6    D    
C22   C26   A    
S5    O23   S    
S3    O16   D    
O41   H23   S    
S10   O38   S    
C23   C40   S    
S12   O42   D    
