data_mof_unit_25313.cif
_audit_creation_date              2013-03-05T16:16:17-0500
_audit_creation_method            fapswitch 2.2
_symmetry_space_group_name_H-M    P1
_symmetry_Int_Tables_number       1
_space_group_crystal_system       triclinic
_cell_length_a                    8.441874
_cell_length_b                    18.987509
_cell_length_c                    26.83397
_cell_angle_alpha                 97.080557
_cell_angle_beta                  92.873099
_cell_angle_gamma                 84.688559
_cell_volume                      4246.82861877

loop_
_atom_site_label
_atom_site_type_symbol
_atom_site_description
_atom_site_fract_x
_atom_site_fract_y
_atom_site_fract_z
_atom_type_partial_charge
P1    P     P_3+3 0.084800 0.558370 0.611580 0.445394
O1    O     O_2   0.914730 0.537460 0.618690 -0.367622
O2    O     O_3   0.146720 0.537410 0.558510 -0.371743
O3    O     O_3   0.666360 0.409390 0.586570 -0.371704
O4    O     O_2   0.833929 0.444443 0.665244 -0.363434
O5    O     O_3   0.075686 0.652482 0.616014 -0.642543
O6    O     O_3   0.640764 0.355863 0.681037 -0.501496
C1    C     C_3   0.530823 0.244902 0.677556 -1.012918
H1    H     H_    0.647865 0.221904 0.691574 0.276523
H2    H     H_    0.453460 0.261976 0.709927 0.269452
P2    P     P_3+3 0.628800 0.338360 0.458800 0.473286
P3    P     P_3+3 0.112589 0.281172 0.555943 0.460006
O7    O     O_2   0.806150 0.327840 0.473120 -0.382027
O8    O     O_3   0.073640 0.373350 0.561550 -0.336249
O9    O     O_2   0.034918 0.251046 0.505563 -0.433302
O10   O     O_3   0.591738 0.317047 0.393423 -0.597848
O11   O     O_3   0.006966 0.250645 0.602266 -0.477744
C2    C     C_3   0.107352 0.247734 0.645455 0.405599
H3    H     H_    0.167118 0.297705 0.655292 0.057264
H4    H     H_    0.197903 0.201620 0.639467 0.052189
C3    C     C_3   0.009902 0.237286 0.689654 -0.960650
H5    H     H_    0.919338 0.283066 0.697186 0.295869
H6    H     H_    0.949455 0.187400 0.681337 0.255966
C4    C     C_3   0.185069 0.310511 0.407305 0.287637
H7    H     H_    0.087539 0.306611 0.432451 0.143914
C5    C     C_3   0.245728 0.236308 0.382199 -0.508346
H8    H     H_    0.369975 0.238125 0.371494 0.235753
Ba1   Ba    Ba6+2 0.852670 0.466460 0.522850 1.548532
C6    C     C_3   0.958885 0.692067 0.646551 0.474669
C7    C     C_3   0.973995 0.771014 0.640076 -0.471799
H9    H     H_    0.968356 0.777207 0.599545 0.206872
C8    C     C_3   0.726246 0.301079 0.363389 0.526576
H10   H     H_    0.831386 0.325716 0.381999 0.067290
C9    C     C_3   0.687929 0.334859 0.312998 -0.076786
H11   H     H_    0.706221 0.391904 0.322798 0.122074
P4    P     P_3+3 0.104900 0.441570 0.388420 0.471987
O12   O     O_2   0.274960 0.462520 0.381280 -0.325663
O13   O     O_3   0.042980 0.462530 0.441480 -0.402575
O14   O     O_3   0.523340 0.590550 0.413420 -0.378091
O15   O     O_3   0.124639 0.349927 0.368958 -0.611903
P5    P     P_3+3 0.094161 0.722612 0.447449 0.449472
O16   O     O_3   0.635780 0.584660 0.526290 -0.358386
O17   O     O_3   0.116060 0.626590 0.438450 -0.359441
O18   O     O_2   0.257529 0.747605 0.466106 -0.407755
O19   O     O_3   0.077716 0.753428 0.388342 -0.515421
Ba2   Ba    Ba6+2 0.337150 0.533490 0.477140 1.533858
P6    P     P_3+3 0.661374 0.430815 0.650806 0.495847
C10   C     C_3   0.552847 0.308242 0.649745 0.490127
H12   H     H_    0.475480 0.202963 0.651928 0.211136
O20   O     O_3   0.553920 0.415280 0.473710 -0.355002
C11   C     C_3   0.409691 0.681465 0.631891 0.431263
H13   H     H_    0.332055 0.722823 0.614297 0.109846
C12   C     C_3   0.416542 0.702930 0.688400 -1.071359
H14   H     H_    0.295297 0.711041 0.702782 0.250033
H15   H     H_    0.484601 0.660763 0.707652 0.277544
H16   H     H_    0.473853 0.753470 0.697517 0.259397
P7    P     P_3+3 0.561840 0.672499 0.549180 0.416532
O21   O     O_2   0.383540 0.672140 0.526840 -0.371159
O22   O     O_3   0.563998 0.673769 0.614605 -0.593367
C13   C     C_3   0.921233 0.752462 0.367308 0.685553
H17   H     H_    0.843050 0.722906 0.387715 -0.060895
C14   C     C_3   0.932190 0.714017 0.314232 -0.822662
H18   H     H_    0.997211 0.660754 0.315648 0.251556
H19   H     H_    0.811871 0.707660 0.296622 0.199814
P8    P     P_3+3 0.537610 0.577108 0.347362 0.454324
C15   C     C_3   0.460976 0.710124 0.345085 0.476585
H20   H     H_    0.592267 0.711077 0.346560 -0.033710
O23   O     O_2   0.460586 0.507718 0.328435 -0.396212
O24   O     O_3   0.412442 0.644139 0.322862 -0.495676
H21   H     H_    0.427420 0.820956 0.332362 0.215642
C16   C     C_3   0.392458 0.768570 0.314272 -0.982408
H22   H     H_    0.260936 0.770272 0.311758 0.290890
C17   C     C_R   0.065510 0.468286 0.179744 0.516664
O25   O     O_2   0.078689 0.413228 0.199283 -0.627211
N1    N     N_R   0.001389 0.530982 0.206372 -0.153550
C18   C     C_R   0.008009 0.594430 0.186009 0.525109
C19   C     C_2   0.786744 0.556552 0.269724 0.101292
C20   C     C_3   0.749945 0.566787 0.326316 0.076281
C21   C     C_1   0.989785 0.489549 0.341047 0.301018
C22   C     C_2   0.046869 0.499897 0.297257 -0.212814
C23   C     C_2   0.939937 0.530709 0.256959 0.085914
C24   C     C_R   0.110025 0.530712 0.107615 -0.073952
C25   C     C_R   0.117602 0.467208 0.130040 -0.049003
C26   C     C_R   0.175754 0.403643 0.102103 -0.104594
C27   C     C_R   0.056405 0.594835 0.136183 -0.052674
C28   C     C_2   0.843295 0.510922 0.353395 -0.434839
H23   H     H_    0.182137 0.353617 0.117966 0.159219
C29   C     C_2   0.358241 0.492169 0.641805 -0.398550
C30   C     C_R   0.271058 0.465941 0.979054 0.010268
C31   C     C_R   0.182789 0.593425 0.982852 0.050800
C32   C     C_R   0.247628 0.529066 0.955380 0.082345
C33   C     C_R   0.346839 0.404907 0.951750 -0.258656
C34   C     C_R   0.391665 0.403139 0.901775 0.246317
C35   C     C_R   0.358964 0.465051 0.876287 -0.126699
C36   C     C_R   0.288319 0.527990 0.903790 -0.089011
C37   C     C_R   0.257687 0.590394 0.879762 -0.032220
C38   C     C_R   0.289433 0.589133 0.828379 0.496187
N2    N     N_R   0.349342 0.527057 0.800861 -0.158487
C39   C     C_R   0.391731 0.466793 0.824465 0.517644
C40   C     C_2   0.502516 0.518421 0.725319 -0.262019
C41   C     C_3   0.516239 0.507802 0.668785 0.202722
C42   C     C_1   0.222978 0.519938 0.661298 0.200341
C43   C     C_2   0.211812 0.520065 0.711722 0.007978
C44   C     C_2   0.359413 0.523585 0.746194 0.198240
O26   O     O_2   0.454056 0.414336 0.799696 -0.586172
C45   C     C_R   0.219460 0.465681 0.029307 0.059010
C46   C     C_R   0.158420 0.530332 0.056958 0.082086
C47   C     C_R   0.145280 0.594699 0.034507 0.040606
C48   C     C_R   0.224863 0.402707 0.053064 -0.210831
H24   H     H_    0.375422 0.356849 0.968988 0.126119
O27   O     O_2   0.972193 0.651002 0.211273 -0.624251
C49   C     C_R   0.052547 0.658432 0.114448 -0.094822
H25   H     H_    0.014464 0.708967 0.135642 0.161839
C50   C     C_R   0.155233 0.654464 0.957282 -0.210770
C51   C     C_R   0.191617 0.652841 0.907153 -0.099242
O28   O     O_2   0.261333 0.643174 0.807821 -0.612955
C52   C     C_R   0.095139 0.658473 0.064903 -0.208742
H26   H     H_    0.100932 0.704481 0.974537 0.124688
H27   H     H_    0.089972 0.710065 0.051868 0.123984
H28   H     H_    0.356978 0.458742 0.605876 0.153050
N3    N     N_R   0.608939 0.978484 0.558799 -0.075105
N4    N     N_R   0.559329 0.047253 0.560759 -0.083159
C53   C     C_2   0.407689 0.304604 0.521176 -0.406211
C54   C     C_3   0.332825 0.260965 0.555848 0.096963
C55   C     C_2   0.387523 0.182767 0.547272 -0.278949
C56   C     C_2   0.527938 0.161595 0.525677 0.050409
C57   C     C_2   0.614877 0.216496 0.505525 -0.312041
C58   C     C_1   0.542200 0.280364 0.499072 0.326138
N5    N     N_R   0.685728 0.053154 0.486241 -0.078354
N6    N     N_R   0.734190 0.983701 0.484151 -0.083011
C59   C     C_R   0.693875 0.944389 0.520067 0.141313
C60   C     C_R   0.594699 0.086000 0.524280 0.158219
C61   C     C_R   0.636497 0.817380 0.534078 0.083945
C62   C     C_R   0.688415 0.743220 0.531024 0.132210
C63   C     C_R   0.932687 0.764931 0.490837 0.226306
C64   C     C_R   0.884167 0.837882 0.494965 -0.374948
C65   C     C_R   0.738912 0.865550 0.517096 0.002880
C66   C     C_R   0.843903 0.720610 0.514139 -0.266428
H29   H     H_    0.742510 0.206573 0.502708 0.194106
H30   H     H_    0.956852 0.872840 0.478996 0.172230
H31   H     H_    0.365187 0.360472 0.522421 0.160279
H32   H     H_    0.618528 0.288308 0.615190 0.114888
C67   C     C_3   0.240566 0.177363 0.415824 -0.298814
C68   C     C_3   0.307394 0.105402 0.389994 -0.897635
H33   H     H_    0.233771 0.089560 0.355671 0.261176
H34   H     H_    0.432062 0.107773 0.379455 0.262757
H35   H     H_    0.305644 0.064321 0.416009 0.256156
H36   H     H_    0.311232 0.190669 0.450712 0.226645
H37   H     H_    0.116341 0.172674 0.425339 0.235451
H38   H     H_    0.173360 0.222288 0.347201 0.221223
C69   C     C_3   0.982507 0.682457 0.703117 -0.351570
C70   C     C_3   0.827863 0.669359 0.726300 -0.974205
H39   H     H_    0.771053 0.624610 0.703999 0.270305
H40   H     H_    0.852960 0.656309 0.765281 0.268724
H41   H     H_    0.743847 0.717892 0.727742 0.272165
H42   H     H_    0.073226 0.639314 0.708603 0.205146
H43   H     H_    0.030536 0.729396 0.725652 0.200250
H44   H     H_    0.840816 0.677669 0.631563 0.161556
C71   C     C_3   0.846369 0.823402 0.666204 -0.306420
C72   C     C_3   0.866900 0.899640 0.656811 -0.879495
H45   H     H_    0.984544 0.915529 0.672344 0.259529
H46   H     H_    0.858722 0.904387 0.615986 0.271772
H47   H     H_    0.772420 0.936588 0.675610 0.248220
H48   H     H_    0.727850 0.808332 0.651909 0.222846
H49   H     H_    0.853860 0.821781 0.707418 0.214173
H50   H     H_    0.093374 0.785992 0.654727 0.195752
C73   C     C_3   0.769749 0.219329 0.352234 -0.428640
C74   C     C_3   0.768392 0.178012 0.396943 -0.863561
H51   H     H_    0.848143 0.200572 0.427390 0.274287
H52   H     H_    0.645044 0.179261 0.409346 0.266010
H53   H     H_    0.812196 0.121523 0.385976 0.242987
H54   H     H_    0.688740 0.194770 0.322903 0.207601
H55   H     H_    0.891578 0.210057 0.337614 0.165578
C75   C     C_3   0.509850 0.335590 0.293521 -0.100433
C76   C     C_3   0.456452 0.265720 0.265956 -0.957060
H56   H     H_    0.533320 0.244756 0.234260 0.263937
H57   H     H_    0.453188 0.224818 0.291666 0.250053
H58   H     H_    0.333361 0.275763 0.250210 0.267657
H59   H     H_    0.428621 0.353798 0.324607 0.233099
H60   H     H_    0.486901 0.376719 0.267399 0.180862
C77   C     C_3   0.808130 0.306744 0.271603 -0.393643
C78   C     C_3   0.785560 0.346183 0.225241 -0.793624
H61   H     H_    0.667842 0.339180 0.205988 0.243372
H62   H     H_    0.797804 0.403529 0.236244 0.276871
H63   H     H_    0.877132 0.324085 0.197980 0.276656
H64   H     H_    0.931026 0.312837 0.287401 0.218391
H65   H     H_    0.799457 0.249304 0.259037 0.201933
H66   H     H_    0.433708 0.334333 0.640279 0.002668
H67   H     H_    0.360913 0.629476 0.623761 0.136628
H68   H     H_    0.089263 0.233734 0.723701 0.218831
C79   C     C_3   0.840542 0.828838 0.366026 -0.422056
C80   C     C_3   0.954023 0.882946 0.355150 -0.788491
H69   H     H_    0.886516 0.935782 0.353860 0.232879
H70   H     H_    0.048677 0.888510 0.385284 0.265846
H71   H     H_    0.009444 0.866702 0.318406 0.247085
H72   H     H_    0.740743 0.828536 0.337356 0.180911
H73   H     H_    0.785500 0.847677 0.402363 0.175412
H74   H     H_    0.998082 0.744116 0.290432 0.268793
H75   H     H_    0.417574 0.721971 0.383825 0.151833
H76   H     H_    0.438677 0.758533 0.275778 0.249013
H77   H     H_    0.169584 0.482143 0.288987 0.191166
H78   H     H_    0.610126 0.521130 0.749182 0.145478
C81   C     C_3   0.471911 0.332734 0.878019 -0.290046
C82   C     C_3   0.352602 0.288102 0.846657 -0.825495
H79   H     H_    0.290661 0.317420 0.817025 0.275295
H80   H     H_    0.415851 0.238458 0.828401 0.242607
H81   H     H_    0.261955 0.273466 0.871263 0.236333
H82   H     H_    0.575111 0.340691 0.856027 0.227334
H83   H     H_    0.525637 0.300557 0.907505 0.151999
H84   H     H_    0.262865 0.350865 0.034428 0.123242
C83   C     C_3   0.660910 0.579724 0.231032 -0.309152
C84   C     C_3   0.572518 0.517323 0.206141 -0.883161
H85   H     H_    0.524743 0.488396 0.234687 0.280735
H86   H     H_    0.471397 0.537354 0.182115 0.255629
H87   H     H_    0.653721 0.480114 0.181930 0.248598
H88   H     H_    0.574670 0.621441 0.248843 0.219655
H89   H     H_    0.710865 0.604639 0.201007 0.206871
H90   H     H_    0.165718 0.701280 0.889611 0.164431
C85   C     C_3   0.058805 0.510673 0.735876 -0.344503
C86   C     C_3   0.049992 0.433746 0.746252 -0.741418
H91   H     H_    0.079784 0.396167 0.712398 0.263487
H92   H     H_    0.133484 0.420446 0.777416 0.228036
H93   H     H_    0.928180 0.426577 0.757445 0.257364
H94   H     H_    0.047572 0.545523 0.771971 0.181216
H95   H     H_    0.956665 0.529996 0.713067 0.239168
H96   H     H_    0.784623 0.484061 0.379877 0.149829
H97   H     H_    0.320337 0.144983 0.562659 0.142269
C87   C     C_3   0.467474 0.843457 0.549408 -0.298723
C88   C     C_3   0.452936 0.866330 0.605705 -0.944891
H98   H     H_    0.472574 0.819675 0.626544 0.254428
H99   H     H_    0.539413 0.904513 0.620762 0.282544
H100  H     H_    0.330954 0.891470 0.613052 0.255055
H101  H     H_    0.418146 0.887319 0.527871 0.187754
H102  H     H_    0.386017 0.801793 0.539285 0.233209
C89   C     C_3   0.900338 0.643956 0.509610 -0.200050
C90   C     C_3   0.824171 0.610571 0.459806 -0.517181
H103  H     H_    0.706547 0.638221 0.457899 0.212133
H104  H     H_    0.863306 0.623367 0.424016 0.158228
H105  H     H_    0.818658 0.552895 0.457556 0.253750
H106  H     H_    0.030287 0.635843 0.514594 0.239859
H107  H     H_    0.871946 0.620976 0.543100 0.212786
H108  H     H_    0.284376 0.335767 0.428999 0.109027

loop_
_geom_bond_atom_site_label_1
_geom_bond_atom_site_label_2
_geom_bond_distance
_ccdc_geom_bond_type
C63   C66   1.397988 A    
C81   C82   1.529077 S    
O19   C13   1.411082 S    
C61   C65   1.442345 A    
C34   C35   1.430078 A    
P6    C41   1.850550 S    
C2    C3    1.519491 S    
C53   C54   1.515768 S    
C89   H106  1.097327 S    
P1    O1    1.551439 D    
C36   C37   1.414752 A    
C61   C87   1.525837 S    
C64   H30   1.082860 S    
C27   C49   1.401372 A    
C43   C85   1.508433 S    
C75   H59   1.108130 S    
C86   H92   1.104506 S    
C38   N2    1.379438 Am   
P7    O21   1.592309 D    
C73   H54   1.104179 S    
C86   H91   1.107917 S    
C63   C64   1.400149 A    
C76   H57   1.103539 S    
C77   C78   1.524562 S    
O4    P6    1.525605 D    
Ba1   Ba2   4.658678 S    
C5    H8    1.105978 S    
C56   C57   1.496028 S    
C25   C26   1.401360 A    
C9    C75   1.566036 S    
C69   H43   1.110801 S    
P4    O12   1.551790 D    
C4    C5    1.538883 S    
C10   H66   1.111143 S    
C88   H100  1.110524 S    
C52   H27   1.076529 S    
C49   C52   1.394662 A    
C9    H11   1.105835 S    
P8    O24   1.748231 S    
C48   H84   1.076199 S    
O17   Ba2   2.708066 S    
C15   O24   1.406978 S    
C45   C46   1.421148 A    
C67   C68   1.525984 S    
N2    C39   1.385175 Am   
C40   C44   1.347285 D    
C90   H103  1.081321 S    
C9    C77   1.554042 S    
C13   C14   1.521282 S    
C2    H3    1.112662 S    
O16   Ba2   2.973740 S    
C78   H61   1.108245 S    
C89   H107  1.092273 S    
P4    O15   1.749108 S    
C14   H19   1.109087 S    
C43   C44   1.515714 S    
C85   H94   1.106608 S    
C79   H72   1.111988 S    
Ba1   O20   2.974577 S    
C74   H53   1.110617 S    
C83   C84   1.524934 S    
C1    H1    1.109860 S    
P3    O11   1.749442 S    
P1    Ba1   3.419898 S    
C69   C70   1.527354 S    
P3    O9    1.540992 D    
O7    Ba1   2.852298 S    
P4    Ba2   3.420420 S    
H21   C16   1.110453 S    
Ba1   O13   2.764694 S    
C30   C32   1.417933 A    
C6    C7    1.547679 S    
C87   H102  1.096126 S    
C15   H75   1.109406 S    
C11   H67   1.097617 S    
C73   H55   1.110198 S    
N5    C60   1.361737 A    
C20   C28   1.500681 S    
C74   H52   1.106270 S    
C83   H88   1.104827 S    
C30   C33   1.410493 A    
C84   H85   1.107598 S    
C3    H5    1.109087 S    
Ba2   O21   2.852299 S    
P5    O17   1.802811 S    
C66   C89   1.481206 S    
C7    C71   1.532069 S    
C57   H29   1.081301 S    
N3    C59   1.355126 A    
C68   H35   1.110585 S    
C83   H89   1.102607 S    
O16   P7    1.772493 S    
N4    C60   1.355039 A    
C87   C88   1.527348 S    
O3    Ba1   2.759249 S    
C50   C51   1.390744 A    
C76   H58   1.110780 S    
P1    C42   1.897236 S    
C12   H15   1.106832 S    
C17   O25   1.219801 D    
C77   H65   1.109139 S    
C67   H36   1.099882 S    
C39   O26   1.218809 D    
C11   H13   1.110940 S    
C72   H47   1.110074 S    
C16   H76   1.110683 S    
P8    O23   1.541804 D    
C15   H20   1.108805 S    
C4    H7    1.103616 S    
C14   H74   1.108304 S    
C68   H34   1.109663 S    
C73   C74   1.513271 S    
O1    Ba1   2.801218 S    
N1    C23   1.478044 S    
C19   C20   1.550407 S    
C32   C36   1.440220 A    
C71   H49   1.108630 S    
C8    H10   1.109429 S    
C13   H17   1.109502 S    
C11   C12   1.520532 S    
C78   H63   1.108923 S    
C8    C9    1.573543 S    
C30   C45   1.438432 A    
C70   H41   1.107565 S    
N1    C18   1.389572 Am   
C80   H71   1.109367 S    
C15   C16   1.519596 S    
C88   H98   1.100257 S    
C59   C65   1.503332 S    
C6    C69   1.551835 S    
C61   C62   1.429163 A    
P2    O10   1.769955 S    
C71   C72   1.526364 S    
P3    C54   1.863338 S    
C82   H81   1.110869 S    
C56   C60   1.489427 S    
C89   C90   1.543303 S    
C5    H38   1.112219 S    
C37   C38   1.414636 A    
C53   H31   1.084944 S    
C14   H18   1.109117 S    
O11   C2    1.404650 S    
C87   H101  1.109669 S    
C10   H32   1.112044 S    
C35   C36   1.422393 A    
C51   H90   1.083737 S    
C69   H42   1.086976 S    
C85   H95   1.093885 S    
C38   O28   1.222644 D    
C4    H108  1.108316 S    
O3    P6    1.723287 S    
C7    H50   1.112134 S    
N3    N4    1.329356 A    
C50   H26   1.076439 S    
O14   Ba2   2.758509 S    
C18   O27   1.218917 D    
C74   H51   1.102821 S    
C84   H86   1.110958 S    
C24   C25   1.407424 A    
C3    H6    1.110561 S    
C55   C56   1.351183 D    
C28   H96   1.087115 S    
P5    O18   1.539888 D    
P2    Ba1   3.454929 S    
P7    C62   1.913481 S    
C29   H28   1.087148 S    
C17   N1    1.389418 Am   
C46   C47   1.420815 A    
C5    C67   1.526635 S    
C75   H60   1.109972 S    
P5    C63   1.893424 S    
N5    N6    1.339319 A    
C70   H40   1.110135 S    
C12   H16   1.109509 S    
C3    H68   1.110659 S    
C79   C80   1.530549 S    
C85   C86   1.529381 S    
C22   H77   1.084448 S    
Ba2   O20   2.756907 S    
O2    Ba1   2.992605 S    
P8    C20   1.891981 S    
C37   C51   1.400376 A    
C21   C28   1.311026 D    
C84   H87   1.110383 S    
C81   H83   1.112180 S    
C47   C52   1.416667 A    
C72   H46   1.108438 S    
C29   C41   1.521442 S    
C79   H73   1.106021 S    
P3    O8    1.739995 S    
C22   C23   1.512216 S    
P4    C21   1.840653 S    
C62   C66   1.421227 A    
C2    H4    1.109290 S    
C29   C42   1.317539 D    
C77   H64   1.111530 S    
C12   H14   1.102750 S    
C6    H44   1.101414 S    
C26   H23   1.083618 S    
O10   C8    1.413700 S    
C24   C27   1.406274 A    
C81   H82   1.108122 S    
O14   P8    1.768024 S    
O2    Ba2   2.765344 S    
C26   C48   1.396915 A    
C90   H105  1.094514 S    
C68   H33   1.110848 S    
O8    Ba1   2.707684 S    
O6    C10   1.395732 S    
P4    O13   1.534688 S    
P2    C58   1.853792 S    
C40   H78   1.086336 S    
C16   H22   1.106675 S    
C88   H99   1.103640 S    
P2    O20   1.550210 S    
C1    C10   1.521353 S    
C80   H69   1.110481 S    
C82   H80   1.110316 S    
P2    O7    1.528053 D    
C33   H24   1.075616 S    
C31   C32   1.425094 A    
C7    H9    1.106455 S    
C35   C39   1.436302 A    
C24   C46   1.437851 A    
C13   C79   1.547670 S    
N2    C44   1.466646 S    
C18   C27   1.418613 A    
Ba1   O16   2.757354 S    
C33   C34   1.407148 A    
C4    O15   1.394897 S    
C90   H104  1.093042 S    
N6    C59   1.363494 A    
C76   H56   1.107692 S    
C49   H25   1.083598 S    
C31   C50   1.413611 A    
C42   C43   1.360731 D    
C34   C81   1.522459 S    
C72   H45   1.110873 S    
C78   H62   1.105447 S    
O13   Ba2   2.993565 S    
P7    O22   1.751990 S    
C19   C83   1.521678 S    
C31   C47   1.434033 A    
C21   C22   1.335231 D    
C75   C76   1.531577 S    
C67   H37   1.105709 S    
O5    C6    1.414423 S    
C11   O22   1.393558 S    
C82   H79   1.108641 S    
C1    H2    1.111043 S    
C19   C23   1.384218 D    
C8    C73   1.557181 S    
C53   C58   1.325344 D    
P1    O5    1.770972 S    
P5    O19   1.751853 S    
C71   H48   1.103418 S    
C64   C65   1.417427 A    
C40   C41   1.514380 S    
C70   H39   1.109669 S    
P1    O2    1.534931 S    
O12   Ba2   2.801661 S    
C55   H97   1.085686 S    
C1    H12   1.107712 S    
C17   C25   1.422372 A    
C86   H93   1.110472 S    
C57   C58   1.334326 D    
O6    P6    1.748790 S    
C54   C55   1.506723 S    
C45   C48   1.418844 A    
C80   H70   1.110564 S    
