data_mof_unit_12713.cif
_audit_creation_date              2012-10-26T20:40:14-0400
_audit_creation_method            fapswitch 2.2
_symmetry_space_group_name_H-M    P1
_symmetry_Int_Tables_number       1
_space_group_crystal_system       triclinic
_cell_length_a                    15.062321
_cell_length_b                    10.78317
_cell_length_c                    9.620789
_cell_angle_alpha                 89.776214
_cell_angle_beta                  89.991017
_cell_angle_gamma                 92.437804
_cell_volume                      1561.17821914

loop_
_atom_site_label
_atom_site_type_symbol
_atom_type_description
_atom_site_fract_x
_atom_site_fract_y
_atom_site_fract_z
_atom_type_partial_charge
C1    C     C_R   0.499145 0.262889 0.500262 0.589567
C2    C     C_R   0.185446 0.504001 0.626567 -0.149735
C3    C     C_R   0.231879 0.503532 0.500095 -0.016983
C4    C     C_R   0.328781 0.500627 0.500028 0.523538
C5    C     C_R   0.185529 0.506238 0.373667 -0.135458
C6    C     C_R   0.349455 0.119438 0.614406 -0.094626
C7    C     C_R   0.277158 0.049873 0.668142 -0.115103
C8    C     C_R   0.277041 0.920954 0.666938 -0.113643
C9    C     C_R   0.349328 0.860960 0.612308 -0.083740
C10   C     C_R   0.424066 0.929631 0.558816 -0.020722
C11   C     C_R   0.424021 0.060513 0.559552 -0.026402
C12   C     C_R   0.907079 0.504860 0.372694 0.012900
C13   C     C_R   0.497065 0.128880 0.500969 -0.031003
C14   C     C_R   0.568591 0.069089 0.441031 0.223513
C15   C     C_R   0.570132 0.940121 0.444432 0.254957
C16   C     C_R   0.500175 0.737144 0.499916 0.550846
C17   C     C_R   0.497601 0.870914 0.500850 -0.019504
C18   C     C_R   0.616398 0.665631 0.142994 -0.121973
C19   C     C_R   0.672511 0.748101 0.071173 -0.131322
C20   C     C_R   0.676390 0.745038 0.927841 0.222906
C21   C     C_R   0.618359 0.664809 0.855607 -0.071489
C22   C     C_R   0.557919 0.581112 0.924848 0.115332
C23   C     C_R   0.953625 0.502365 0.753430 -0.143323
C24   C     C_R   0.557616 0.581077 0.074220 0.137344
C25   C     C_R   0.444961 0.422780 0.074174 0.014281
C26   C     C_R   0.444919 0.422888 0.926409 0.009181
C27   C     C_R   0.671194 0.499919 0.499972 0.565175
C28   C     C_R   0.814588 0.502039 0.373539 -0.120029
C29   C     C_R   0.768101 0.500033 0.499953 0.005560
C30   C     C_R   0.814439 0.499198 0.626380 -0.144815
C31   C     C_R   0.906951 0.501872 0.627374 0.001920
C32   C     C_R   0.953509 0.504479 0.500066 0.059428
C33   C     C_3   0.711072 0.871319 0.471859 0.031608
C34   C     C_R   0.046207 0.504087 0.753482 -0.139297
C35   C     C_3   0.793241 0.841672 0.386560 -0.258056
C36   C     C_3   0.876715 0.835670 0.475026 -0.473150
C37   C     C_3   0.821542 0.786691 0.870496 -0.003761
C38   C     C_3   0.886673 0.898031 0.852300 -0.246478
C39   C     C_3   0.982284 0.857272 0.841145 -0.489846
C40   C     C_R   0.092997 0.505047 0.627471 0.009688
C41   C     C_R   0.046574 0.506011 0.500110 0.060902
C42   C     C_R   0.093099 0.507506 0.372767 0.011200
C43   C     C_R   0.046436 0.509321 0.246729 -0.135667
C44   C     C_R   0.953862 0.508155 0.246697 -0.133694
Cl1   Cl    Cl    0.658049 0.154700 0.361673 -0.574022
Cu1   Cu    Cu3+1 0.499990 0.499990 0.640660 0.928563
Cu2   Cu    Cu3+1 0.500010 0.500010 0.359340 0.975271
H1    H     H_    0.778981 0.502682 0.275598 0.133745
H2    H     H_    0.778696 0.497214 0.724260 0.127509
H3    H     H_    0.399708 0.359590 0.871646 0.109944
H4    H     H_    0.918542 0.501284 0.851827 0.101344
H5    H     H_    0.081170 0.503971 0.851924 0.101470
H6    H     H_    0.221040 0.502671 0.724480 0.123786
H7    H     H_    0.221188 0.506692 0.275738 0.126850
H8    H     H_    0.081499 0.511036 0.148313 0.100324
H9    H     H_    0.918873 0.509272 0.148283 0.101314
H10   H     H_    0.696635 0.794730 0.547392 0.134212
H11   H     H_    0.725687 0.958955 0.530304 0.185394
H12   H     H_    0.345463 0.219326 0.614639 0.121661
H13   H     H_    0.781436 0.750907 0.334507 0.140167
H14   H     H_    0.804699 0.914317 0.305472 0.199190
H15   H     H_    0.894157 0.928235 0.519603 0.156383
H16   H     H_    0.932930 0.807348 0.409319 0.153407
H17   H     H_    0.866592 0.766238 0.559172 0.155497
H18   H     H_    0.833289 0.717032 0.788903 0.133511
H19   H     H_    0.835625 0.743484 0.973437 0.110920
H20   H     H_    0.869542 0.950792 0.757501 0.179551
H21   H     H_    0.881027 0.960854 0.942915 0.176023
H22   H     H_    0.000900 0.805421 0.936049 0.147784
H23   H     H_    0.220591 0.096227 0.709546 0.108193
H24   H     H_    0.028028 0.940199 0.829916 0.147366
H25   H     H_    0.990041 0.797082 0.748859 0.157008
H26   H     H_    0.220375 0.867132 0.707373 0.109843
H27   H     H_    0.345272 0.760694 0.611082 0.138861
H28   H     H_    0.399767 0.359423 0.129426 0.113502
H29   H     H_    0.622142 0.672052 0.252278 0.217506
H30   H     H_    0.714658 0.814392 0.126705 0.164830
H31   H     H_    0.624041 0.672019 0.746029 0.185338
N1    N     N_R   0.500860 0.501210 0.147910 -0.235453
N2    N     N_R   0.500890 0.501290 0.852040 -0.240783
O1    O     O_R   0.499990 0.319640 0.618810 -0.498504
O2    O     O_3   0.733579 0.826469 0.856961 -0.572125
O3    O     O_R   0.500000 0.319660 0.381240 -0.456754
O4    O     O_R   0.370250 0.499960 0.618800 -0.524236
O5    O     O_R   0.370260 0.499980 0.381230 -0.514098
O6    O     O_R   0.500000 0.680340 0.618760 -0.535359
O7    O     O_R   0.500010 0.680360 0.381190 -0.494991
O8    O     O_R   0.629740 0.500020 0.618770 -0.526824
O9    O     O_R   0.629750 0.500040 0.381200 -0.506826
O10   O     O_3   0.638589 0.881135 0.379586 -0.566317

loop_
_geom_bond_atom_site_label_1
_geom_bond_atom_site_label_2
_ccdc_geom_bond_type
C5    C42   A    
C33   H11   S    
C20   O2    S    
C27   C29   S    
C41   C42   A    
C35   C36   S    
Cu2   N1    S    
C7    H23   S    
C7    C8    A    
C37   C38   S    
C12   C28   A    
C34   C40   A    
Cu2   O5    S    
C28   C29   A    
C26   H3    S    
C30   C31   A    
C10   C17   A    
C1    O1    A    
C18   C19   A    
C19   H30   S    
C13   C14   A    
C19   C20   A    
C8    C9    A    
C37   H18   S    
C21   H31   S    
C16   O7    A    
C33   H10   S    
C32   C41   A    
C18   C24   A    
Cu2   O3    S    
C36   H16   S    
C9    C10   A    
C21   C22   A    
C12   C32   A    
C16   O6    A    
Cu2   O9    S    
C36   H15   S    
C14   Cl1   S    
Cu1   O8    S    
C5    H7    S    
C6    C11   A    
C16   C17   S    
C4    O5    A    
C25   C26   A    
C26   N2    A    
C35   H13   S    
C25   H28   S    
Cu2   O7    S    
C43   C44   A    
C29   C30   A    
Cu1   O1    S    
C44   H9    S    
C24   N1    A    
C23   H4    S    
C31   C32   A    
C4    O4    A    
C39   H25   S    
C23   C34   A    
C37   H19   S    
C39   H22   S    
C35   H14   S    
C38   H20   S    
Cu1   O4    S    
C43   H8    S    
C40   C41   A    
C30   H2    S    
C38   H21   S    
C22   C24   A    
C37   O2    S    
C1    C13   S    
C9    H27   S    
C3    C4    S    
C15   C17   A    
Cu1   Cu2   S    
C28   H1    S    
C18   H29   S    
C25   N1    A    
C6    H12   S    
C3    C5    A    
C2    H6    S    
C6    C7    A    
C1    O3    A    
C34   H5    S    
C2    C3    A    
C22   N2    A    
C12   C44   A    
C33   O10   S    
C15   O10   S    
Cu1   N2    S    
C11   C13   A    
C38   C39   S    
C8    H26   S    
C33   C35   S    
C27   O9    A    
C27   O8    A    
C10   C11   A    
C2    C40   A    
C20   C21   A    
C42   C43   A    
C39   H24   S    
C14   C15   A    
C36   H17   S    
C23   C31   A    
Cu1   O6    S    
