data_mof_unit_6957.cif
_audit_creation_date              2012-12-11T14:30:04-0500
_audit_creation_method            fapswitch 2.2
_symmetry_space_group_name_H-M    P1
_symmetry_Int_Tables_number       1
_space_group_crystal_system       triclinic
_cell_length_a                    12.794048
_cell_length_b                    12.794068
_cell_length_c                    26.916537
_cell_angle_alpha                 90.000018
_cell_angle_beta                  90.0
_cell_angle_gamma                 120.000214
_cell_volume                      3815.62345441

loop_
_atom_site_label
_atom_site_type_symbol
_atom_type_description
_atom_site_fract_x
_atom_site_fract_y
_atom_site_fract_z
_atom_type_partial_charge
C1    C     C_R   0.554416 0.456077 0.820951 0.570476
C2    C     C_R   0.901662 0.445584 0.679049 0.570475
C3    C     C_R   0.543922 0.098338 0.820951 0.570476
C4    C     C_R   0.554415 0.456077 0.679049 0.570477
C5    C     C_R   0.901661 0.445584 0.820951 0.570475
C6    C     C_R   0.543922 0.098338 0.679049 0.570477
C7    C     C_R   0.455964 0.561631 0.323306 0.578394
C8    C     C_R   0.438369 0.894334 0.176693 0.578392
C9    C     C_R   0.105666 0.544036 0.323306 0.578392
C10   C     C_R   0.455964 0.561631 0.176694 0.578394
C11   C     C_R   0.438369 0.894334 0.323306 0.578392
C12   C     C_R   0.105666 0.544035 0.176694 0.578391
C13   C     C_R   0.029136 0.536701 0.968015 -0.038768
C14   C     C_R   0.507564 0.970862 0.531985 -0.038766
C15   C     C_R   0.463301 0.492437 0.968015 -0.038771
C16   C     C_R   0.029135 0.536698 0.531985 -0.038771
C17   C     C_R   0.507563 0.970862 0.968015 -0.038767
C18   C     C_R   0.463299 0.492437 0.531985 -0.038768
C19   C     C_R   0.494908 0.959725 0.479605 -0.039036
C20   C     C_R   0.040272 0.535182 0.020396 -0.039037
C21   C     C_R   0.464817 0.505093 0.479605 -0.039038
C22   C     C_R   0.494908 0.959725 0.020395 -0.039037
C23   C     C_R   0.040273 0.535180 0.479604 -0.039039
C24   C     C_R   0.464819 0.505093 0.020396 -0.039040
C25   C     C_R   0.919697 0.645623 0.977756 0.195307
C26   C     C_R   0.725926 0.080303 0.522244 0.195309
C27   C     C_R   0.354383 0.274076 0.977756 0.195317
C28   C     C_R   0.919693 0.645617 0.522244 0.195314
C29   C     C_R   0.725925 0.080305 0.977756 0.195314
C30   C     C_R   0.354384 0.274076 0.522244 0.195318
C31   C     C_R   0.713476 0.061248 0.470515 0.200378
C32   C     C_R   0.938753 0.652230 0.029485 0.200377
C33   C     C_R   0.347772 0.286525 0.470515 0.200382
C34   C     C_R   0.713476 0.061246 0.029485 0.200380
C35   C     C_R   0.938751 0.652226 0.470515 0.200381
C36   C     C_R   0.347772 0.286525 0.029485 0.200382
C37   C     C_R   0.954151 0.584858 0.894007 0.141776
C38   C     C_R   0.630707 0.045847 0.605994 0.141777
C39   C     C_R   0.415144 0.369293 0.894007 0.141778
C40   C     C_R   0.954150 0.584856 0.605993 0.141777
C41   C     C_R   0.630707 0.045849 0.894007 0.141778
C42   C     C_R   0.415143 0.369293 0.605993 0.141779
C43   C     C_R   0.579317 0.000936 0.395190 0.171337
C44   C     C_R   0.999064 0.578382 0.104811 0.171335
C45   C     C_R   0.421617 0.420684 0.395190 0.171335
C46   C     C_R   0.579318 0.000934 0.104810 0.171335
C47   C     C_R   0.999064 0.578381 0.395190 0.171335
C48   C     C_R   0.421618 0.420683 0.104810 0.171334
C49   C     C_R   0.063354 0.524956 0.124202 0.012359
C50   C     C_R   0.461601 0.936644 0.375798 0.012360
C51   C     C_R   0.475043 0.538399 0.124202 0.012360
C52   C     C_R   0.063355 0.524956 0.375798 0.012360
C53   C     C_R   0.461601 0.936644 0.124202 0.012358
C54   C     C_R   0.475043 0.538400 0.375798 0.012360
C55   C     C_R   0.527973 0.027394 0.633175 0.015071
C56   C     C_R   0.972605 0.500579 0.866825 0.015069
C57   C     C_R   0.499421 0.472026 0.633175 0.015070
C58   C     C_R   0.527973 0.027394 0.866825 0.015070
C59   C     C_R   0.972605 0.500578 0.633175 0.015068
C60   C     C_R   0.499422 0.472027 0.866825 0.015067
C61   C     C_R   0.967036 0.590278 0.946371 -0.037025
C62   C     C_R   0.623241 0.032962 0.553630 -0.037024
C63   C     C_R   0.409726 0.376760 0.946371 -0.037022
C64   C     C_R   0.967035 0.590274 0.553629 -0.037024
C65   C     C_R   0.623240 0.032963 0.946370 -0.037022
C66   C     C_R   0.409725 0.376760 0.553629 -0.037021
C67   C     C_R   0.597799 0.009485 0.447860 -0.030338
C68   C     C_R   0.990514 0.588314 0.052140 -0.030339
C69   C     C_R   0.411686 0.402202 0.447860 -0.030341
C70   C     C_R   0.597799 0.009484 0.052139 -0.030340
C71   C     C_R   0.990514 0.588312 0.447860 -0.030340
C72   C     C_R   0.411687 0.402202 0.052140 -0.030340
C73   C     C_R   0.049852 0.463541 0.886399 0.158506
C74   C     C_R   0.413687 0.950145 0.613601 0.158508
C75   C     C_R   0.536462 0.586313 0.886399 0.158503
C76   C     C_R   0.049852 0.463539 0.613601 0.158503
C77   C     C_R   0.413687 0.950146 0.886399 0.158506
C78   C     C_R   0.536459 0.586313 0.613601 0.158506
C79   C     C_R   0.361845 0.900843 0.408054 0.114394
C80   C     C_R   0.099154 0.461001 0.091946 0.114395
C81   C     C_R   0.538997 0.638156 0.408055 0.114394
C82   C     C_R   0.361845 0.900844 0.091946 0.114395
C83   C     C_R   0.099155 0.461000 0.408054 0.114395
C84   C     C_R   0.538998 0.638154 0.091946 0.114393
C85   C     C_R   0.080134 0.483398 0.937078 0.040761
C86   C     C_R   0.403262 0.919863 0.562922 0.040763
C87   C     C_R   0.516606 0.596739 0.937078 0.040758
C88   C     C_R   0.080133 0.483394 0.562922 0.040759
C89   C     C_R   0.403261 0.919864 0.937078 0.040762
C90   C     C_R   0.516602 0.596739 0.562923 0.040761
C91   C     C_R   0.377788 0.901320 0.459286 0.033360
C92   C     C_R   0.098677 0.476467 0.040714 0.033358
C93   C     C_R   0.523532 0.622213 0.459287 0.033359
C94   C     C_R   0.377788 0.901321 0.040714 0.033359
C95   C     C_R   0.098677 0.476465 0.459286 0.033357
C96   C     C_R   0.523533 0.622212 0.040714 0.033356
C97   C     C_R   0.157654 0.434937 0.009290 -0.068945
C98   C     C_R   0.277280 0.842343 0.490710 -0.068944
C99   C     C_R   0.565065 0.722719 0.009290 -0.068947
C100  C     C_R   0.157653 0.434933 0.490710 -0.068946
C101  C     C_R   0.277280 0.842345 0.009290 -0.068944
C102  C     C_R   0.565064 0.722720 0.490710 -0.068945
C103  C     C_R   0.289794 0.848617 0.541631 -0.061543
C104  C     C_R   0.151380 0.441177 0.958369 -0.061544
C105  C     C_R   0.558825 0.710206 0.541631 -0.061544
C106  C     C_R   0.289793 0.848618 0.958369 -0.061544
C107  C     C_R   0.151379 0.441173 0.541631 -0.061545
C108  C     C_R   0.558827 0.710206 0.958369 -0.061545
Cr1   Cr    Cr6+3 0.487630 0.241180 0.750000 1.204140
Cr2   Cr    Cr6+3 0.753550 0.512370 0.750000 1.204140
Cr3   Cr    Cr6+3 0.758820 0.246450 0.750000 1.204139
Cr4   Cr    Cr6+3 0.241180 0.487630 0.250000 1.198783
Cr5   Cr    Cr6+3 0.512370 0.753550 0.250000 1.198784
Cr6   Cr    Cr6+3 0.246450 0.758820 0.250000 1.198783
H1    H     H_    0.208494 0.395581 0.023553 0.158042
H2    H     H_    0.187084 0.791503 0.476447 0.158041
H3    H     H_    0.604420 0.812915 0.023553 0.158042
H4    H     H_    0.208492 0.395577 0.476447 0.158043
H5    H     H_    0.187084 0.791506 0.023553 0.158042
H6    H     H_    0.604421 0.812916 0.476448 0.158042
H7    H     H_    0.208437 0.804266 0.563673 0.181855
H8    H     H_    0.195732 0.404171 0.936327 0.181855
H9    H     H_    0.595832 0.791563 0.563674 0.181856
H10   H     H_    0.208436 0.804268 0.936327 0.181856
H11   H     H_    0.195729 0.404166 0.563673 0.181856
H12   H     H_    0.595834 0.791563 0.936327 0.181856
O1    O     O_R   0.460870 0.120930 0.805240 -0.429116
O2    O     O_R   0.660060 0.539130 0.694760 -0.429115
O3    O     O_R   0.879070 0.339940 0.805240 -0.429115
O4    O     O_R   0.460870 0.120930 0.694760 -0.429115
O5    O     O_R   0.660060 0.539130 0.805240 -0.429117
O6    O     O_R   0.879070 0.339940 0.694760 -0.429117
O7    O     O_R   0.120930 0.460870 0.305240 -0.439236
O8    O     O_R   0.539130 0.660060 0.194760 -0.439236
O9    O     O_R   0.339940 0.879070 0.305240 -0.439235
O10   O     O_R   0.120930 0.460870 0.194760 -0.439236
O11   O     O_R   0.539130 0.660060 0.305240 -0.439236
O12   O     O_R   0.339940 0.879070 0.194760 -0.439235
O13   O     O_R   0.498910 0.350470 0.801870 -0.474637
O14   O     O_R   0.851560 0.501090 0.698130 -0.474636
O15   O     O_R   0.649530 0.148440 0.801870 -0.474638
O16   O     O_R   0.498910 0.350470 0.698130 -0.474637
O17   O     O_R   0.851560 0.501090 0.801870 -0.474638
O18   O     O_R   0.649530 0.148440 0.698130 -0.474638
O19   O     O_R   0.350470 0.498910 0.301870 -0.461745
O20   O     O_R   0.501090 0.851560 0.198130 -0.461745
O21   O     O_R   0.148440 0.649530 0.301870 -0.461745
O22   O     O_R   0.350470 0.498910 0.198130 -0.461745
O23   O     O_R   0.501090 0.851560 0.301870 -0.461745
O24   O     O_R   0.148440 0.649530 0.198130 -0.461745
O25   O     O_3   0.666667 0.333333 0.750000 -0.336347
O26   O     O_3   0.333333 0.666667 0.250000 -0.351259
Br1   Br    Br    0.899489 0.601752 0.152585 -0.251451
Br2   Br    Br    0.702261 0.100513 0.347415 -0.251451
Br3   Br    Br    0.398247 0.297738 0.152584 -0.251451
Br4   Br    Br    0.899489 0.601750 0.347415 -0.251450
Br5   Br    Br    0.702264 0.100508 0.152584 -0.251449
Br6   Br    Br    0.398248 0.297739 0.347416 -0.251449
Br7   Br    Br    0.759320 0.042010 0.642752 -0.216326
Br8   Br    Br    0.957987 0.717309 0.857248 -0.216326
Br9   Br    Br    0.282693 0.240673 0.642749 -0.216326
Br10  Br    Br    0.759323 0.042015 0.857249 -0.216325
Br11  Br    Br    0.957984 0.717307 0.642750 -0.216326
Br12  Br    Br    0.282693 0.240675 0.857250 -0.216326
Br13  Br    Br    0.915356 0.771373 0.064285 -0.171091
Br14  Br    Br    0.856019 0.084650 0.435715 -0.171096
Br15  Br    Br    0.228628 0.143982 0.064283 -0.171089
Br16  Br    Br    0.915350 0.771367 0.435716 -0.171094
Br17  Br    Br    0.856019 0.084645 0.064283 -0.171091
Br18  Br    Br    0.228629 0.143982 0.435717 -0.171091
Br19  Br    Br    0.885842 0.190384 0.546173 -0.332545
Br20  Br    Br    0.809620 0.695462 0.953828 -0.332538
Br21  Br    Br    0.304576 0.114169 0.546170 -0.332576
Br22  Br    Br    0.885836 0.190396 0.953828 -0.332561
Br23  Br    Br    0.809602 0.695436 0.546171 -0.332564
Br24  Br    Br    0.304571 0.114168 0.953830 -0.332572
Br25  Br    Br    0.128935 0.334521 0.115424 -0.301398
Br26  Br    Br    0.205585 0.871062 0.384576 -0.301399
Br27  Br    Br    0.665478 0.794415 0.115425 -0.301401
Br28  Br    Br    0.128937 0.334522 0.384575 -0.301401
Br29  Br    Br    0.205585 0.871064 0.115425 -0.301399
Br30  Br    Br    0.665477 0.794417 0.384576 -0.301403
Br31  Br    Br    0.274944 0.883974 0.657069 -0.305659
Br32  Br    Br    0.116025 0.390970 0.842931 -0.305660
Br33  Br    Br    0.609029 0.725055 0.657070 -0.305659
Br34  Br    Br    0.274944 0.883973 0.842930 -0.305659
Br35  Br    Br    0.116024 0.390968 0.657069 -0.305661
Br36  Br    Br    0.609034 0.725056 0.842931 -0.305657

loop_
_geom_bond_atom_site_label_1
_geom_bond_atom_site_label_2
_ccdc_geom_bond_type
C44   C49   A    
C80   C92   A    
C82   C94   A    
C86   C103  A    
C84   Br27  S    
C18   C21   A    
C5    C56   S    
C75   Br36  S    
C3    O15   A    
Cr6   O26   S    
C29   Br22  S    
C6    O4    A    
C50   C79   A    
C12   C49   S    
C42   Br9   S    
C78   C90   A    
C31   C67   A    
C99   C108  A    
C20   C92   A    
C82   Br29  S    
C77   C89   A    
C83   Br28  S    
C44   Br1   S    
C37   Br8   S    
Cr1   O25   S    
C48   C72   A    
C41   C58   A    
C38   C62   A    
C11   O9    A    
C24   C96   A    
Cr4   O7    S    
C4    O16   A    
C3    O1    A    
C5    O17   A    
C104  H8    S    
C47   Br4   S    
C33   Br18  S    
C98   C103  A    
C14   C62   A    
C96   C99   A    
Cr6   O21   S    
Cr4   O19   S    
C105  H9    S    
C102  C105  A    
C8    O12   A    
C84   C96   A    
C58   C77   A    
C55   C74   A    
Cr1   O1    S    
C48   C51   A    
C38   C55   A    
C28   C35   A    
C89   C106  A    
C2    O6    A    
Cr6   O9    S    
Cr4   O26   S    
C19   C67   A    
Cr1   O16   S    
C76   Br35  S    
C97   H1    S    
C43   Br2   S    
C34   C70   A    
C30   Br21  S    
C79   C91   A    
C1    O13   A    
C33   C69   A    
C32   C68   A    
C25   C32   A    
C5    O3    A    
C35   C71   A    
C26   C31   A    
C37   C56   A    
C40   C59   A    
C41   Br10  S    
C77   Br34  S    
C22   C94   A    
Cr5   O26   S    
C9    C52   S    
C81   Br30  S    
Cr4   O10   S    
C6    C55   S    
C10   C51   S    
C14   C19   A    
C42   C57   A    
C11   O23   A    
C92   C97   A    
C16   C88   A    
C87   C108  A    
C45   C69   A    
C101  H5    S    
C12   O24   A    
C17   C89   A    
C14   C86   A    
C40   Br11  S    
Cr2   O25   S    
C1    C60   S    
C7    O11   A    
C88   C107  A    
C4    O2    A    
C2    C59   S    
C41   C65   A    
C74   Br31  S    
C46   Br5   S    
C29   C34   A    
C9    O21   A    
C36   Br15  S    
Cr4   O22   S    
C21   C69   A    
C53   C82   A    
C18   C90   A    
Cr5   O20   S    
C27   Br24  S    
C52   C83   A    
C20   C68   A    
Cr5   O23   S    
C99   H3    S    
C81   C93   A    
C98   H2    S    
C31   Br14  S    
C38   Br7   S    
C83   C95   A    
C35   Br16  S    
C79   Br26  S    
Cr2   O5    S    
C28   Br23  S    
C78   Br33  S    
C25   C61   A    
C74   C86   A    
C85   C104  A    
C47   C71   A    
C30   C66   A    
C34   Br17  S    
C27   C63   A    
Cr3   O18   S    
C29   C65   A    
C28   C64   A    
C25   Br20  S    
C75   C87   A    
C15   C24   A    
C48   Br3   S    
C26   Br19  S    
C16   C23   A    
C107  H11   S    
Cr5   O8    S    
Cr2   O2    S    
Cr5   O11   S    
C44   C68   A    
C100  H4    S    
Cr6   O24   S    
C106  H10   S    
C103  H7    S    
Cr3   O3    S    
C102  H6    S    
C24   C72   A    
C15   C87   A    
C73   C85   A    
C101  C106  A    
C73   Br32  S    
C76   C88   A    
C100  C107  A    
C56   C73   A    
C94   C101  A    
C30   C33   A    
C95   C100  A    
C93   C102  A    
C57   C78   A    
C13   C20   A    
C8    O20   A    
C45   Br6   S    
C10   O8    A    
C90   C105  A    
C1    O5    A    
Cr3   O25   S    
C8    C53   S    
C45   C54   A    
C37   C61   A    
C43   C50   A    
C47   C52   A    
C27   C36   A    
C18   C66   A    
C39   C63   A    
C60   C75   A    
C17   C65   A    
C17   C22   A    
C40   C64   A    
C49   C80   A    
Cr1   O13   S    
C2    O14   A    
C80   Br25  S    
Cr2   O14   S    
C26   C62   A    
C11   C50   S    
C21   C93   A    
C39   C60   A    
C59   C76   A    
C46   C53   A    
C23   C95   A    
Cr6   O12   S    
C91   C98   A    
Cr2   O17   S    
C46   C70   A    
C97   C104  A    
C19   C91   A    
Cr3   O15   S    
C3    C58   S    
Cr3   O6    S    
C13   C61   A    
C23   C71   A    
C43   C67   A    
C12   O10   A    
C13   C85   A    
Cr1   O4    S    
C42   C66   A    
C15   C63   A    
C16   C64   A    
C7    C54   S    
C108  H12   S    
C39   Br12  S    
C32   Br13  S    
C6    O18   A    
C51   C84   A    
C22   C70   A    
C54   C81   A    
C36   C72   A    
C4    C57   S    
C10   O22   A    
C7    O19   A    
C9    O7    A    
