data_mof_unit_8894.cif
_audit_creation_date              2012-12-10T18:43:06-0500
_audit_creation_method            fapswitch 2.2
_symmetry_space_group_name_H-M    P1
_symmetry_Int_Tables_number       1
_space_group_crystal_system       triclinic
_cell_length_a                    8.694518
_cell_length_b                    19.398654
_cell_length_c                    18.288426
_cell_angle_alpha                 90.060692
_cell_angle_beta                  97.6328
_cell_angle_gamma                 90.360154
_cell_volume                      3057.16529585

loop_
_atom_site_label
_atom_site_type_symbol
_atom_type_description
_atom_site_fract_x
_atom_site_fract_y
_atom_site_fract_z
_atom_type_partial_charge
C1    C     C_R   0.499943 0.367610 0.499976 0.779140
C2    C     C_R   0.500233 0.632403 0.500007 0.787677
C3    C     C_R   0.633143 0.962972 0.527612 -0.226333
C4    C     C_R   0.369292 0.037090 0.471308 -0.226169
C5    C     C_R   0.638812 0.034794 0.527621 0.290323
C6    C     C_R   0.363632 0.965272 0.471292 0.290683
C7    C     C_R   0.505763 0.072151 0.499540 -0.045105
C8    C     C_R   0.496630 0.927917 0.499434 -0.045015
C9    C     C_R   0.406389 0.456317 0.717023 0.548402
C10   C     C_R   0.625111 0.527047 0.286893 0.546880
C11   C     C_R   0.411649 0.456711 0.794656 -0.312980
C12   C     C_R   0.636823 0.517124 0.211044 -0.321054
C13   C     C_R   0.514239 0.499784 0.840366 0.111047
C14   C     C_R   0.511718 0.490966 0.163200 0.099346
C15   C     C_R   0.599730 0.546856 0.802794 -0.382069
C16   C     C_R   0.377867 0.472558 0.193059 -0.463827
C17   C     C_R   0.597863 0.544439 0.725487 0.556560
C18   C     C_R   0.377506 0.471445 0.270466 0.584135
C19   C     C_R   0.571502 0.552351 0.972495 0.337952
C20   C     C_R   0.512786 0.427623 0.039526 0.285187
C21   C     C_R   0.539925 0.552671 0.045882 0.316945
C22   C     C_R   0.502208 0.431347 0.960934 0.323436
C23   C     C_R   0.203833 0.500053 0.481115 0.866182
C24   C     C_R   0.795962 0.502109 0.518625 0.892906
C25   C     C_R   0.514767 0.489844 0.081388 -0.174217
C26   C     C_R   0.526624 0.495218 0.925114 -0.172780
C27   C     C_2   0.037955 0.498092 0.470511 -0.348351
C28   C     C_2   0.961260 0.507943 0.527918 -0.400105
C29   C     C_R   0.479270 0.744306 0.432847 -0.193345
C30   C     C_R   0.522814 0.255560 0.566820 -0.176140
C31   C     C_R   0.477475 0.816075 0.432729 -0.094861
C32   C     C_R   0.525235 0.183794 0.566655 -0.096810
C33   C     C_R   0.496235 0.852419 0.499534 0.161890
C34   C     C_R   0.505898 0.147651 0.499705 0.160348
C35   C     C_R   0.518896 0.816647 0.566511 -0.152344
C36   C     C_R   0.482028 0.183619 0.432865 -0.146812
C37   C     C_R   0.519929 0.744845 0.566774 -0.178124
C38   C     C_R   0.480281 0.255402 0.432891 -0.192077
C39   C     C_R   0.499857 0.708091 0.499908 -0.035090
C40   C     C_R   0.500881 0.291946 0.499900 -0.033243
Cu1   Cu    Cu3+1 0.499960 0.500000 0.573360 0.996492
Cu2   Cu    Cu3+1 0.500040 0.500000 0.426640 1.002610
H1    H     H_    0.979071 0.486717 0.415574 0.205802
H2    H     H_    0.020750 0.520723 0.582079 0.143872
H3    H     H_    0.670797 0.586014 0.830724 0.201186
H4    H     H_    0.276660 0.456280 0.156187 0.158468
H5    H     H_    0.463917 0.717273 0.380502 0.150050
H6    H     H_    0.538759 0.282459 0.619244 0.171649
H7    H     H_    0.462019 0.843365 0.380641 0.149333
H8    H     H_    0.541572 0.156347 0.618641 0.152115
H9    H     H_    0.534743 0.844389 0.618439 0.142892
H10   H     H_    0.465706 0.156064 0.380818 0.141035
H11   H     H_    0.537042 0.718219 0.619224 0.178574
H12   H     H_    0.462177 0.282195 0.380551 0.142485
H13   H     H_    0.736076 0.934281 0.548705 0.192015
H14   H     H_    0.266330 0.065774 0.450240 0.191778
H15   H     H_    0.333857 0.423331 0.818498 0.165616
H16   H     H_    0.740721 0.532097 0.188526 0.167273
N1    N     N_R   0.499980 0.500020 0.683620 -0.238658
N2    N     N_R   0.500020 0.499980 0.316380 -0.235717
O1    O     O_R   0.499930 0.400180 0.561970 -0.547248
O2    O     O_R   0.500070 0.599820 0.438030 -0.577899
O3    O     O_R   0.500010 0.400190 0.438070 -0.586957
O4    O     O_R   0.499990 0.599810 0.561930 -0.548489
O5    O     O_R   0.274810 0.500000 0.547650 -0.577817
O6    O     O_R   0.725190 0.500000 0.452350 -0.525009
O7    O     O_R   0.274880 0.500000 0.423750 -0.535320
O8    O     O_R   0.725120 0.500000 0.576250 -0.580680
O9    O     O_3   0.688214 0.589953 0.690737 -0.580048
C41   C     C_3   0.847565 0.585775 0.720069 0.040658
H17   H     H_    0.913892 0.574154 0.674005 0.164301
H18   H     H_    0.875930 0.543820 0.761374 0.107335
C42   C     C_3   0.905137 0.655367 0.752791 -0.361495
H19   H     H_    0.892017 0.695075 0.708652 0.233095
H20   H     H_    0.834584 0.671377 0.796118 0.217175
C43   C     C_3   0.075394 0.651785 0.786372 -0.914062
H21   H     H_    0.090622 0.613424 0.831800 0.244803
H22   H     H_    0.114326 0.702999 0.809164 0.265365
H23   H     H_    0.148909 0.637052 0.743664 0.258884
O10   O     O_3   0.248122 0.448578 0.300572 -0.584089
C44   C     C_3   0.185134 0.385843 0.269896 0.028610
H24   H     H_    0.175362 0.349800 0.316260 0.168060
H25   H     H_    0.258757 0.359173 0.233440 0.119538
C45   C     C_3   0.022004 0.398630 0.229516 -0.363318
H26   H     H_    0.946732 0.418446 0.269375 0.226871
H27   H     H_    0.026385 0.438215 0.186002 0.214875
C46   C     C_3   0.950250 0.332770 0.194036 -0.888569
H28   H     H_    0.021097 0.313246 0.152262 0.251387
H29   H     H_    0.831810 0.343878 0.166226 0.289667
H30   H     H_    0.942139 0.292574 0.236588 0.253717
O11   O     O_3   0.664667 0.605385 0.952770 -0.588855
C47   C     C_3   0.820870 0.581902 0.957797 0.049045
H31   H     H_    0.886228 0.619380 0.927682 0.160832
H32   H     H_    0.829183 0.531188 0.929818 0.137831
C48   C     C_3   0.902078 0.577803 0.037537 -0.289955
H33   H     H_    0.904754 0.629672 0.063456 0.233939
H34   H     H_    0.839952 0.541646 0.070314 0.223297
C49   C     C_3   0.066647 0.550695 0.039944 -1.011827
H35   H     H_    0.064934 0.497482 0.017306 0.259778
H36   H     H_    0.121581 0.549348 0.098173 0.260080
H37   H     H_    0.135665 0.584361 0.007472 0.263270
O12   O     O_3   0.568897 0.365925 0.071643 -0.578751
C50   C     C_3   0.474214 0.337967 0.121369 0.032030
H38   H     H_    0.348785 0.348961 0.104504 0.120506
H39   H     H_    0.514130 0.357960 0.177474 0.171997
C51   C     C_3   0.496855 0.259793 0.125879 -0.328543
H40   H     H_    0.462363 0.235660 0.071078 0.218339
H41   H     H_    0.621525 0.248418 0.143173 0.231810
C52   C     C_3   0.401333 0.227442 0.181345 -0.937472
H42   H     H_    0.437005 0.249155 0.237306 0.246425
H43   H     H_    0.420377 0.170899 0.183454 0.268051
H44   H     H_    0.275805 0.237117 0.164672 0.255775
O13   O     O_3   0.578134 0.611783 0.087291 -0.591694
C53   C     C_3   0.442478 0.646534 0.100795 0.064625
H45   H     H_    0.473175 0.678358 0.151226 0.155097
H46   H     H_    0.348995 0.610851 0.113160 0.139117
C54   C     C_3   0.384827 0.694462 0.036512 -0.320466
H47   H     H_    0.480828 0.729390 0.025389 0.246513
H48   H     H_    0.348020 0.663544 0.985980 0.212048
C55   C     C_3   0.248237 0.737724 0.053959 -0.925889
H49   H     H_    0.151180 0.703991 0.066045 0.263788
H50   H     H_    0.206692 0.770621 0.005809 0.264288
H51   H     H_    0.284388 0.771498 0.102360 0.262232
O14   O     O_3   0.504919 0.370803 0.920603 -0.563298
C56   C     C_3   0.368511 0.331480 0.924688 0.070934
H52   H     H_    0.261951 0.363361 0.912659 0.096240
H53   H     H_    0.368903 0.308815 0.979925 0.172687
C57   C     C_3   0.361907 0.272279 0.869121 -0.340671
H54   H     H_    0.362817 0.293271 0.812689 0.230325
H55   H     H_    0.466268 0.239501 0.882439 0.235237
C58   C     C_3   0.216882 0.227844 0.870704 -0.917117
H56   H     H_    0.217391 0.204140 0.926006 0.258400
H57   H     H_    0.214589 0.186087 0.828998 0.270747
H58   H     H_    0.110590 0.259351 0.857688 0.259784
Br1   Br    Br    0.832282 0.079277 0.563174 -0.513483
Br2   Br    Br    0.170193 0.920789 0.435696 -0.517004
O15   O     O_3   0.321862 0.405672 0.675696 -0.587206
C59   C     C_3   0.160166 0.415250 0.674660 0.058884
H59   H     H_    0.108179 0.411989 0.616134 0.192243
H60   H     H_    0.127913 0.466215 0.696582 0.096490
C60   C     C_3   0.087788 0.356827 0.715109 -0.397892
H61   H     H_    0.126583 0.306282 0.695743 0.249957
H62   H     H_    0.124738 0.361089 0.775221 0.205070
C61   C     C_3   0.910655 0.359651 0.701540 -0.853854
H63   H     H_    0.869131 0.409648 0.720959 0.246895
H64   H     H_    0.861322 0.317343 0.732225 0.259678
H65   H     H_    0.868324 0.353355 0.641841 0.257257
O16   O     O_3   0.743251 0.559209 0.333650 -0.586059
C62   C     C_3   0.806978 0.618024 0.302453 0.013241
H66   H     H_    0.810712 0.660518 0.343447 0.174480
H67   H     H_    0.735686 0.637846 0.251716 0.142775
C63   C     C_3   0.973964 0.603197 0.288780 -0.329256
H68   H     H_    0.047088 0.594151 0.342437 0.237360
H69   H     H_    0.977548 0.555960 0.254811 0.218379
C64   C     C_3   0.042874 0.663075 0.249659 -0.898651
H70   H     H_    0.973050 0.672555 0.195271 0.257281
H71   H     H_    0.163311 0.650402 0.240548 0.249672
H72   H     H_    0.045713 0.710577 0.283793 0.268816

loop_
_geom_bond_atom_site_label_1
_geom_bond_atom_site_label_2
_ccdc_geom_bond_type
C38   C40   A    
C46   H28   S    
C17   O9    S    
C20   C25   A    
C64   H71   S    
Cu1   Cu2   S    
C48   H33   S    
C45   C46   S    
Cu1   O1    S    
C58   H58   S    
C57   H54   S    
C54   H48   S    
C53   H45   S    
C48   C49   S    
C62   H66   S    
C18   O10   S    
C58   H57   S    
C29   H5    S    
C30   H6    S    
C35   C37   A    
C43   H22   S    
C60   H62   S    
C20   O12   S    
C51   H40   S    
O16   C62   S    
C5    Br1   S    
C42   H19   S    
C23   O7    A    
C19   C26   A    
C6    Br2   S    
C1    C40   S    
C33   C35   A    
C3    H13   S    
C2    C39   S    
C2    O4    A    
C56   C57   S    
C43   H23   S    
C41   H17   S    
C23   C27   S    
Cu2   O2    S    
C36   H10   S    
C55   H51   S    
C24   O6    A    
C37   H11   S    
C4    H14   S    
C64   H72   S    
C42   H20   S    
O12   C50   S    
C9    O15   S    
C31   H7    S    
C61   H65   S    
C1    O3    A    
C44   H25   S    
C55   H50   S    
C44   H24   S    
Cu1   O8    S    
C31   C33   A    
C43   H21   S    
Cu1   N1    S    
C61   H64   S    
C3    C8    A    
C52   H44   S    
Cu2   N2    S    
O11   C47   S    
C5    C7    A    
C61   H63   S    
Cu1   O5    S    
C4    C7    A    
C28   H2    S    
C47   C48   S    
C1    O1    A    
C9    N1    A    
C32   C34   A    
C10   N2    A    
C53   H46   S    
C38   H12   S    
C63   C64   S    
C29   C31   A    
C29   C39   A    
C41   C42   S    
C47   H32   S    
C30   C40   A    
C50   H39   S    
C45   H26   S    
C9    C11   A    
C32   H8    S    
C10   C12   A    
C17   N1    A    
C21   O13   S    
C12   C14   A    
C49   H36   S    
C13   C15   A    
C35   H9    S    
Cu2   O7    S    
C42   C43   S    
C14   C16   A    
C13   C26   S    
C62   C63   S    
C4    C6    A    
C15   H3    S    
C16   H4    S    
C58   H56   S    
C59   H60   S    
C57   C58   S    
C50   H38   S    
C44   C45   S    
C55   H49   S    
C56   H53   S    
O13   C53   S    
C63   H69   S    
C18   N2    A    
C15   C17   A    
C21   C25   A    
C19   C21   A    
C24   C28   S    
C20   C22   A    
O10   C44   S    
C3    C5    A    
C59   C60   S    
C57   H55   S    
C6    C8    A    
C48   H34   S    
C22   O14   S    
C60   C61   S    
C49   H37   S    
O15   C59   S    
C54   H47   S    
C23   O5    A    
C62   H67   S    
C12   H16   S    
C37   C39   A    
C60   H61   S    
C30   C32   A    
C11   C13   A    
C56   H52   S    
C51   H41   S    
C52   H43   S    
C36   C38   A    
C47   H31   S    
C7    C34   S    
C54   C55   S    
C50   C51   S    
C34   C36   A    
C8    C33   S    
C14   C25   S    
O9    C41   S    
C53   C54   S    
C19   O11   S    
C59   H59   S    
C24   O8    A    
C27   H1    S    
C63   H68   S    
C16   C18   A    
C49   H35   S    
C22   C26   A    
C46   H30   S    
C52   H42   S    
C64   H70   S    
Cu2   O6    S    
C46   H29   S    
C45   H27   S    
C41   H18   S    
Cu1   O4    S    
C11   H15   S    
Cu2   O3    S    
C2    O2    A    
C10   O16   S    
O14   C56   S    
C27   C28   D    
C51   C52   S    
