data_mof_unit_40938.cif
_audit_creation_date              2012-12-10T18:04:01-0500
_audit_creation_method            fapswitch 2.2
_symmetry_space_group_name_H-M    P1
_symmetry_Int_Tables_number       1
_space_group_crystal_system       triclinic
_cell_length_a                    10.808002
_cell_length_b                    9.52102
_cell_length_c                    10.795155
_cell_angle_alpha                 89.796469
_cell_angle_beta                  90.816513
_cell_angle_gamma                 90.56595
_cell_volume                      1110.68257876

loop_
_atom_site_label
_atom_site_type_symbol
_atom_type_description
_atom_site_fract_x
_atom_site_fract_y
_atom_site_fract_z
_atom_type_partial_charge
C1    C     C_R   0.262624 0.499188 0.505261 0.784575
C2    C     C_R   0.738027 0.501015 0.503355 0.808366
C3    C     C_R   0.429026 0.073909 0.416656 -0.018276
C4    C     C_R   0.570336 0.074877 0.583902 -0.023708
C5    C     C_R   0.429228 0.925121 0.416465 -0.014707
C6    C     C_R   0.569957 0.926091 0.584196 -0.027898
C7    C     C_R   0.492265 0.500388 0.262638 0.821210
C8    C     C_R   0.495739 0.499648 0.737712 0.809126
C9    C     C_R   0.537956 0.607064 0.064395 0.083149
C10   C     C_R   0.540531 0.605758 0.937892 0.091569
C11   C     C_R   0.474584 0.503912 0.129579 -0.148264
C12   C     C_R   0.480313 0.500494 0.870918 -0.153830
C13   C     C_R   0.390753 0.413626 0.064641 0.166531
C14   C     C_R   0.395909 0.409232 0.932636 0.133887
C15   C     C_3   0.672809 0.652888 0.936180 -0.486787
C16   C     C_3   0.669144 0.655680 0.076569 -0.439430
C17   C     C_R   0.062608 0.401820 0.443389 -0.235054
C18   C     C_R   0.935161 0.402940 0.442678 -0.232889
C19   C     C_R   0.872542 0.503549 0.510745 -0.073302
C20   C     C_R   0.129403 0.497361 0.516417 -0.058709
C21   C     C_R   0.938408 0.601314 0.586651 0.180124
C22   C     C_R   0.068552 0.591594 0.595647 0.178750
Cu1   Cu    Cu3+1 0.500000 0.640660 0.500000 0.937573
Cu2   Cu    Cu3+1 0.500000 0.359340 0.500000 0.934077
H1    H     H_    0.735240 0.570766 0.900322 0.191239
H2    H     H_    0.676664 0.763395 0.115527 0.203274
H3    H     H_    0.683928 0.758963 0.894179 0.197765
H4    H     H_    0.729957 0.576333 0.121630 0.188115
H5    H     H_    0.109375 0.327528 0.384825 0.154547
H6    H     H_    0.885127 0.328088 0.384910 0.161456
H7    H     H_    0.371866 0.129467 0.350154 0.120263
H8    H     H_    0.626762 0.131269 0.651094 0.123276
H9    H     H_    0.372418 0.868707 0.349603 0.122912
H10   H     H_    0.625363 0.870528 0.652188 0.120419
N1    N     N_R   0.500000 0.852070 0.500000 -0.157180
N2    N     N_R   0.500000 0.147940 0.500000 -0.158016
O1    O     O_R   0.319640 0.618740 0.499990 -0.574772
O2    O     O_R   0.680360 0.618740 0.500010 -0.575700
O3    O     O_R   0.319620 0.381170 0.499990 -0.591528
O4    O     O_R   0.680380 0.381170 0.500010 -0.582294
O5    O     O_R   0.499990 0.618810 0.319660 -0.580726
O6    O     O_R   0.500010 0.618810 0.680340 -0.586200
O7    O     O_R   0.499960 0.381240 0.319650 -0.577395
O8    O     O_R   0.500040 0.381240 0.680350 -0.582681
C23   C     C_3   0.296202 0.325819 0.133434 -0.874503
H11   H     H_    0.201951 0.348854 0.097104 0.226133
H12   H     H_    0.316220 0.212499 0.122003 0.231636
H13   H     H_    0.292878 0.349523 0.233521 0.227665
C24   C     C_3   0.314340 0.309530 0.857464 -0.808153
H14   H     H_    0.243406 0.253537 0.912000 0.226545
H15   H     H_    0.264371 0.368829 0.783800 0.222140
H16   H     H_    0.372043 0.227681 0.814605 0.245463
C25   C     C_3   0.869615 0.714001 0.656053 -0.873857
H17   H     H_    0.832045 0.791258 0.588567 0.243769
H18   H     H_    0.792896 0.665634 0.708403 0.221991
H19   H     H_    0.926635 0.774768 0.723068 0.231559
C26   C     C_3   0.140102 0.675253 0.692990 -0.853696
H20   H     H_    0.236795 0.640506 0.706316 0.234699
H21   H     H_    0.140582 0.788486 0.668049 0.241850
H22   H     H_    0.097235 0.659790 0.784959 0.223901

loop_
_geom_bond_atom_site_label_1
_geom_bond_atom_site_label_2
_ccdc_geom_bond_type
C16   H4    S    
C3    H7    S    
Cu1   Cu2   S    
C4    N2    A    
C24   H15   S    
C18   H6    S    
C13   C14   A    
C21   C25   S    
Cu1   O2    S    
C17   H5    S    
C9    C10   A    
C2    O2    A    
C15   H3    S    
Cu1   O5    S    
C1    O1    A    
C8    C12   S    
C24   H16   S    
C17   C20   A    
C22   C26   S    
C25   H18   S    
C17   C18   A    
C20   C22   A    
C3    C5    A    
C23   H12   S    
C4    H8    S    
C23   H11   S    
C7    C11   S    
C11   C13   A    
C9    C11   A    
C26   H20   S    
Cu2   N2    S    
Cu1   O6    S    
C10   C12   A    
C3    N2    A    
C5    N1    A    
C21   C22   A    
C19   C21   A    
C9    C16   S    
C12   C14   A    
C18   C19   A    
Cu1   N1    S    
C10   C15   S    
C7    O5    A    
C16   H2    S    
C8    O8    A    
Cu2   O8    S    
C15   H1    S    
C14   C24   S    
C26   H21   S    
C1    O3    A    
C15   C16   S    
C2    O4    A    
Cu2   O3    S    
C6    N1    A    
C13   C23   S    
C4    C6    A    
C24   H14   S    
C25   H19   S    
C7    O7    A    
Cu2   O7    S    
C1    C20   S    
Cu1   O1    S    
C23   H13   S    
Cu2   O4    S    
C2    C19   S    
C25   H17   S    
C6    H10   S    
C8    O6    A    
C26   H22   S    
C5    H9    S    
