data_mof_unit_51217.cif
_audit_creation_date              2013-03-05T15:44:04-0500
_audit_creation_method            fapswitch 2.2
_symmetry_space_group_name_H-M    P1
_symmetry_Int_Tables_number       1
_space_group_crystal_system       triclinic
_cell_length_a                    31.166343
_cell_length_b                    22.537974
_cell_length_c                    18.047601
_cell_angle_alpha                 89.928896
_cell_angle_beta                  124.441103
_cell_angle_gamma                 90.04519
_cell_volume                      10454.9043757

loop_
_atom_site_label
_atom_site_type_symbol
_atom_site_description
_atom_site_fract_x
_atom_site_fract_y
_atom_site_fract_z
_atom_type_partial_charge
C1    C     C_R   0.545813 0.581605 0.744741 -0.082992
C2    C     C_R   0.463836 0.395972 0.282615 -0.070243
C3    C     C_R   0.454143 0.581428 0.255039 -0.087357
C4    C     C_R   0.536303 0.396160 0.717924 -0.071239
C5    C     C_R   0.045883 0.081491 0.744834 -0.084945
C6    C     C_R   0.964000 0.895873 0.282911 -0.068492
C7    C     C_R   0.954129 0.081552 0.255118 -0.101312
C8    C     C_R   0.036156 0.895988 0.717547 -0.070599
H1    H     H_    0.519728 0.580162 0.765742 0.103286
H2    H     H_    0.493914 0.385147 0.272979 0.119849
H3    H     H_    0.480191 0.579888 0.233960 0.103919
H4    H     H_    0.506340 0.385418 0.727900 0.115854
H5    H     H_    0.019856 0.079999 0.765961 0.103247
H6    H     H_    0.994237 0.884969 0.273703 0.124470
H7    H     H_    0.980157 0.079931 0.234017 0.106705
H8    H     H_    0.006076 0.885178 0.727217 0.119646
N1    N     N_R   0.532970 0.559900 0.665210 -0.052223
N2    N     N_R   0.467030 0.440100 0.334790 -0.058664
N3    N     N_R   0.467030 0.559900 0.334790 -0.052307
N4    N     N_R   0.532970 0.440100 0.665210 -0.057785
N5    N     N_R   0.032970 0.059900 0.665210 -0.051904
N6    N     N_R   0.967030 0.940100 0.334790 -0.058368
N7    N     N_R   0.967030 0.059900 0.334790 -0.050447
N8    N     N_R   0.032970 0.940100 0.665210 -0.058631
C9    C     C_R   0.621224 0.612784 0.572620 0.306249
C10   C     C_R   0.357936 0.412136 0.428138 0.355198
C11   C     C_R   0.378831 0.612718 0.427121 0.307822
C12   C     C_R   0.642118 0.412381 0.572396 0.349802
C13   C     C_R   0.121397 0.112650 0.572756 0.338476
C14   C     C_R   0.857874 0.912400 0.427658 0.349771
C15   C     C_R   0.878559 0.112665 0.427253 0.304096
C16   C     C_R   0.142471 0.913167 0.572214 0.349370
N9    N     N_R   0.597900 0.559930 0.545530 -0.094379
N10   N     N_R   0.402100 0.440070 0.454470 -0.092244
N11   N     N_R   0.402100 0.559930 0.454470 -0.095333
N12   N     N_R   0.597900 0.440070 0.545530 -0.092870
N13   N     N_R   0.097900 0.059930 0.545530 -0.096884
N14   N     N_R   0.902100 0.940070 0.454470 -0.092875
N15   N     N_R   0.902100 0.059930 0.454470 -0.094335
N16   N     N_R   0.097900 0.940070 0.545530 -0.093417
C17   C     C_R   0.570397 0.612211 0.423682 -0.146702
C18   C     C_R   0.409500 0.411080 0.577512 -0.136437
C19   C     C_R   0.428923 0.611971 0.576153 -0.149953
C20   C     C_R   0.590902 0.411383 0.422965 -0.124884
C21   C     C_R   0.070513 0.112284 0.423788 -0.195146
C22   C     C_R   0.909089 0.911371 0.577097 -0.125692
C23   C     C_R   0.929385 0.112082 0.576217 -0.143730
C24   C     C_R   0.091255 0.912460 0.422882 -0.125286
H9    H     H_    0.553748 0.622666 0.354066 0.146616
H10   H     H_    0.422180 0.409567 0.646951 0.126678
H11   H     H_    0.445387 0.622376 0.645690 0.147749
H12   H     H_    0.578382 0.409872 0.353609 0.126584
H13   H     H_    0.053837 0.122895 0.354216 0.145908
H14   H     H_    0.921599 0.909850 0.646451 0.126542
H15   H     H_    0.946017 0.122474 0.645816 0.146153
H16   H     H_    0.078658 0.911373 0.353458 0.127321
N17   N     N_R   0.567170 0.559950 0.454460 -0.081722
N18   N     N_R   0.432830 0.440050 0.545540 -0.066747
N19   N     N_R   0.432830 0.559950 0.545540 -0.081902
N20   N     N_R   0.567170 0.440050 0.454460 -0.067955
N21   N     N_R   0.067170 0.059950 0.454460 -0.076399
N22   N     N_R   0.932830 0.940050 0.545540 -0.068062
N23   N     N_R   0.932830 0.059950 0.545540 -0.081866
N24   N     N_R   0.067170 0.940050 0.454460 -0.067662
C25   C     C_R   0.382493 0.578226 0.253255 -0.044817
C26   C     C_R   0.609230 0.396261 0.720777 -0.054317
C27   C     C_R   0.617496 0.578639 0.746413 -0.045069
C28   C     C_R   0.390889 0.396023 0.279786 -0.051651
C29   C     C_R   0.882496 0.078668 0.253581 -0.045319
C30   C     C_R   0.109107 0.896064 0.720432 -0.055274
C31   C     C_R   0.117524 0.078653 0.746316 -0.044555
C32   C     C_R   0.890947 0.896003 0.279715 -0.054043
H17   H     H_    0.342352 0.568848 0.226469 0.186711
H18   H     H_    0.647530 0.386164 0.738020 0.157278
H19   H     H_    0.657695 0.569882 0.772826 0.186764
H20   H     H_    0.352684 0.385750 0.262985 0.155101
H21   H     H_    0.842316 0.069860 0.227268 0.186966
H22   H     H_    0.147338 0.885833 0.737432 0.157146
H23   H     H_    0.157726 0.070022 0.772547 0.184474
H24   H     H_    0.852676 0.885786 0.262557 0.157098
N25   N     N_R   0.421470 0.559970 0.334770 -0.062178
N26   N     N_R   0.578530 0.440030 0.665230 -0.051076
N27   N     N_R   0.578530 0.559970 0.665230 -0.061941
N28   N     N_R   0.421470 0.440030 0.334770 -0.051223
N29   N     N_R   0.921470 0.059970 0.334770 -0.061689
N30   N     N_R   0.078530 0.940030 0.665230 -0.051150
N31   N     N_R   0.078530 0.059970 0.665230 -0.062512
N32   N     N_R   0.921470 0.940030 0.334770 -0.050624
C33   C     C_R   0.598846 0.594073 0.798042 0.041258
C34   C     C_R   0.416496 0.367154 0.246480 0.043394
C35   C     C_R   0.401101 0.593726 0.201604 0.041242
C36   C     C_R   0.583668 0.367428 0.754255 0.043146
C37   C     C_R   0.098913 0.093929 0.798032 0.044659
C38   C     C_R   0.916678 0.867033 0.246692 0.041744
C39   C     C_R   0.901107 0.094116 0.201845 0.040499
C40   C     C_R   0.083480 0.867167 0.753765 0.042773
C41   C     C_R   0.604445 0.646594 0.496718 0.046664
C42   C     C_R   0.362949 0.392214 0.504664 -0.026166
C43   C     C_R   0.395074 0.646400 0.502778 0.046402
C44   C     C_R   0.637594 0.392838 0.496288 -0.026515
C45   C     C_R   0.104537 0.146625 0.497029 0.047379
C46   C     C_R   0.862395 0.892865 0.503817 -0.026593
C47   C     C_R   0.895211 0.146400 0.503070 0.045498
C48   C     C_R   0.138222 0.894412 0.495982 -0.031416
Ni1   Ni    Ni4+2 0.483030 0.500000 0.604430 0.218588
Ni2   Ni    Ni4+2 0.516970 0.500000 0.395570 0.219232
Ni3   Ni    Ni4+2 0.983030 0.000000 0.604430 0.219220
Ni4   Ni    Ni4+2 0.016970 0.000000 0.395570 0.217028
Ni5   Ni    Ni4+2 0.587400 0.500000 0.604430 0.323948
Ni6   Ni    Ni4+2 0.412600 0.500000 0.395570 0.323942
Ni7   Ni    Ni4+2 0.087400 0.000000 0.604430 0.323852
Ni8   Ni    Ni4+2 0.912600 0.000000 0.395570 0.323914
C49   C     C_R   0.663418 0.298714 0.470175 0.367715
C50   C     C_R   0.371653 0.746678 0.523443 0.346577
C51   C     C_R   0.335812 0.296557 0.524224 0.363495
C52   C     C_R   0.628216 0.745927 0.474065 0.347139
C53   C     C_R   0.161927 0.802441 0.460412 0.363418
C54   C     C_R   0.871583 0.245682 0.525923 0.345189
C55   C     C_R   0.836382 0.798689 0.529587 0.367895
C56   C     C_R   0.133586 0.247495 0.493046 0.356918
C57   C     C_R   0.674240 0.358486 0.492701 -0.070435
C58   C     C_R   0.360775 0.686295 0.505842 -0.059621
C59   C     C_R   0.327084 0.357435 0.509995 -0.056606
C60   C     C_R   0.638505 0.685492 0.491418 -0.057857
C61   C     C_R   0.174768 0.860659 0.491142 -0.062815
C62   C     C_R   0.861126 0.185304 0.508209 -0.057545
C63   C     C_R   0.825736 0.858546 0.507461 -0.070676
C64   C     C_R   0.138923 0.186108 0.493602 -0.057024
C65   C     C_R   0.720556 0.384963 0.516466 -0.099124
C66   C     C_R   0.314247 0.661493 0.484137 -0.155100
C67   C     C_R   0.285541 0.385645 0.503489 -0.107169
C68   C     C_R   0.682815 0.659070 0.505702 -0.155293
C69   C     C_R   0.221846 0.886521 0.517798 -0.103504
C70   C     C_R   0.816655 0.158968 0.493487 -0.154385
C71   C     C_R   0.779524 0.885125 0.483920 -0.099825
C72   C     C_R   0.180037 0.159147 0.497151 -0.172259
C73   C     C_R   0.759513 0.350807 0.522941 -0.029746
C74   C     C_R   0.274770 0.697009 0.471023 -0.012558
C75   C     C_R   0.249804 0.352596 0.508818 -0.034159
C76   C     C_R   0.720169 0.692767 0.507713 -0.025994
C77   C     C_R   0.259725 0.852776 0.519892 -0.032614
C78   C     C_R   0.779352 0.192694 0.491513 -0.026486
C79   C     C_R   0.740477 0.850996 0.477270 -0.029270
C80   C     C_R   0.219845 0.192706 0.507229 -0.017969
C81   C     C_R   0.749914 0.289580 0.502380 0.023825
C82   C     C_R   0.285479 0.757778 0.493494 0.034541
C83   C     C_R   0.254601 0.289965 0.512799 0.020298
C84   C     C_R   0.711603 0.754520 0.492464 0.035754
C85   C     C_R   0.247934 0.793009 0.490761 0.023665
C86   C     C_R   0.788116 0.254383 0.507197 0.035745
C87   C     C_R   0.749890 0.789688 0.497431 0.023965
C88   C     C_R   0.215723 0.255237 0.506713 0.038885
C89   C     C_R   0.701950 0.263444 0.476818 -0.072038
C90   C     C_R   0.334226 0.782717 0.520956 -0.080579
C91   C     C_R   0.297867 0.261951 0.520975 -0.078198
C92   C     C_R   0.664976 0.781059 0.473112 -0.081373
C93   C     C_R   0.198932 0.767883 0.461062 -0.076356
C94   C     C_R   0.834865 0.280831 0.526871 -0.080726
C95   C     C_R   0.797754 0.763443 0.522749 -0.072009
C96   C     C_R   0.172396 0.282874 0.498975 -0.078177
C97   C     C_R   0.807570 0.376162 0.549125 0.312117
C98   C     C_R   0.225591 0.672606 0.439135 0.304235
C99   C     C_R   0.208257 0.380132 0.506170 0.322037
C100  C     C_R   0.766642 0.666405 0.528046 0.314045
C101  C     C_R   0.308959 0.876946 0.550666 0.312785
C102  C     C_R   0.732756 0.166432 0.470862 0.313821
C103  C     C_R   0.692508 0.876453 0.451277 0.311908
C104  C     C_R   0.263127 0.165066 0.516343 0.302255
C105  C     C_R   0.345155 0.842037 0.548720 -0.190701
C106  C     C_R   0.694135 0.202338 0.461997 -0.165881
C107  C     C_R   0.655760 0.841474 0.451464 -0.191993
C108  C     C_R   0.301459 0.200047 0.522270 -0.146735
C109  C     C_R   0.844245 0.341169 0.548846 -0.192386
C110  C     C_R   0.188328 0.708323 0.435306 -0.173114
C111  C     C_R   0.169932 0.344832 0.500913 -0.191461
C112  C     C_R   0.805367 0.702274 0.537107 -0.165291
H25   H     H_    0.725468 0.432160 0.529988 0.199819
H26   H     H_    0.308935 0.613888 0.474996 0.181962
H27   H     H_    0.281318 0.433172 0.492824 0.194688
H28   H     H_    0.688527 0.611859 0.519186 0.190985
H29   H     H_    0.228201 0.932843 0.537008 0.201488
H30   H     H_    0.810808 0.111810 0.479732 0.191108
H31   H     H_    0.774751 0.932373 0.470663 0.199574
H32   H     H_    0.180815 0.111176 0.494078 0.178144
H33   H     H_    0.383030 0.860829 0.574073 0.215579
H34   H     H_    0.658587 0.181513 0.446248 0.222288
H35   H     H_    0.619122 0.861579 0.431192 0.215994
H36   H     H_    0.333841 0.178144 0.527059 0.226825
H37   H     H_    0.880956 0.361197 0.569300 0.215907
H38   H     H_    0.150980 0.688842 0.412067 0.222791
H39   H     H_    0.138730 0.366421 0.500251 0.220264
H40   H     H_    0.840831 0.681386 0.552638 0.222309
C113  C     C_R   0.366653 0.609892 0.104069 0.046003
C114  C     C_R   0.602202 0.313955 0.812883 0.046400
C115  C     C_R   0.633200 0.610275 0.895519 0.046492
C116  C     C_R   0.397935 0.313781 0.187782 0.046648
C117  C     C_R   0.866702 0.110384 0.104323 0.046204
C118  C     C_R   0.101980 0.813660 0.812342 0.046968
C119  C     C_R   0.133315 0.109917 0.895494 0.045657
C120  C     C_R   0.898250 0.813497 0.188312 0.047169
C121  C     C_R   0.345155 0.626689 0.952721 -0.178595
C122  C     C_R   0.602657 0.247522 0.919638 -0.160457
C123  C     C_R   0.654513 0.626903 0.046734 -0.180865
C124  C     C_R   0.397374 0.247850 0.080648 -0.158848
C125  C     C_R   0.845312 0.127482 0.953087 -0.181571
C126  C     C_R   0.102473 0.747271 0.919183 -0.158788
C127  C     C_R   0.154898 0.125750 0.046986 -0.182214
C128  C     C_R   0.897952 0.747065 0.081892 -0.159229
C129  C     C_R   0.380849 0.607968 0.041836 0.053394
C130  C     C_R   0.585273 0.299496 0.868904 0.053125
C131  C     C_R   0.618906 0.608234 0.957636 0.054022
C132  C     C_R   0.414856 0.299605 0.131699 0.054760
C133  C     C_R   0.881041 0.108899 0.042243 0.054631
C134  C     C_R   0.084990 0.799165 0.868271 0.054933
C135  C     C_R   0.119222 0.107264 0.957842 0.054868
C136  C     C_R   0.915466 0.798904 0.132775 0.056497
C137  C     C_R   0.315706 0.627401 0.071949 -0.141154
C138  C     C_R   0.637995 0.276239 0.812366 -0.126045
C139  C     C_R   0.684164 0.627820 0.927774 -0.140755
C140  C     C_R   0.362036 0.275988 0.188033 -0.125383
C141  C     C_R   0.815659 0.127568 0.072031 -0.142592
C142  C     C_R   0.137886 0.776016 0.812034 -0.126996
C143  C     C_R   0.184158 0.127775 0.927501 -0.140936
C144  C     C_R   0.862152 0.775949 0.188335 -0.125919
C145  C     C_R   0.278330 0.639130 0.981070 0.122305
C146  C     C_R   0.656607 0.224191 0.864659 0.121956
C147  C     C_R   0.721469 0.639443 0.018693 0.122064
C148  C     C_R   0.343299 0.224150 0.135347 0.121206
C149  C     C_R   0.778316 0.139304 0.981143 0.122908
C150  C     C_R   0.156572 0.724029 0.864473 0.122333
C151  C     C_R   0.221562 0.139141 0.018410 0.122072
C152  C     C_R   0.843443 0.724014 0.135912 0.121824
C153  C     C_R   0.294613 0.644127 0.922988 0.095756
C154  C     C_R   0.639037 0.211076 0.920096 0.090114
C155  C     C_R   0.705078 0.644346 0.076615 0.097042
C156  C     C_R   0.360880 0.211361 0.079865 0.089406
C157  C     C_R   0.794670 0.144532 0.923186 0.096773
C158  C     C_R   0.138981 0.710924 0.919877 0.088800
C159  C     C_R   0.205340 0.143538 0.076605 0.096726
C160  C     C_R   0.861211 0.710866 0.080822 0.088902
C161  C     C_R   0.226337 0.652564 0.949648 -0.103490
C162  C     C_R   0.696939 0.188909 0.872271 -0.102001
C163  C     C_R   0.773518 0.652801 0.050349 -0.104216
C164  C     C_R   0.302888 0.188747 0.127428 -0.102925
C165  C     C_R   0.726291 0.152627 0.949635 -0.104074
C166  C     C_R   0.196963 0.688785 0.872210 -0.102082
C167  C     C_R   0.273520 0.152761 0.049820 -0.103737
C168  C     C_R   0.802878 0.688880 0.127860 -0.101821
C169  C     C_R   0.711704 0.190323 0.810410 0.335193
C170  C     C_R   0.203322 0.633181 0.994620 0.328149
C171  C     C_R   0.288117 0.189615 0.189299 0.335031
C172  C     C_R   0.796623 0.633429 0.005590 0.328733
C173  C     C_R   0.211690 0.690098 0.810291 0.333064
C174  C     C_R   0.703270 0.133205 0.994574 0.328468
C175  C     C_R   0.787988 0.690150 0.189554 0.335263
C176  C     C_R   0.296498 0.133732 0.004706 0.328058
C177  C     C_R   0.760269 0.167175 0.836631 -0.246136
C178  C     C_R   0.159717 0.662960 0.978927 -0.237213
C179  C     C_R   0.239703 0.165978 0.163172 -0.244794
C180  C     C_R   0.840414 0.663026 0.021679 -0.237730
C181  C     C_R   0.260206 0.666803 0.836435 -0.241190
C182  C     C_R   0.659706 0.163023 0.978991 -0.238083
C183  C     C_R   0.739408 0.666906 0.163185 -0.245941
C184  C     C_R   0.340122 0.163598 0.020579 -0.237560
H41   H     H_    0.771656 0.168090 0.789932 0.183085
H42   H     H_    0.143147 0.650153 0.015638 0.192940
H43   H     H_    0.228401 0.166322 0.209998 0.182792
H44   H     H_    0.857080 0.650186 0.985175 0.192236
H45   H     H_    0.271525 0.667571 0.789642 0.183814
H46   H     H_    0.643149 0.150203 0.015718 0.192392
H47   H     H_    0.727980 0.667609 0.209831 0.183080
H48   H     H_    0.356673 0.151040 0.983783 0.192401
H49   H     H_    0.653323 0.289681 0.774447 0.151321
H50   H     H_    0.305167 0.634565 0.118851 0.152738
H51   H     H_    0.346722 0.289241 0.226011 0.151266
H52   H     H_    0.694778 0.635054 0.880969 0.152068
H53   H     H_    0.153252 0.789476 0.774184 0.150525
H54   H     H_    0.805026 0.134583 0.118818 0.151645
H55   H     H_    0.846649 0.789455 0.225911 0.151308
H56   H     H_    0.194604 0.135408 0.880540 0.152012
H57   H     H_    0.356888 0.627844 0.906432 0.144232
H58   H     H_    0.590067 0.237230 0.963338 0.148220
H59   H     H_    0.642705 0.627973 0.092919 0.144094
H60   H     H_    0.409965 0.237791 0.036914 0.147789
H61   H     H_    0.857131 0.128954 0.906923 0.144158
H62   H     H_    0.089847 0.736966 0.962828 0.148179
H63   H     H_    0.143249 0.126394 0.093404 0.142593
H64   H     H_    0.910738 0.736705 0.038525 0.148013
C185  C     C_1   0.554187 0.339009 0.883268 0.075249
N33   N     N_1   0.529449 0.370505 0.895473 -0.067947
C186  C     C_1   0.430652 0.587023 0.064797 0.060358
N34   N     N_1   0.470380 0.570181 0.081912 -0.072858
C187  C     C_1   0.446010 0.339232 0.117514 0.081580
N35   N     N_1   0.470802 0.370815 0.105448 -0.067257
C188  C     C_1   0.569108 0.587176 0.934641 0.059761
N36   N     N_1   0.529389 0.570244 0.917519 -0.072931
C189  C     C_1   0.053737 0.838568 0.882390 0.081282
N37   N     N_1   0.028864 0.869969 0.894402 -0.067658
C190  C     C_1   0.931106 0.088822 0.065420 0.058341
N38   N     N_1   0.971049 0.072710 0.082656 -0.074725
C191  C     C_1   0.947007 0.838144 0.118995 0.088253
N39   N     N_1   0.972118 0.869406 0.107251 -0.067172
C192  C     C_1   0.069601 0.085686 0.935052 0.057580
N40   N     N_1   0.030028 0.068323 0.918080 -0.073467
N41   N     N_R   0.676006 0.207853 0.718224 0.239299
O1    O     O_R   0.693313 0.230691 0.673607 -0.360349
O2    O     O_R   0.627029 0.193684 0.675252 -0.306520
N42   N     N_R   0.220930 0.580634 0.049864 0.240339
O3    O     O_R   0.211608 0.573679 0.111108 -0.275788
O4    O     O_R   0.239281 0.535950 0.030372 -0.356816
N43   N     N_R   0.323653 0.207069 0.281449 0.240918
O5    O     O_R   0.306041 0.229085 0.325978 -0.364490
O6    O     O_R   0.372667 0.193053 0.324626 -0.301820
N44   N     N_R   0.778896 0.581051 0.950146 0.240488
O7    O     O_R   0.787996 0.574405 0.888603 -0.281573
O8    O     O_R   0.760533 0.536258 0.969557 -0.355620
N45   N     N_R   0.175953 0.707598 0.718090 0.239926
O9    O     O_R   0.193187 0.730630 0.673469 -0.350366
O10   O     O_R   0.126999 0.693330 0.675144 -0.306173
N46   N     N_R   0.720889 0.080650 0.049794 0.240752
O11   O     O_R   0.711772 0.073768 0.111301 -0.281159
O12   O     O_R   0.739209 0.035964 0.030245 -0.355171
N47   N     N_R   0.823599 0.707560 0.281772 0.239256
O13   O     O_R   0.806199 0.730380 0.326181 -0.360510
O14   O     O_R   0.872549 0.693237 0.324985 -0.306698
N48   N     N_R   0.278798 0.081452 0.949052 0.240365
O15   O     O_R   0.287832 0.075062 0.887389 -0.278648
O16   O     O_R   0.260568 0.036484 0.968398 -0.355433
N49   N     N_R   0.668254 0.623548 0.658653 0.212866
O17   O     O_R   0.679770 0.677161 0.690894 -0.372188
O18   O     O_R   0.703792 0.582607 0.696235 -0.307726
N50   N     N_R   0.310126 0.418321 0.341361 0.225712
O19   O     O_R   0.271252 0.382834 0.316329 -0.339344
O20   O     O_R   0.304563 0.460907 0.287927 -0.343213
N51   N     N_R   0.332458 0.623751 0.340286 0.215924
O21   O     O_R   0.321412 0.677412 0.308024 -0.372042
O22   O     O_R   0.296990 0.582820 0.301321 -0.288775
N52   N     N_R   0.689494 0.418012 0.659881 0.225532
O23   O     O_R   0.726643 0.379317 0.688520 -0.333652
O24   O     O_R   0.695459 0.461568 0.712093 -0.341434
N53   N     N_R   0.168724 0.122985 0.658552 0.215615
O25   O     O_R   0.180424 0.176319 0.691848 -0.370240
O26   O     O_R   0.204158 0.081902 0.695147 -0.291010
N54   N     N_R   0.810507 0.918035 0.340139 0.225821
O27   O     O_R   0.773274 0.879458 0.311705 -0.333376
O28   O     O_R   0.804654 0.961440 0.287656 -0.341486
N55   N     N_R   0.831558 0.123354 0.341126 0.212702
O29   O     O_R   0.819949 0.176970 0.308758 -0.373880
O30   O     O_R   0.796099 0.082323 0.303600 -0.307691
N56   N     N_R   0.189706 0.918646 0.659902 0.227239
O31   O     O_R   0.227014 0.880202 0.688311 -0.329657
O32   O     O_R   0.195297 0.961622 0.712673 -0.340432
N57   N     N_R   0.613668 0.274225 0.441813 0.234463
O33   O     O_R   0.598239 0.274968 0.495401 -0.301820
O34   O     O_R   0.582410 0.254587 0.360185 -0.379040
N58   N     N_R   0.419602 0.770731 0.542226 0.240897
O35   O     O_R   0.463905 0.746726 0.603339 -0.358815
O36   O     O_R   0.418758 0.813708 0.493210 -0.303154
N59   N     N_R   0.383051 0.270474 0.542273 0.240535
O37   O     O_R   0.414339 0.242757 0.617757 -0.365369
O38   O     O_R   0.397036 0.278490 0.487356 -0.306584
N60   N     N_R   0.582095 0.771151 0.461226 0.240626
O39   O     O_R   0.536558 0.749107 0.401499 -0.355358
O40   O     O_R   0.585987 0.812417 0.515078 -0.304268
N61   N     N_R   0.111784 0.778537 0.430670 0.232898
O41   O     O_R   0.098183 0.773466 0.486545 -0.296793
O42   O     O_R   0.078188 0.766493 0.346088 -0.395286
N62   N     N_R   0.917840 0.270852 0.539131 0.240477
O43   O     O_R   0.963292 0.248663 0.599002 -0.350336
O44   O     O_R   0.914163 0.312257 0.485510 -0.305680
N63   N     N_R   0.886043 0.774095 0.557715 0.234529
O45   O     O_R   0.917268 0.754115 0.639202 -0.378702
O46   O     O_R   0.901414 0.775020 0.504044 -0.302789
N64   N     N_R   0.089061 0.273025 0.485643 0.236020
O47   O     O_R   0.077842 0.258667 0.542686 -0.308542
O48   O     O_R   0.056688 0.305678 0.416447 -0.336701
N65   N     N_R   0.820457 0.436679 0.578459 0.254403
O49   O     O_R   0.845442 0.468616 0.554413 -0.283461
O50   O     O_R   0.816902 0.455730 0.642838 -0.280357
N66   N     N_R   0.212253 0.612343 0.408222 0.239787
O51   O     O_R   0.183129 0.581812 0.424757 -0.277993
O52   O     O_R   0.219934 0.592351 0.349013 -0.295277
N67   N     N_R   0.204822 0.443478 0.511017 0.254488
O53   O     O_R   0.159429 0.469038 0.467659 -0.272956
O54   O     O_R   0.245331 0.473743 0.571607 -0.372085
N68   N     N_R   0.775632 0.603596 0.540969 0.253070
O55   O     O_R   0.820431 0.583933 0.607598 -0.260506
O56   O     O_R   0.743415 0.566938 0.477946 -0.383168
N69   N     N_R   0.323918 0.935605 0.587996 0.252790
O57   O     O_R   0.351597 0.968573 0.570819 -0.278677
O58   O     O_R   0.319957 0.950788 0.653443 -0.279117
N70   N     N_R   0.723543 0.103685 0.457459 0.253507
O59   O     O_R   0.678692 0.084330 0.390622 -0.260360
O60   O     O_R   0.755585 0.066748 0.520265 -0.382271
N71   N     N_R   0.679777 0.937057 0.422185 0.254544
O61   O     O_R   0.654887 0.968937 0.446379 -0.283223
O62   O     O_R   0.683361 0.956282 0.357856 -0.279741
N72   N     N_R   0.269145 0.101718 0.520630 0.236857
O63   O     O_R   0.283956 0.075704 0.474334 -0.326560
O64   O     O_R   0.269081 0.071665 0.582181 -0.304247

loop_
_geom_bond_atom_site_label_1
_geom_bond_atom_site_label_2
_geom_bond_distance
_ccdc_geom_bond_type
C186  N34   1.157744 T    
C84   C87   1.392077 A    
C18   N18   1.326976 A    
C191  N39   1.157672 T    
C11   C43   1.384563 A    
C22   N22   1.328376 A    
C159  C179  1.397193 A    
C19   C43   1.373754 A    
C41   C60   1.420488 S    
C36   C114  1.487370 S    
C45   C64   1.420408 S    
C14   N14   1.329623 A    
C2    C34   1.391120 A    
C47   C62   1.420919 S    
C32   N32   1.344849 A    
C6    C38   1.390713 A    
C28   C34   1.402126 A    
C16   C48   1.372718 A    
C3    N3    1.346492 A    
N48   O15   1.301280 A    
C4    H4    1.073674 S    
C83   C91   1.419408 A    
C5    H5    1.074373 S    
C150  C166  1.427438 A    
C32   C38   1.402480 A    
C126  C134  1.393251 A    
C7    H7    1.074213 S    
C8    H8    1.073928 S    
C172  N44   1.441048 S    
C137  H50   1.079529 S    
C124  C132  1.392922 A    
C17   H9    1.079527 S    
N62   O43   1.301072 A    
N57   O34   1.301089 A    
C101  C105  1.392539 A    
C101  N69   1.437030 S    
C162  C165  1.417248 A    
C51   C59   1.393986 A    
N47   O13   1.301589 A    
C177  H41   1.083952 S    
N70   O60   1.301427 A    
C169  C177  1.406252 A    
N51   O22   1.299296 A    
C103  C107  1.391461 A    
C11   N11   1.334187 A    
N44   O7    1.301291 A    
C53   C93   1.386730 A    
N68   O56   1.301424 A    
C122  C154  1.396888 A    
C192  N40   1.157748 T    
C82   C90   1.420333 A    
C39   C117  1.498756 S    
C14   C46   1.372011 A    
C74   C98   1.408775 A    
N8    Ni3   1.875321 S    
C175  C183  1.406298 A    
C11   N51   1.429786 S    
C176  C184  1.393620 A    
N69   O57   1.301258 A    
C54   C94   1.400377 A    
C149  C157  1.403687 A    
N67   O53   1.301400 A    
C118  C134  1.417554 A    
C122  H58   1.085924 S    
C153  C181  1.398352 A    
C173  C181  1.406494 A    
C25   C35   1.392025 A    
C162  C169  1.428349 A    
C55   N63   1.439586 S    
C151  C167  1.413927 A    
C29   C39   1.393182 A    
C10   N50   1.432702 S    
C7    C39   1.392229 A    
C31   C37   1.392686 A    
C166  C173  1.428419 A    
C15   N55   1.429714 S    
C164  C167  1.417360 A    
C18   C42   1.362750 A    
C6    H6    1.074083 S    
C124  C156  1.396614 A    
N61   O41   1.301094 A    
C23   N23   1.329503 A    
N56   O31   1.300656 A    
C52   C92   1.400212 A    
C24   N24   1.326794 A    
C136  C191  1.443937 S    
N51   O21   1.300911 A    
C116  C132  1.417584 A    
N3    Ni2   1.875318 S    
C65   C73   1.386063 A    
N25   Ni6   1.856382 S    
C62   C70   1.387958 A    
C55   C95   1.387900 A    
C163  C168  1.417460 A    
N59   O37   1.301236 A    
N10   N18   1.355779 A    
C173  N45   1.437967 S    
C152  C168  1.427389 A    
C131  C188  1.441200 S    
C50   C90   1.401627 A    
C87   C95   1.419050 A    
N66   O51   1.300520 A    
N14   N22   1.355779 A    
C73   C97   1.411356 A    
C27   N27   1.336664 A    
C102  N70   1.436164 S    
C29   H21   1.077157 S    
C26   N26   1.344487 A    
C71   H31   1.082912 S    
N29   Ni8   1.856382 S    
C99   C111  1.392570 A    
C31   H23   1.077511 S    
C40   C118  1.487553 S    
C119  C135  1.421780 A    
C3    C35   1.391548 A    
C117  C141  1.404314 A    
C35   C113  1.498442 S    
C103  N71   1.436043 S    
C146  C162  1.427312 A    
C114  C130  1.417434 A    
N60   O39   1.301070 A    
C50   N58   1.438133 S    
C33   C115  1.498340 S    
C60   C68   1.387954 A    
N64   O47   1.301133 A    
N41   O2    1.301634 A    
C89   C106  1.397934 A    
C180  H44   1.084133 S    
C181  H45   1.083934 S    
C81   C86   1.392356 A    
C19   N19   1.331411 A    
C93   C110  1.397964 A    
C149  C165  1.414206 A    
C167  C176  1.421460 A    
C20   H12   1.080658 S    
C183  H47   1.083973 S    
N17   Ni2   1.876800 S    
C21   H13   1.079442 S    
C140  H51   1.075906 S    
N49   O18   1.299433 A    
C123  C131  1.405975 A    
C141  H54   1.079198 S    
C70   H30   1.083352 S    
C121  C129  1.406254 A    
N42   O4    1.301718 A    
N24   Ni4   1.876679 S    
N53   O26   1.299303 A    
N13   Ni7   1.857598 S    
N26   Ni5   1.856383 S    
C3    H3    1.074434 S    
N50   O19   1.300736 A    
C54   N62   1.437826 S    
C26   C36   1.401676 A    
C58   C66   1.387626 A    
N47   O14   1.301630 A    
N46   O12   1.301708 A    
C16   N56   1.432461 S    
N2    Ni2   1.875512 S    
C187  N35   1.157671 T    
C78   C102  1.408973 A    
N2    N28   1.419734 A    
N58   O36   1.301175 A    
C185  N33   1.157667 T    
C5    N5    1.345752 A    
C133  C190  1.441134 S    
C142  H53   1.075762 S    
C174  N46   1.441104 S    
C79   C103  1.411299 A    
C68   H28   1.083386 S    
C9    C41   1.385054 A    
C18   H10   1.080551 S    
C102  C106  1.383012 A    
C138  H49   1.075791 S    
N52   O24   1.299999 A    
C95   C112  1.397913 A    
N43   O6    1.301630 A    
N10   Ni6   1.857598 S    
C96   C111  1.400141 A    
C17   C41   1.372266 A    
C27   H19   1.077249 S    
N14   Ni8   1.857598 S    
C178  H42   1.084124 S    
N20   Ni2   1.876679 S    
C56   C96   1.400940 A    
C69   H29   1.082721 S    
C155  C183  1.398085 A    
C98   N66   1.437869 S    
C147  C155  1.403666 A    
C104  N72   1.436430 S    
C28   H20   1.074542 S    
C135  C192  1.441227 S    
C77   C101  1.412518 A    
C146  C154  1.416665 A    
N18   Ni1   1.876801 S    
C75   C99   1.412558 A    
N30   Ni7   1.856383 S    
C32   H24   1.074052 S    
C20   C44   1.365607 A    
C74   C82   1.413933 A    
C7    N7    1.346081 A    
C79   C87   1.416462 A    
C8    N8    1.334987 A    
C138  C146  1.407949 A    
N72   O64   1.301292 A    
N65   O50   1.301352 A    
C67   C75   1.387168 A    
C123  H59   1.085281 S    
C154  C182  1.393345 A    
C49   C57   1.392621 A    
N54   O27   1.300692 A    
C142  C150  1.408050 A    
N48   O16   1.301716 A    
N3    N25   1.419737 A    
N8    N30   1.419735 A    
C9    N9    1.335868 A    
C30   N30   1.344525 A    
C164  C171  1.428509 A    
N62   O44   1.301152 A    
N57   O33   1.301140 A    
C168  C175  1.428420 A    
C29   N29   1.336453 A    
C170  N42   1.441165 S    
N19   Ni1   1.876677 S    
C56   N64   1.437330 S    
C73   C81   1.416497 A    
C37   C119  1.497033 S    
C63   C71   1.386495 A    
N4    N26   1.419735 A    
C64   C72   1.386931 A    
C127  H63   1.085282 S    
C128  H64   1.085945 S    
N31   Ni7   1.858680 S    
C145  C161  1.414230 A    
N63   O45   1.301086 A    
C6    N6    1.334662 A    
C140  C148  1.408458 A    
N11   N19   1.355780 A    
C44   C57   1.411816 S    
C189  N37   1.157668 T    
N44   O8    1.301717 A    
N45   O10   1.301636 A    
C66   H26   1.084006 S    
C171  C179  1.406230 A    
C51   N59   1.441415 S    
C91   C108  1.398877 A    
C172  C180  1.393846 A    
C48   C61   1.413413 S    
C171  N43   1.436924 S    
N6    N32   1.419734 A    
C72   H32   1.083666 S    
C127  C159  1.402470 A    
C125  C133  1.405994 A    
C184  H48   1.084139 S    
C76   C84   1.414435 A    
C115  C139  1.404218 A    
C143  C151  1.397714 A    
C176  N48   1.441087 S    
C23   C47   1.372498 A    
C161  C166  1.417342 A    
C28   N28   1.344625 A    
C1    H1    1.074284 S    
C188  N36   1.157741 T    
N22   Ni3   1.876801 S    
C65   H25   1.082897 S    
C90   C105  1.400867 A    
C125  H61   1.085334 S    
C113  C137  1.404374 A    
C190  N38   1.157902 T    
C123  C155  1.402554 A    
C182  H46   1.084123 S    
C82   C85   1.392218 A    
C97   C109  1.391557 A    
C14   N54   1.432697 S    
C121  C153  1.402858 A    
C106  H34   1.082515 S    
C127  C135  1.405621 A    
C13   C45   1.384203 A    
C160  C180  1.393272 A    
N56   O32   1.299956 A    
N11   Ni6   1.859889 S    
C21   C45   1.373499 A    
C110  H38   1.082153 S    
C43   C58   1.422220 S    
C31   N31   1.336002 A    
N15   Ni8   1.859889 S    
C156  C184  1.393195 A    
C157  C177  1.398082 A    
C76   C100  1.408953 A    
N55   O29   1.300867 A    
C117  C133  1.422161 A    
N13   N21   1.355780 A    
N66   O52   1.301097 A    
N4    Ni1   1.875321 S    
C86   C94   1.420613 A    
C59   C67   1.386938 A    
C49   N57   1.439585 S    
C161  C170  1.421693 A    
C57   C65   1.386622 A    
N70   O59   1.300932 A    
N71   O61   1.301317 A    
C56   C64   1.392975 A    
C68   C76   1.372690 A    
C165  C174  1.421634 A    
C69   C77   1.387227 A    
C145  C153  1.403696 A    
C78   C86   1.414479 A    
N61   O42   1.301116 A    
N68   O55   1.300919 A    
C17   N17   1.329421 A    
C72   C80   1.374042 A    
C111  H39   1.081730 S    
C19   H11   1.079542 S    
N60   O40   1.301154 A    
C100  N68   1.436216 S    
C20   N20   1.328451 A    
N6    Ni4   1.875512 S    
N7    Ni4   1.875318 S    
C21   N21   1.331135 A    
C139  H52   1.079470 S    
C100  C112  1.382923 A    
C38   C120  1.487765 S    
N64   O48   1.301087 A    
C179  H43   1.083996 S    
C12   N52   1.432624 S    
N32   Ni8   1.858683 S    
C104  C108  1.383623 A    
C12   N12   1.329853 A    
C80   C88   1.414810 A    
N41   O1    1.301587 A    
C13   N13   1.335144 A    
N69   O58   1.301332 A    
C84   C92   1.420664 A    
C139  C147  1.398399 A    
C85   C93   1.419082 A    
C4    C36   1.390702 A    
C26   H18   1.074037 S    
N43   O5    1.301423 A    
C88   C96   1.420804 A    
C175  N47   1.437797 S    
N5    N31   1.419732 A    
C30   H22   1.074141 S    
N49   O17   1.300868 A    
C8    C40   1.390889 A    
C128  C160  1.396702 A    
C77   C85   1.417172 A    
C114  C138  1.407255 A    
N53   O25   1.300844 A    
C22   C46   1.365397 A    
C75   C83   1.417034 A    
C80   C104  1.408842 A    
C118  C142  1.407366 A    
N50   O20   1.300041 A    
C144  C152  1.408156 A    
C147  C163  1.414180 A    
C112  H40   1.082517 S    
C70   C78   1.373010 A    
C134  C189  1.443937 S    
C27   C33   1.393115 A    
C25   H17   1.076661 S    
C151  C159  1.403391 A    
N21   Ni4   1.876800 S    
N58   O35   1.301076 A    
C132  C187  1.444004 S    
C94   C109  1.400590 A    
C120  C136  1.417765 A    
C25   N25   1.336829 A    
C10   N10   1.332772 A    
C52   C60   1.393631 A    
C30   C40   1.402023 A    
N63   O46   1.301142 A    
C148  C164  1.427742 A    
N27   Ni5   1.858680 S    
C130  C185  1.443923 S    
C81   C89   1.419022 A    
C12   C44   1.372199 A    
C128  C136  1.393191 A    
C129  C186  1.441179 S    
C24   C48   1.365238 A    
C22   H14   1.080660 S    
C122  C130  1.393309 A    
C116  C140  1.407666 A    
N16   Ni7   1.859892 S    
C9    N49   1.429761 S    
C42   C59   1.411791 S    
C53   N61   1.439144 S    
C120  C144  1.407437 A    
C126  C158  1.396841 A    
C46   C63   1.411175 S    
C121  H57   1.085254 S    
C67   H27   1.082957 S    
C143  H56   1.079605 S    
C144  H55   1.075815 S    
C124  H60   1.085957 S    
N28   Ni6   1.858683 S    
C141  C149  1.398276 A    
N1    N27   1.419732 A    
C15   C47   1.385075 A    
C125  C157  1.402518 A    
N67   O54   1.301480 A    
C115  C131  1.421991 A    
N1    Ni1   1.875512 S    
N55   O30   1.299420 A    
C113  C129  1.421725 A    
C61   C69   1.387415 A    
C34   C116  1.487552 S    
N59   O38   1.301157 A    
C97   N65   1.436075 S    
C174  C182  1.393977 A    
N65   O49   1.301314 A    
N5    Ni3   1.875512 S    
C10   C42   1.374035 A    
N54   O28   1.299998 A    
C150  C158  1.416597 A    
N9    Ni5   1.857598 S    
N23   Ni3   1.876677 S    
C2    H2    1.073949 S    
N42   O3    1.301309 A    
C23   H15   1.079541 S    
C52   N60   1.437812 S    
C24   H16   1.080864 S    
C1    C33   1.392032 A    
C163  C172  1.421622 A    
C51   C91   1.389461 A    
C126  H62   1.085935 S    
C49   C89   1.388109 A    
C2    N2    1.334863 A    
N12   N20   1.355781 A    
C5    C37   1.391772 A    
C98   C110  1.382770 A    
C4    N4    1.335167 A    
N9    N17   1.355780 A    
N15   N23   1.355780 A    
C92   C107  1.400539 A    
C13   N53   1.429856 S    
N16   N24   1.355781 A    
C107  H35   1.082092 S    
N46   O11   1.301288 A    
C83   C88   1.393219 A    
C105  H33   1.082097 S    
C169  N41   1.437801 S    
C99   N67   1.438235 S    
N71   O62   1.301350 A    
C53   C61   1.392597 A    
C108  H36   1.082449 S    
C109  H37   1.082092 S    
C71   C79   1.385843 A    
C15   N15   1.335850 A    
C158  C178  1.393256 A    
C16   N16   1.331577 A    
N45   O9    1.301636 A    
C148  C156  1.416858 A    
C50   C58   1.395167 A    
C119  C143  1.403875 A    
C1    N1    1.345860 A    
N52   O23   1.300695 A    
N7    N29   1.419737 A    
C137  C145  1.398295 A    
N12   Ni5   1.859892 S    
C152  C160  1.416576 A    
N72   O63   1.301102 A    
C54   C62   1.393809 A    
C170  C178  1.393965 A    
C55   C63   1.392475 A    
C66   C74   1.371947 A    
