data_mof_unit_36175.cif
_audit_creation_date              2012-12-10T20:34:54-0500
_audit_creation_method            fapswitch 2.2
_symmetry_space_group_name_H-M    P1
_symmetry_Int_Tables_number       1
_space_group_crystal_system       triclinic
_cell_length_a                    10.672836
_cell_length_b                    10.637405
_cell_length_c                    9.867797
_cell_angle_alpha                 89.3722
_cell_angle_beta                  88.484211
_cell_angle_gamma                 90.795168
_cell_volume                      1119.73187577

loop_
_atom_site_label
_atom_site_type_symbol
_atom_type_description
_atom_site_fract_x
_atom_site_fract_y
_atom_site_fract_z
_atom_type_partial_charge
C1    C     C_R   0.505821 0.259873 0.500306 0.866610
C2    C     C_3   0.878325 0.491310 0.499753 0.086261
C3    C     C_3   0.926403 0.625582 0.456460 -0.481431
C4    C     C_3   0.931932 0.398551 0.395899 -0.419456
C5    C     C_R   0.531047 0.062377 0.622413 0.183631
C6    C     C_R   0.531341 0.128988 0.500438 -0.104989
C7    C     C_R   0.559721 0.067162 0.378529 -0.252897
C8    C     C_R   0.560460 0.936894 0.377892 -0.231739
C9    C     C_R   0.532454 0.871179 0.499078 -0.105648
C10   C     C_R   0.531721 0.934241 0.621775 0.116123
C11   C     C_3   0.441739 0.923118 0.740028 -0.486851
C12   C     C_R   0.257620 0.502226 0.502273 0.867523
C13   C     C_3   0.440708 0.065106 0.740308 -0.519836
C14   C     C_R   0.458659 0.396888 0.073736 0.212566
C15   C     C_R   0.549258 0.598300 0.069347 -0.141049
C16   C     C_R   0.549351 0.598279 0.925466 -0.169622
C17   C     C_R   0.459843 0.396147 0.931074 0.213697
C18   C     C_3   0.331950 0.338351 0.930016 -0.536537
C19   C     C_3   0.329890 0.341550 0.083426 -0.517701
C20   C     C_R   0.506556 0.740005 0.499241 0.896965
C21   C     C_R   0.741922 0.492943 0.498992 0.864082
C22   C     C_3   0.068611 0.465821 0.654466 0.278293
C23   C     C_3   0.923596 0.455688 0.646647 -0.216917
C24   C     C_3   0.068827 0.636304 0.474431 -0.150087
C25   C     C_3   0.074788 0.399274 0.406503 -0.495805
C26   C     C_3   0.120831 0.501807 0.507693 0.058741
H1    H     H_    0.906910 0.427495 0.291396 0.190280
H2    H     H_    0.902613 0.645867 0.349525 0.194711
H3    H     H_    0.570699 0.117872 0.283040 0.167793
H4    H     H_    0.571585 0.888897 0.282155 0.163169
H5    H     H_    0.350144 0.880070 0.713440 0.210594
H6    H     H_    0.485533 0.882211 0.831096 0.193578
H7    H     H_    0.348553 0.104235 0.712831 0.192841
H8    H     H_    0.484443 0.105025 0.831511 0.204476
H9    H     H_    0.587671 0.678395 0.121448 0.147641
H10   H     H_    0.109090 0.374171 0.685147 0.082752
H11   H     H_    0.588635 0.677945 0.869348 0.151365
H12   H     H_    0.263777 0.400093 0.881471 0.232815
H13   H     H_    0.330460 0.241447 0.891786 0.196153
H14   H     H_    0.260514 0.408336 0.125355 0.202964
H15   H     H_    0.328198 0.246603 0.131742 0.197509
H16   H     H_    0.884484 0.531051 0.710405 0.169925
H17   H     H_    0.077877 0.692315 0.567963 0.182727
H18   H     H_    0.878498 0.698095 0.519134 0.146146
H19   H     H_    0.116428 0.411786 0.303753 0.193735
H20   H     H_    0.107497 0.305509 0.439335 0.150419
H21   H     H_    0.891846 0.302563 0.411422 0.174677
N1    N     N_R   0.499150 0.499140 0.142800 -0.100813
N2    N     N_R   0.499150 0.499180 0.857150 -0.100698
O1    O     O_R   0.500020 0.316790 0.614690 -0.610661
O2    O     O_R   0.500000 0.316760 0.385350 -0.629381
O3    O     O_R   0.314800 0.500000 0.614670 -0.582998
O4    O     O_R   0.314790 0.499960 0.385330 -0.620471
O5    O     O_R   0.500000 0.683240 0.614650 -0.621033
O6    O     O_R   0.499980 0.683210 0.385310 -0.614173
O7    O     O_R   0.685210 0.500040 0.614670 -0.639750
O8    O     O_R   0.685200 0.500000 0.385330 -0.625784
Zn1   Zn    Zn3+2 0.500010 0.500020 0.653130 0.949830
Zn2   Zn    Zn3+2 0.499990 0.499980 0.346870 0.938543
O9    O     O_3   0.108951 0.559442 0.748071 -0.648710
C27   C     C_3   0.054961 0.548182 0.880657 0.064517
H22   H     H_    0.131254 0.542777 0.954072 0.137137
H23   H     H_    0.997643 0.461238 0.897889 0.138649
C28   C     C_3   0.980506 0.667555 0.913012 -0.344933
H24   H     H_    0.046020 0.743696 0.942731 0.216503
H25   H     H_    0.932216 0.702743 0.822115 0.215417
C29   C     C_3   0.882846 0.644994 0.026480 -0.981350
H26   H     H_    0.808727 0.580037 0.992094 0.260450
H27   H     H_    0.839252 0.735368 0.055307 0.259785
H28   H     H_    0.925925 0.602845 0.116521 0.258812
C30   C     C_R   0.138433 0.716864 0.365907 0.127083
C31   C     C_R   0.186566 0.836139 0.401482 -0.186575
C32   C     C_R   0.254893 0.910303 0.307258 -0.116572
C33   C     C_R   0.279510 0.865705 0.177120 -0.116526
C34   C     C_R   0.232582 0.748419 0.139978 -0.135978
C35   C     C_R   0.159651 0.675914 0.232272 -0.063892
H29   H     H_    0.171780 0.872402 0.502693 0.107976
H30   H     H_    0.290287 0.001772 0.336008 0.135190
H31   H     H_    0.334770 0.922065 0.105015 0.119043
H32   H     H_    0.252799 0.713958 0.039146 0.130562
H33   H     H_    0.122550 0.587577 0.199088 0.099834
C36   C     C_R   0.872228 0.329690 0.706704 0.086123
C37   C     C_R   0.783427 0.330722 0.815221 -0.092202
C38   C     C_R   0.737699 0.218844 0.874764 -0.145269
C39   C     C_R   0.779858 0.103459 0.827622 -0.111607
C40   C     C_R   0.868869 0.099925 0.721864 -0.130801
C41   C     C_R   0.915681 0.211702 0.662843 -0.180806
H34   H     H_    0.749200 0.418454 0.854368 0.127838
H35   H     H_    0.669650 0.221640 0.957897 0.108734
H36   H     H_    0.744027 0.016829 0.873471 0.118320
H37   H     H_    0.902869 0.010333 0.686435 0.121238
H38   H     H_    0.987755 0.204137 0.585510 0.119203

loop_
_geom_bond_atom_site_label_1
_geom_bond_atom_site_label_2
_ccdc_geom_bond_type
C7    H3    S    
C23   C36   S    
O6    Zn2   S    
C32   C33   A    
C18   H13   S    
C4    C25   S    
O4    Zn2   S    
C7    C8    A    
C39   C40   A    
C21   O8    A    
C23   H16   S    
C3    H2    S    
C24   C26   S    
C40   H37   S    
C22   O9    S    
C5    C6    A    
O8    Zn2   S    
C36   C41   A    
C18   C19   S    
C27   H23   S    
C8    C9    A    
C32   H30   S    
C1    O1    A    
C5    C13   S    
C12   O4    A    
C16   H11   S    
C37   H34   S    
C11   H5    S    
C41   H38   S    
C14   C17   A    
C3    C24   S    
C15   N1    A    
C20   O6    A    
C9    C10   A    
C15   H9    S    
C12   O3    A    
C3    H18   S    
C33   C34   A    
C1    C6    S    
O1    Zn1   S    
C28   C29   S    
C16   N2    A    
C20   O5    A    
C19   H14   S    
C17   N2    A    
C40   C41   A    
C14   N1    A    
C25   C26   S    
N2    Zn1   S    
C29   H26   S    
C12   C26   S    
O9    C27   S    
C29   H27   S    
C28   H25   S    
C27   C28   S    
C2    C4    S    
C34   C35   A    
C13   H7    S    
C31   H29   S    
C9    C20   S    
C37   C38   A    
C2    C21   S    
C17   C18   S    
C38   C39   A    
C1    O2    A    
O3    Zn1   S    
C11   H6    S    
C33   H31   S    
O2    Zn2   S    
C38   H35   S    
C25   H19   S    
C4    H1    S    
N1    Zn2   S    
O5    Zn1   S    
C14   C19   S    
C31   C32   A    
C35   H33   S    
C21   O7    A    
C39   H36   S    
C6    C7    A    
C22   H10   S    
C29   H28   S    
C8    H4    S    
C28   H24   S    
C2    C3    S    
C18   H12   S    
C5    C10   A    
C11   C13   S    
C30   C35   A    
C15   C16   A    
O7    Zn1   S    
C27   H22   S    
C10   C11   S    
C13   H8    S    
C34   H32   S    
C30   C31   A    
C36   C37   A    
C22   C26   S    
C2    C23   S    
C24   H17   S    
C22   C23   S    
C25   H20   S    
C19   H15   S    
C24   C30   S    
C4    H21   S    
