data_mof_unit_21409.cif
_audit_creation_date              2012-12-10T17:08:44-0500
_audit_creation_method            fapswitch 2.2
_symmetry_space_group_name_H-M    P1
_symmetry_Int_Tables_number       1
_space_group_crystal_system       triclinic
_cell_length_a                    27.781532
_cell_length_b                    11.03755
_cell_length_c                    9.754226
_cell_angle_alpha                 110.402544
_cell_angle_beta                  98.147523
_cell_angle_gamma                 90.601064
_cell_volume                      2769.31308348

loop_
_atom_site_label
_atom_site_type_symbol
_atom_type_description
_atom_site_fract_x
_atom_site_fract_y
_atom_site_fract_z
_atom_type_partial_charge
C1    C     C_R   0.498647 0.254452 0.442563 0.872349
C2    C     C_R   0.505153 0.745444 0.557648 0.870746
C3    C     C_R   0.101122 0.517800 0.490609 -0.162532
C4    C     C_R   0.896868 0.515254 0.477980 -0.157389
C5    C     C_R   0.122537 0.401062 0.417686 -0.120157
C6    C     C_R   0.873755 0.633921 0.506550 -0.112652
C7    C     C_R   0.091920 0.287737 0.338245 0.420861
C8    C     C_R   0.902327 0.749053 0.532871 0.411811
C9    C     C_R   0.130388 0.635152 0.559472 -0.161675
C10   C     C_R   0.868757 0.397224 0.441191 -0.178216
C11   C     C_R   0.354551 0.515455 0.508144 -0.189071
C12   C     C_R   0.645407 0.504711 0.494867 -0.183054
C13   C     C_R   0.971336 0.396846 0.447843 -0.069587
C14   C     C_R   0.028275 0.634153 0.557620 -0.068150
C15   C     C_R   0.976632 0.633509 0.532354 0.042662
C16   C     C_R   0.021261 0.399142 0.430564 0.048341
C17   C     C_R   0.948264 0.514998 0.485857 0.037218
C18   C     C_R   0.050233 0.517130 0.493249 0.039538
C19   C     C_R   0.943834 0.281979 0.430049 0.291425
C20   C     C_R   0.058688 0.746050 0.646076 0.295415
C21   C     C_R   0.892844 0.280467 0.418764 0.386700
C22   C     C_R   0.109051 0.748413 0.642325 0.373021
C23   C     C_R   0.407432 0.504767 0.502812 0.841553
C24   C     C_R   0.592565 0.500074 0.498400 0.861869
C25   C     C_R   0.042168 0.289023 0.343513 -0.148437
C26   C     C_R   0.952658 0.746786 0.542500 -0.146805
C27   C     C_2   0.501888 0.116776 0.415787 -0.387733
C28   C     C_2   0.509342 0.883461 0.586524 -0.359576
C29   C     C_2   0.521750 0.071619 0.521706 0.320916
C30   C     C_2   0.521720 0.932356 0.486973 0.329784
C31   C     C_2   0.505808 0.504901 0.079483 -0.008682
C32   C     C_2   0.496748 0.486949 0.917918 -0.012157
C33   C     C_R   0.173672 0.403216 0.426658 0.635853
C34   C     C_R   0.823048 0.632289 0.507607 0.573710
C35   C     C_R   0.180492 0.632626 0.548229 0.580180
C36   C     C_R   0.817697 0.402018 0.435447 0.673635
C37   C     C_R   0.282920 0.511960 0.626940 0.378146
C38   C     C_R   0.729096 0.486893 0.598366 0.367700
C39   C     C_R   0.334117 0.521123 0.635348 0.376673
C40   C     C_R   0.678526 0.470054 0.596804 0.321951
C41   C     C_R   0.323792 0.519550 0.382604 -0.278315
C42   C     C_R   0.662888 0.542701 0.386776 -0.265400
C43   C     C_R   0.273750 0.524251 0.380369 -0.152340
C44   C     C_R   0.712579 0.547771 0.380512 -0.169534
C45   C     C_R   0.253027 0.517608 0.499979 0.206758
C46   C     C_R   0.745721 0.519339 0.485265 0.207978
Cu1   Cu    Cu3+1 0.508480 0.521810 0.644910 1.010532
Cu2   Cu    Cu3+1 0.491520 0.478190 0.355090 0.984724
H1    H     H_    0.338426 0.519668 0.285464 0.193669
H2    H     H_    0.638002 0.567848 0.306270 0.200975
H3    H     H_    0.501120 0.947310 0.692609 0.168184
H4    H     H_    0.487369 0.049750 0.305615 0.170937
H5    H     H_    0.468522 0.415752 0.845064 0.192099
H6    H     H_    0.536058 0.569701 0.150199 0.203956
H7    H     H_    0.547751 0.621765 0.934219 0.224488
H8    H     H_    0.450088 0.384822 0.067771 0.207369
H9    H     H_    0.250698 0.528813 0.283165 0.170202
H10   H     H_    0.725413 0.573543 0.293913 0.172634
H11   H     H_    0.019572 0.203605 0.273218 0.223189
H12   H     H_    0.972861 0.834654 0.553082 0.235979
N1    N     N_R   0.201085 0.517458 0.491992 -0.461338
N2    N     N_R   0.796709 0.518048 0.473964 -0.453906
N3    N     N_2   0.478780 0.445430 0.137360 -0.286048
N4    N     N_2   0.521220 0.554570 0.862640 -0.287787
O1    O     O_R   0.504520 0.332330 0.577400 -0.514120
O2    O     O_R   0.495480 0.667670 0.422600 -0.527293
O3    O     O_R   0.490210 0.295500 0.332650 -0.574929
O4    O     O_R   0.509790 0.704500 0.667350 -0.594598
O5    O     O_R   0.437420 0.518430 0.622370 -0.561282
O6    O     O_R   0.562580 0.481570 0.377630 -0.589526
O7    O     O_R   0.423110 0.481600 0.377610 -0.584977
O8    O     O_R   0.576890 0.518400 0.622390 -0.519164
O9    O     O_2   0.196296 0.292975 0.372673 -0.429020
O10   O     O_2   0.799964 0.743260 0.545141 -0.467778
O11   O     O_2   0.788647 0.292642 0.392774 -0.461851
O12   O     O_2   0.208862 0.743345 0.592316 -0.478069
Cl1   Cl    Cl    0.112223 0.141612 0.222747 -0.401674
Cl2   Cl    Cl    0.878303 0.900421 0.552017 -0.395666
O13   O     O_3   0.660843 0.419356 0.693006 -0.590568
C47   C     C_3   0.671115 0.287113 0.658118 0.123437
H13   H     H_    0.657300 0.253765 0.741222 0.209435
H14   H     H_    0.710858 0.274081 0.670275 0.194352
C48   C     C_3   0.646042 0.200235 0.502871 -0.401591
H15   H     H_    0.606672 0.217374 0.489643 0.245126
H16   H     H_    0.662169 0.224089 0.416720 0.222814
C49   C     C_3   0.652331 0.057289 0.477693 -0.740964
H17   H     H_    0.691636 0.038544 0.489252 0.270354
H18   H     H_    0.634671 0.997551 0.364165 0.283826
H19   H     H_    0.635206 0.028147 0.558615 0.278337
O14   O     O_3   0.363953 0.526536 0.764224 -0.578514
C50   C     C_3   0.364244 0.651477 0.874549 0.047199
H20   H     H_    0.366235 0.638621 0.983192 0.169087
H21   H     H_    0.330917 0.703955 0.860748 0.113673
C51   C     C_3   0.408560 0.737570 0.879812 -0.316898
H22   H     H_    0.442299 0.688960 0.896980 0.255757
H23   H     H_    0.406442 0.754354 0.773274 0.208756
C52   C     C_3   0.411182 0.868161 0.005746 -0.871415
H24   H     H_    0.378054 0.920577 0.991061 0.264460
H25   H     H_    0.443592 0.928055 0.006022 0.267300
H26   H     H_    0.414531 0.854231 0.114076 0.264896
O15   O     O_3   0.762617 0.462098 0.702935 -0.598790
C53   C     C_3   0.767905 0.570045 0.836155 0.055384
H27   H     H_    0.732542 0.588868 0.878926 0.174202
H28   H     H_    0.781721 0.657904 0.818593 0.171039
C54   C     C_3   0.804626 0.541982 0.952011 -0.344674
H29   H     H_    0.791628 0.453088 0.968345 0.237638
H30   H     H_    0.840318 0.524629 0.911733 0.248060
C55   C     C_3   0.811471 0.654268 0.100300 -0.792238
H31   H     H_    0.825260 0.743892 0.087390 0.290088
H32   H     H_    0.838329 0.630463 0.181396 0.256668
H33   H     H_    0.776414 0.671660 0.144198 0.253848
O16   O     O_3   0.262963 0.471361 0.727483 -0.563361
C56   C     C_3   0.244812 0.575371 0.835413 0.035244
H34   H     H_    0.240287 0.663980 0.806240 0.164329
H35   H     H_    0.270729 0.602106 0.940625 0.151884
C57   C     C_3   0.195973 0.530340 0.862723 -0.329480
H36   H     H_    0.169810 0.497164 0.757828 0.228770
H37   H     H_    0.201250 0.447164 0.901447 0.253709
C58   C     C_3   0.174476 0.638656 0.978615 -0.796294
H38   H     H_    0.199558 0.671241 0.085810 0.256617
H39   H     H_    0.139122 0.602646 0.995478 0.270217
H40   H     H_    0.168069 0.722063 0.941121 0.296235
Cl3   Cl    Cl    0.861180 0.129038 0.380399 -0.382052
Cl4   Cl    Cl    0.144404 0.893234 0.753438 -0.404301
Cl5   Cl    Cl    0.972678 0.146159 0.454089 -0.465838
Cl6   Cl    Cl    0.036601 0.874209 0.786485 -0.449801
Cl7   Cl    Cl    0.540330 0.837776 0.317408 -0.700121
Cl8   Cl    Cl    0.549105 0.170791 0.703528 -0.641084

loop_
_geom_bond_atom_site_label_1
_geom_bond_atom_site_label_2
_ccdc_geom_bond_type
C21   Cl3   S    
O15   C53   S    
C27   C29   D    
C8    C26   A    
C14   C18   A    
C52   H24   S    
O14   C50   S    
C24   O6    A    
C55   H31   S    
C54   H30   S    
C46   N2    S    
C19   C21   A    
C38   O15   S    
C2    O4    A    
C3    C18   A    
C11   C39   A    
C28   H3    S    
C49   H18   S    
C9    C22   A    
C34   N2    A    
C57   H36   S    
C14   C20   A    
C11   C23   S    
C34   O10   S    
C23   O5    A    
Cu1   O5    S    
C37   O16   S    
C12   C42   A    
C53   C54   S    
C48   H15   S    
C44   H10   S    
C5    C33   A    
C1    O1    A    
C39   O14   S    
C7    Cl1   S    
C56   C57   S    
Cu2   O3    S    
C8    Cl2   S    
C41   C43   A    
C53   H27   S    
C42   C44   A    
C47   C48   S    
C36   N2    A    
C41   H1    S    
O16   C56   S    
C52   H25   S    
C44   C46   A    
C58   H39   S    
C10   C21   A    
C54   C55   S    
C35   O12   S    
C40   O13   S    
C13   C19   A    
C31   N3    D    
C32   N4    D    
C47   H14   S    
Cu1   N4    S    
C5    C7    A    
C49   H17   S    
C15   C26   A    
C6    C8    A    
C51   C52   S    
C3    C5    A    
C19   Cl5   S    
Cu2   N3    S    
C12   C40   A    
C51   H23   S    
C20   Cl6   S    
C29   C30   S    
C3    C9    A    
C36   O11   S    
C23   O7    A    
C50   H21   S    
Cu1   Cu2   S    
H7    N4    S    
H8    N3    S    
C35   N1    A    
C16   C18   A    
C53   H28   S    
C43   C45   A    
C42   H2    S    
C4    C17   A    
C4    C6    A    
C48   H16   S    
C20   C22   A    
C29   Cl8   S    
Cu2   O7    S    
C37   C45   A    
C32   H5    S    
C50   H20   S    
C52   H26   S    
C27   H4    S    
C24   O8    A    
C9    C35   A    
C56   H34   S    
C58   H40   S    
C33   O9    S    
C16   C25   A    
C15   C17   A    
C30   Cl7   S    
C31   C32   S    
C4    C10   A    
Cu2   O6    S    
C47   H13   S    
C2    O2    A    
C49   H19   S    
C10   C36   A    
C58   H38   S    
C57   C58   S    
C22   Cl4   S    
C54   H29   S    
C12   C24   S    
C7    C25   A    
C55   H33   S    
C13   C17   A    
C28   C30   D    
C37   C39   A    
C50   C51   S    
C38   C40   A    
Cu1   O4    S    
C55   H32   S    
C45   N1    S    
C1    O3    A    
C57   H37   S    
C11   C41   A    
C31   H6    S    
C51   H22   S    
Cu1   O8    S    
C38   C46   A    
C43   H9    S    
O13   C47   S    
C6    C34   A    
C48   C49   S    
C33   N1    A    
C13   C16   A    
C1    C27   S    
C14   C15   A    
C2    C28   S    
C25   H11   S    
Cu2   O2    S    
C26   H12   S    
Cu1   O1    S    
C56   H35   S    
