data_mof_unit_29700.cif
_audit_creation_date              2012-12-10T20:50:09-0500
_audit_creation_method            fapswitch 2.2
_symmetry_space_group_name_H-M    P1
_symmetry_Int_Tables_number       1
_space_group_crystal_system       triclinic
_cell_length_a                    18.711904
_cell_length_b                    8.933642
_cell_length_c                    8.069186
_cell_angle_alpha                 89.999943
_cell_angle_beta                  90.078811
_cell_angle_gamma                 90.000028
_cell_volume                      1348.88784465

loop_
_atom_site_label
_atom_site_type_symbol
_atom_type_description
_atom_site_fract_x
_atom_site_fract_y
_atom_site_fract_z
_atom_type_partial_charge
C1    C     C_R   0.500000 0.217828 0.500000 0.908207
C2    C     C_R   0.249113 0.437174 0.350829 0.421004
C3    C     C_R   0.186534 0.337118 0.646314 -0.266378
C4    C     C_R   0.813465 0.337117 0.353685 -0.266379
C5    C     C_R   0.818578 0.371941 0.650428 -0.276468
C6    C     C_R   0.181421 0.371947 0.349571 -0.276468
C7    C     C_R   0.148666 0.327184 0.497253 -0.042383
C8    C     C_R   0.851333 0.327181 0.502746 -0.042383
C9    C     C_R   0.288082 0.445608 0.501112 -0.280239
C10   C     C_R   0.711917 0.445606 0.498888 -0.280239
C11   C     C_R   0.927721 0.290155 0.501511 0.339308
C12   C     C_R   0.500000 0.782184 0.500000 0.933540
C13   C     C_R   0.072278 0.290157 0.498488 0.339308
C14   C     C_3   0.330725 0.261873 0.825497 0.198889
C15   C     C_3   0.291303 0.158009 0.945419 -0.391280
C16   C     C_3   0.340042 0.032203 0.006003 -0.953175
C17   C     C_3   0.669274 0.261879 0.174498 0.198900
C18   C     C_3   0.708699 0.158008 0.054588 -0.391290
C19   C     C_3   0.659958 0.032210 0.993991 -0.953173
C20   C     C_3   0.738714 0.630524 0.834189 0.153477
C21   C     C_3   0.809377 0.640166 0.930714 -0.362710
C22   C     C_3   0.819480 0.793469 0.010554 -0.948525
C23   C     C_R   0.363851 0.491830 0.500171 0.890043
C24   C     C_3   0.261284 0.630530 0.165813 0.153473
C25   C     C_3   0.190622 0.640171 0.069285 -0.362707
C26   C     C_3   0.180518 0.793474 0.989446 -0.948526
C27   C     C_R   0.636149 0.491829 0.499829 0.890043
C28   C     C_1   0.500000 0.065181 0.500000 -0.214269
C29   C     C_1   0.500000 0.934880 0.500000 -0.210052
C30   C     C_R   0.256383 0.390775 0.649160 0.418373
C31   C     C_R   0.743616 0.390774 0.350839 0.418373
C32   C     C_R   0.750886 0.437170 0.649172 0.421009
H1    H     H_    0.161970 0.303932 0.762104 0.168839
H2    H     H_    0.311185 0.962505 0.097895 0.260165
H3    H     H_    0.388325 0.079029 0.067308 0.276179
H4    H     H_    0.617396 0.293809 0.117545 0.189315
H5    H     H_    0.656043 0.200264 0.291087 0.089333
H6    H     H_    0.727620 0.222660 0.945819 0.275385
H7    H     H_    0.755987 0.108763 0.117532 0.208187
H8    H     H_    0.643371 0.960365 0.099534 0.267835
H9    H     H_    0.688817 0.962505 0.902111 0.260166
H10   H     H_    0.611681 0.079044 0.932668 0.276181
H11   H     H_    0.695191 0.675875 0.913114 0.187343
H12   H     H_    0.838030 0.303932 0.237895 0.168839
H13   H     H_    0.740683 0.702823 0.721386 0.089969
H14   H     H_    0.810422 0.553313 0.029224 0.264492
H15   H     H_    0.854831 0.619842 0.845333 0.209182
H16   H     H_    0.818651 0.882611 0.914600 0.266349
H17   H     H_    0.871813 0.797134 0.075460 0.272798
H18   H     H_    0.776635 0.814513 0.102776 0.274783
H19   H     H_    0.304808 0.675884 0.086889 0.187343
H20   H     H_    0.259314 0.702828 0.278616 0.089970
H21   H     H_    0.189579 0.553318 0.970774 0.264491
H22   H     H_    0.145168 0.619844 0.154665 0.209182
H23   H     H_    0.846483 0.361653 0.767500 0.169364
H24   H     H_    0.181347 0.882616 0.085401 0.266349
H25   H     H_    0.128185 0.797139 0.924542 0.272798
H26   H     H_    0.223363 0.814520 0.897225 0.274782
H27   H     H_    0.153516 0.361659 0.232500 0.169365
H28   H     H_    0.382606 0.293800 0.882439 0.189314
H29   H     H_    0.343950 0.200254 0.708908 0.089332
H30   H     H_    0.272390 0.222665 0.054194 0.275387
H31   H     H_    0.244009 0.108771 0.882489 0.208189
H32   H     H_    0.356618 0.960352 0.900455 0.267834
N1    N     N_1   0.500000 0.500000 0.073640 -0.037936
N2    N     N_1   0.500000 0.500000 0.926360 -0.037936
N3    N     N_R   0.034828 0.285892 0.354558 -0.184402
N4    N     N_R   0.965172 0.285885 0.645441 -0.184402
N5    N     N_R   0.963873 0.285776 0.356046 -0.181965
N6    N     N_R   0.036126 0.285771 0.643953 -0.181965
O1    O     O_R   0.500000 0.285350 0.636850 -0.635693
O2    O     O_3   0.708443 0.395865 0.199895 -0.622241
O3    O     O_3   0.720961 0.479877 0.798627 -0.619466
O4    O     O_3   0.279038 0.479884 0.201373 -0.619466
O5    O     O_R   0.500000 0.714650 0.363150 -0.616086
O6    O     O_R   0.500000 0.714650 0.636850 -0.616086
O7    O     O_R   0.500000 0.285350 0.363150 -0.635691
O8    O     O_R   0.398140 0.500000 0.636920 -0.592382
O9    O     O_R   0.601860 0.500000 0.363080 -0.592383
O10   O     O_R   0.601860 0.500000 0.636920 -0.572278
O11   O     O_R   0.398140 0.500000 0.363080 -0.572276
O12   O     O_3   0.291557 0.395861 0.800104 -0.622238
Zn1   Zn    Zn3+2 0.500000 0.500000 0.682780 0.984275
Zn2   Zn    Zn3+2 0.500000 0.500000 0.317220 0.984276

loop_
_geom_bond_atom_site_label_1
_geom_bond_atom_site_label_2
_ccdc_geom_bond_type
C10   C27   S    
C24   H20   S    
C22   H16   S    
C12   C29   S    
C1    O7    A    
C4    C8    A    
C20   H11   S    
C1    O1    A    
C28   C29   T    
C25   H21   S    
C3    C7    A    
C16   H3    S    
O9    Zn2   S    
O5    Zn2   S    
C13   N6    A    
C3    H1    S    
C15   C16   S    
C18   C19   S    
C16   H2    S    
N2    Zn1   S    
C10   C31   A    
C1    C28   S    
C17   H4    S    
C20   H13   S    
C2    O4    S    
C19   H10   S    
C22   H18   S    
C5    C32   A    
C24   H19   S    
C21   C22   S    
C2    C6    A    
O10   Zn1   S    
O8    Zn1   S    
O6    Zn1   S    
O1    Zn1   S    
C25   H22   S    
C27   O10   A    
C32   O3    S    
C9    C23   S    
N1    Zn2   S    
C4    H12   S    
O7    Zn2   S    
C25   C26   S    
C14   H29   S    
N3    N5    A    
C30   O12   S    
C3    C30   A    
C18   H7    S    
C17   C18   S    
C17   H5    S    
C24   C25   S    
C26   H26   S    
C9    C30   A    
C22   H17   S    
C31   O2    S    
C12   O6    A    
C14   O12   S    
O11   Zn2   S    
C11   N4    A    
C21   H14   S    
C13   N3    A    
C23   O11   A    
C6    H27   S    
C5    H23   S    
C26   H24   S    
C5    C8    A    
C11   N5    A    
C6    C7    A    
C14   H28   S    
C27   O9    A    
C18   H6    S    
C24   O4    S    
C8    C11   S    
C15   H30   S    
C20   O3    S    
C23   O8    A    
C26   H25   S    
C4    C31   A    
C19   H8    S    
C10   C32   A    
C7    C13   S    
C20   C21   S    
C17   O2    S    
N4    N6    A    
N1    N2    T    
C12   O5    A    
C15   H31   S    
C14   C15   S    
C16   H32   S    
C2    C9    A    
C19   H9    S    
C21   H15   S    
