data_mof_unit_17860.cif
_audit_creation_date              2012-10-26T20:05:05-0400
_audit_creation_method            fapswitch 2.2
_symmetry_space_group_name_H-M    P1
_symmetry_Int_Tables_number       1
_space_group_crystal_system       triclinic
_cell_length_a                    15.839102
_cell_length_b                    15.040322
_cell_length_c                    13.801762
_cell_angle_alpha                 90.938626
_cell_angle_beta                  88.589467
_cell_angle_gamma                 88.763065
_cell_volume                      3285.69466711

loop_
_atom_site_label
_atom_site_type_symbol
_atom_type_description
_atom_site_fract_x
_atom_site_fract_y
_atom_site_fract_z
_atom_type_partial_charge
C1    C     C_R   0.500021 0.328741 0.499473 0.551959
C2    C     C_R   0.500015 0.046597 0.499806 0.058503
C3    C     C_R   0.463717 0.906328 0.422965 0.010211
C4    C     C_R   0.536267 0.093673 0.577042 0.010209
C5    C     C_R   0.572265 0.954710 0.654054 -0.139919
C6    C     C_R   0.427720 0.045291 0.345955 -0.139920
C7    C     C_R   0.572197 0.047423 0.653741 -0.136868
C8    C     C_R   0.427786 0.952578 0.346267 -0.136868
C9    C     C_R   0.555619 0.446335 0.790806 0.024938
C10   C     C_R   0.444381 0.553664 0.209193 0.024941
C11   C     C_R   0.443190 0.554189 0.797171 0.112278
C12   C     C_R   0.499977 0.671259 0.500527 0.551959
C13   C     C_R   0.556802 0.445804 0.202829 0.112276
C14   C     C_R   0.441983 0.554802 0.900461 -0.024413
C15   C     C_R   0.558010 0.445187 0.099538 -0.024411
C16   C     C_R   0.339873 0.500152 0.500975 0.554440
C17   C     C_R   0.660127 0.499850 0.499024 0.554440
C18   C     C_R   0.499693 0.500034 0.948339 0.045331
C19   C     C_R   0.500301 0.499957 0.051660 0.045331
C20   C     C_R   0.556910 0.445458 0.893142 -0.017594
C21   C     C_R   0.443087 0.554536 0.106857 -0.017594
C22   C     C_R   0.384856 0.609106 0.957288 -0.149187
C23   C     C_R   0.499840 0.768004 0.500984 -0.006507
C24   C     C_R   0.615135 0.390882 0.042711 -0.149190
C25   C     C_R   0.385591 0.608857 0.058660 -0.149862
C26   C     C_R   0.614405 0.391136 0.941339 -0.149868
C27   C     C_3   0.971795 0.424828 0.540335 -0.112845
C28   C     C_3   0.028210 0.575177 0.459621 -0.112843
C29   C     C_3   0.032147 0.428580 0.450035 -0.119539
C30   C     C_3   0.967858 0.571425 0.549924 -0.119538
C31   C     C_1   0.250165 0.500330 0.502928 -0.034475
C32   C     C_1   0.749836 0.499674 0.497063 -0.034466
C33   C     C_3   0.023812 0.496479 0.591658 0.024730
C34   C     C_R   0.500154 0.231996 0.499017 -0.006513
C35   C     C_3   0.976193 0.503526 0.408297 0.024727
C36   C     C_3   0.082930 0.500262 0.502342 0.034517
C37   C     C_3   0.917073 0.499744 0.497614 0.034510
C38   C     C_1   0.174588 0.500481 0.503266 -0.070183
C39   C     C_1   0.825413 0.499525 0.496707 -0.070173
C40   C     C_R   0.464022 0.813735 0.423868 -0.136475
C41   C     C_R   0.535963 0.186266 0.576137 -0.136478
C42   C     C_R   0.947263 0.511130 0.305635 0.028711
C43   C     C_R   0.893048 0.581829 0.280908 -0.100752
C44   C     C_R   0.864976 0.589310 0.186061 -0.124896
C45   C     C_R   0.536334 0.814677 0.577307 -0.147756
C46   C     C_R   0.891099 0.526535 0.115180 -0.109297
C47   C     C_R   0.945466 0.456296 0.139030 -0.117527
C48   C     C_R   0.973568 0.448490 0.233864 -0.107715
C49   C     C_R   0.052765 0.488857 0.694309 0.028709
C50   C     C_R   0.026337 0.551419 0.766120 -0.107673
C51   C     C_R   0.054391 0.543579 0.860979 -0.117542
C52   C     C_R   0.108826 0.473384 0.884814 -0.109271
C53   C     C_R   0.135064 0.410686 0.813891 -0.124913
C54   C     C_R   0.107045 0.418202 0.719019 -0.100778
C55   C     C_R   0.383380 0.615232 0.749247 0.084490
C56   C     C_R   0.463653 0.185324 0.422702 -0.147762
C57   C     C_R   0.299681 0.589814 0.734665 -0.077461
C58   C     C_R   0.240781 0.650598 0.698512 -0.120452
C59   C     C_R   0.263924 0.738019 0.680592 -0.119126
C60   C     C_R   0.345454 0.765323 0.700832 -0.120627
C61   C     C_R   0.404424 0.704648 0.736955 -0.079290
C62   C     C_R   0.616622 0.384767 0.250764 0.084498
C63   C     C_R   0.595584 0.295340 0.263072 -0.079277
C64   C     C_R   0.654563 0.234671 0.299210 -0.120609
C65   C     C_R   0.736099 0.261994 0.319442 -0.119115
C66   C     C_R   0.759235 0.349426 0.301509 -0.120439
C67   C     C_R   0.536343 0.907350 0.577719 0.006067
C68   C     C_R   0.700326 0.410202 0.265340 -0.077452
C69   C     C_R   0.463643 0.092651 0.422290 0.006067
C70   C     C_R   0.499969 0.953404 0.500202 0.058503
Cu1   Cu    Cu3+1 0.500010 0.499990 0.597420 0.942255
Cu2   Cu    Cu3+1 0.499990 0.500010 0.402580 0.942257
H1    H     H_    0.060321 0.369707 0.410827 0.094431
H2    H     H_    0.564224 0.222795 0.635027 0.116175
H3    H     H_    0.565661 0.778824 0.635565 0.114190
H4    H     H_    0.434324 0.221177 0.364447 0.114189
H5    H     H_    0.600309 0.920056 0.713941 0.105177
H6    H     H_    0.399678 0.079945 0.286068 0.105181
H7    H     H_    0.600212 0.082955 0.713401 0.105113
H8    H     H_    0.399770 0.917045 0.286608 0.105113
H9    H     H_    0.599340 0.404172 0.748457 0.121468
H10   H     H_    0.400664 0.595830 0.251542 0.121469
H11   H     H_    0.872245 0.630860 0.335202 0.108022
H12   H     H_    0.939691 0.630295 0.589147 0.094425
H13   H     H_    0.822819 0.643697 0.167575 0.107562
H14   H     H_    0.869317 0.532370 0.041791 0.110884
H15   H     H_    0.965872 0.407850 0.083975 0.108371
H16   H     H_    0.015486 0.393538 0.250800 0.095297
H17   H     H_    0.984342 0.606328 0.749203 0.095292
H18   H     H_    0.033931 0.591970 0.916046 0.108396
H19   H     H_    0.130558 0.467521 0.958227 0.110884
H20   H     H_    0.177243 0.356331 0.832377 0.107585
H21   H     H_    0.127925 0.369226 0.664698 0.108046
H22   H     H_    0.280557 0.522753 0.750280 0.123301
H23   H     H_    0.338864 0.652500 0.924311 0.121977
H24   H     H_    0.177117 0.630162 0.684768 0.127687
H25   H     H_    0.218248 0.784982 0.652685 0.108252
H26   H     H_    0.362726 0.833678 0.689469 0.118445
H27   H     H_    0.466470 0.727129 0.755731 0.100045
H28   H     H_    0.533532 0.272845 0.244303 0.100041
H29   H     H_    0.637296 0.166307 0.310589 0.118430
H30   H     H_    0.781784 0.215037 0.347358 0.108235
H31   H     H_    0.822895 0.369881 0.315264 0.127695
H32   H     H_    0.719443 0.477271 0.249717 0.123304
H33   H     H_    0.661126 0.347487 0.075685 0.121968
H34   H     H_    0.340919 0.651350 0.099389 0.101455
H35   H     H_    0.659078 0.348644 0.900609 0.101450
H36   H     H_    0.947420 0.363537 0.573801 0.103782
H37   H     H_    0.052588 0.636468 0.426159 0.103771
H38   H     H_    0.435758 0.777205 0.364979 0.116169
N1    N     N_R   0.499960 0.499930 0.743810 -0.243305
N2    N     N_R   0.500040 0.500070 0.256190 -0.243307
O1    O     O_R   0.500020 0.370250 0.582280 -0.509231
O2    O     O_R   0.499980 0.629750 0.417720 -0.509231
O3    O     O_R   0.500010 0.370270 0.417740 -0.498134
O4    O     O_R   0.499990 0.629730 0.582260 -0.498129
O5    O     O_R   0.379080 0.499980 0.582260 -0.492157
O6    O     O_R   0.620920 0.500020 0.417740 -0.492153
O7    O     O_R   0.379070 0.500000 0.417710 -0.504511
O8    O     O_R   0.620930 0.500000 0.582290 -0.504513

loop_
_geom_bond_atom_site_label_1
_geom_bond_atom_site_label_2
_ccdc_geom_bond_type
C9    N1    A    
C6    C69   A    
C66   C68   A    
Cu2   N2    S    
C34   C56   A    
C56   H4    S    
C27   C29   S    
C43   H11   S    
C22   H23   S    
C14   C18   A    
C5    C67   A    
C53   C54   A    
C27   C33   S    
C16   C31   S    
C15   C19   A    
C12   C23   S    
C63   H28   S    
Cu1   O8    S    
C23   C45   A    
C35   C37   S    
C24   C26   A    
C13   N2    A    
C60   H26   S    
C51   H18   S    
C11   C14   A    
C6    H6    S    
C29   H1    S    
C4    C41   A    
C33   C49   S    
C49   C54   A    
Cu2   O2    S    
C33   C36   S    
Cu1   O1    S    
C18   C19   A    
C32   C39   T    
C35   C42   S    
C58   H24   S    
C54   H21   S    
C9    C20   A    
C17   O8    A    
C41   H2    S    
C13   C62   S    
C28   C35   S    
C22   C25   A    
Cu1   N1    S    
C45   C67   A    
C48   H16   S    
C10   N2    A    
C2    C69   A    
C59   C60   A    
C61   H27   S    
C34   C41   A    
C1    O1    A    
C65   H30   S    
C4    C7    A    
C44   C46   A    
C1    C34   S    
C12   O2    A    
C10   C21   A    
C64   H29   S    
Cu1   O5    S    
C11   N1    A    
C51   C52   A    
C3    C70   A    
Cu2   O3    S    
C3    C8    A    
C16   O7    A    
C5    C7    A    
C40   H38   S    
C58   C59   A    
C10   H10   S    
C30   C37   S    
C60   C61   A    
C47   H15   S    
C2    C4    A    
C43   C44   A    
C62   C63   A    
C50   H17   S    
C47   C48   A    
C29   C36   S    
C13   C15   A    
C53   H20   S    
C50   C51   A    
C42   C48   A    
C17   O6    A    
C15   C24   A    
C3    C40   A    
C49   C50   A    
C57   H22   S    
C55   C57   A    
C59   H25   S    
C42   C43   A    
C5    H5    S    
C44   H13   S    
C11   C55   S    
C52   C53   A    
C7    H7    S    
C21   C25   A    
C46   C47   A    
C25   H34   S    
C30   C33   S    
C19   C21   A    
C66   H31   S    
C68   H32   S    
C26   H35   S    
C6    C8    A    
C28   H37   S    
C29   C35   S    
C31   C38   T    
C62   C68   A    
C45   H3    S    
C67   C70   A    
C64   C65   A    
C14   C22   A    
C28   C30   S    
Cu1   Cu2   S    
C37   C39   S    
C16   O5    A    
C57   C58   A    
C20   C26   A    
C27   H36   S    
C27   C37   S    
C55   C61   A    
Cu2   O7    S    
C36   C38   S    
Cu1   O4    S    
C18   C20   A    
C65   C66   A    
C30   H12   S    
C63   C64   A    
C28   C36   S    
C56   C69   A    
Cu2   O6    S    
C8    H8    S    
C17   C32   S    
C52   H19   S    
C24   H33   S    
C1    O3    A    
C46   H14   S    
C2    C70   A    
C23   C40   A    
C9    H9    S    
C12   O4    A    
