data_mof_unit_24526.cif
_audit_creation_date              2012-12-10T17:29:21-0500
_audit_creation_method            fapswitch 2.2
_symmetry_space_group_name_H-M    P1
_symmetry_Int_Tables_number       1
_space_group_crystal_system       triclinic
_cell_length_a                    12.031753
_cell_length_b                    12.888673
_cell_length_c                    13.099758
_cell_angle_alpha                 87.074424
_cell_angle_beta                  113.241071
_cell_angle_gamma                 93.320508
_cell_volume                      1862.56523149

loop_
_atom_site_label
_atom_site_type_symbol
_atom_type_description
_atom_site_fract_x
_atom_site_fract_y
_atom_site_fract_z
_atom_type_partial_charge
C1    C     C_R   0.477436 0.299551 0.498123 0.876122
C2    C     C_R   0.610790 0.495671 0.829065 -0.104766
C3    C     C_R   0.535934 0.811715 0.502968 -0.068055
C4    C     C_R   0.566870 0.498191 0.708509 0.862363
C5    C     C_R   0.464373 0.188202 0.497934 -0.053313
C6    C     C_R   0.358569 0.029262 0.517208 -0.216133
C7    C     C_R   0.365321 0.136832 0.511885 -0.197747
C8    C     C_R   0.555397 0.132811 0.487282 -0.276076
C9    C     C_R   0.549794 0.025999 0.493096 0.182722
C10   C     C_R   0.450786 0.973880 0.508451 0.183340
C11   C     C_R   0.445160 0.867050 0.514162 -0.272131
C12   C     C_R   0.567328 0.514294 0.992590 -0.050139
C13   C     C_R   0.635032 0.863111 0.489158 -0.176476
C14   C     C_R   0.641962 0.970650 0.484231 -0.221354
C15   C     C_R   0.015932 0.614049 0.408960 0.247189
C16   C     C_R   0.522638 0.700424 0.502113 0.889463
C17   C     C_R   0.136613 0.600362 0.417937 0.478400
C18   C     C_R   0.152901 0.450962 0.535481 -0.132846
C19   C     C_R   0.033924 0.461132 0.529852 -0.031879
C20   C     C_R   0.963599 0.543662 0.466338 -0.084132
C21   C     C_R   0.843231 0.551476 0.463074 0.597607
C22   C     C_R   0.866474 0.401032 0.580789 -0.081485
C23   C     C_R   0.548011 0.545041 0.882269 0.044067
C24   C     C_R   0.984382 0.390227 0.587088 -0.264861
C25   C     C_R   0.433715 0.505067 0.291449 0.880542
C26   C     C_R   0.308757 0.644453 0.016495 -0.203564
C27   C     C_R   0.396847 0.526105 0.173315 -0.070940
C28   C     C_R   0.706823 0.432117 0.890120 -0.302138
C29   C     C_R   0.739649 0.416017 0.003452 -0.124031
C30   C     C_R   0.672982 0.457565 0.056467 0.432384
C31   C     C_R   0.478498 0.539720 0.031925 0.082720
C32   C     C_R   0.391893 0.614810 0.973640 0.187696
C33   C     C_R   0.389608 0.658870 0.873646 -0.241925
C34   C     C_R   0.465199 0.623057 0.827236 -0.170646
C35   C     C_R   0.469207 0.488492 0.124483 -0.268804
C36   C     C_R   0.313633 0.602260 0.118199 -0.173448
H1    H     H_    0.257419 0.632617 0.156145 0.183872
H2    H     H_    0.243833 0.703082 0.973816 0.142087
H3    H     H_    0.522804 0.422220 0.163977 0.194442
H4    H     H_    0.756125 0.394207 0.849922 0.175296
H5    H     H_    0.817954 0.371080 0.050801 0.169316
H6    H     H_    0.458909 0.657741 0.748251 0.157658
H7    H     H_    0.760610 0.629773 0.328614 0.350245
H8    H     H_    0.970330 0.707187 0.279358 0.339821
H9    H     H_    0.161357 0.738152 0.362027 0.319916
H10   H     H_    0.326129 0.718002 0.829122 0.145749
H11   H     H_    0.701035 0.512066 0.198500 0.328284
H12   H     H_    0.705635 0.820485 0.480478 0.209249
H13   H     H_    0.369130 0.827241 0.526303 0.166984
H14   H     H_    0.282216 0.989576 0.528706 0.143544
H15   H     H_    0.718321 0.010339 0.472749 0.149859
H16   H     H_    0.294621 0.179539 0.520335 0.160674
H17   H     H_    0.631555 0.172577 0.475320 0.165024
H18   H     H_    0.829183 0.345550 0.624815 0.146963
H19   H     H_    0.036498 0.326356 0.636373 0.153716
H20   H     H_    0.207104 0.388167 0.584759 0.155484
N1    N     N_R   0.798200 0.480260 0.519790 -0.120656
N2    N     N_R   0.201820 0.519740 0.480210 -0.119709
O1    O     O_R   0.579910 0.341070 0.505280 -0.631911
O2    O     O_3   0.949731 0.694990 0.345228 -0.773444
O3    O     O_3   0.191101 0.667589 0.364820 -0.753645
O4    O     O_3   0.720638 0.448712 0.170690 -0.790135
O5    O     O_R   0.388440 0.353740 0.492580 -0.626147
O6    O     O_R   0.643280 0.490550 0.663120 -0.617579
O7    O     O_R   0.451810 0.503220 0.650420 -0.619027
O8    O     O_R   0.611560 0.646260 0.507420 -0.573428
O9    O     O_R   0.420090 0.658930 0.494720 -0.578836
O10   O     O_R   0.548190 0.496780 0.349580 -0.590341
O11   O     O_R   0.356720 0.509450 0.336880 -0.575120
O12   O     O_3   0.770672 0.631487 0.407033 -0.717788
Zn1   Zn    Zn3+2 0.627850 0.491540 0.508480 0.985898
Zn2   Zn    Zn3+2 0.372150 0.508460 0.491520 0.985960

loop_
_geom_bond_atom_site_label_1
_geom_bond_atom_site_label_2
_ccdc_geom_bond_type
C8    H17   S    
C6    C10   A    
O11   Zn2   S    
C35   H3    S    
C9    C14   A    
C21   N1    A    
C6    C7    A    
C11   H13   S    
C27   C36   A    
C25   C27   S    
O7    Zn2   S    
C15   O2    S    
C17   N2    A    
C2    C4    S    
O8    Zn1   S    
C3    C13   A    
C18   H20   S    
C21   O12   S    
C23   C34   A    
C17   O3    S    
C32   C33   A    
H11   O4    S    
C30   O4    S    
C19   C24   A    
C29   H5    S    
C22   H18   S    
C16   O9    A    
C13   C14   A    
N1    Zn1   S    
C24   H19   S    
C26   C32   A    
C33   H10   S    
C12   C23   A    
N2    Zn2   S    
C4    O7    A    
C25   O10   A    
H8    O2    S    
O10   Zn1   S    
C1    C5    S    
C1    O5    A    
C22   N1    A    
C26   C36   A    
C36   H1    S    
C7    H16   S    
C33   C34   A    
H7    O12   S    
C22   C24   A    
C1    O1    A    
C12   C31   A    
C15   C20   A    
C31   C35   A    
O5    Zn2   S    
C5    C8    A    
C3    C11   A    
C10   C11   A    
C28   H4    S    
C29   C30   A    
C25   O11   A    
C20   C21   A    
C14   H15   S    
C5    C7    A    
O9    Zn2   S    
C9    C10   A    
O6    Zn1   S    
H9    O3    S    
C2    C23   A    
C15   C17   A    
C18   C19   A    
C4    O6    A    
C28   C29   A    
C16   O8    A    
C2    C28   A    
C6    H14   S    
C27   C35   A    
C12   C30   A    
C18   N2    A    
C31   C32   A    
C26   H2    S    
C3    C16   S    
C19   C20   A    
O1    Zn1   S    
C8    C9    A    
C13   H12   S    
C34   H6    S    
