data_mof_unit_42986.cif
_audit_creation_date              2012-12-11T14:40:05-0500
_audit_creation_method            fapswitch 2.2
_symmetry_space_group_name_H-M    P1
_symmetry_Int_Tables_number       1
_space_group_crystal_system       triclinic
_cell_length_a                    19.459617
_cell_length_b                    11.037303
_cell_length_c                    19.493931
_cell_angle_alpha                 89.819285
_cell_angle_beta                  97.19881
_cell_angle_gamma                 89.985422
_cell_volume                      4153.91350475

loop_
_atom_site_label
_atom_site_type_symbol
_atom_type_description
_atom_site_fract_x
_atom_site_fract_y
_atom_site_fract_z
_atom_type_partial_charge
C1    C     C_R   0.725726 0.951986 0.360790 0.573445
C2    C     C_R   0.288991 0.990216 0.632185 0.548175
C3    C     C_R   0.225725 0.451986 0.360790 0.573445
C4    C     C_R   0.788991 0.490218 0.632185 0.548175
C5    C     C_3   0.713515 0.301753 0.503610 -0.205759
C6    C     C_3   0.238657 0.301892 0.516076 -0.094975
C7    C     C_3   0.213514 0.801751 0.503610 -0.205760
C8    C     C_3   0.738658 0.801892 0.516076 -0.094987
C9    C     C_3   0.733496 0.363977 0.438593 0.034456
C10   C     C_3   0.256001 0.405881 0.567838 0.025178
C11   C     C_3   0.233495 0.863976 0.438593 0.034456
C12   C     C_3   0.755999 0.905883 0.567838 0.025182
C13   C     C_3   0.709639 0.485734 0.464045 0.283370
C14   C     C_3   0.312611 0.449558 0.525183 0.235953
C15   C     C_3   0.209639 0.985733 0.464045 0.283369
C16   C     C_3   0.812609 0.949562 0.525184 0.235973
C17   C     C_3   0.784289 0.510404 0.498705 -0.172991
C18   C     C_3   0.258552 0.531479 0.484105 -0.137450
C19   C     C_3   0.284288 0.010402 0.498705 -0.172988
C20   C     C_3   0.758550 0.031481 0.484105 -0.137448
C21   C     C_3   0.807777 0.386525 0.473786 -0.118063
C22   C     C_3   0.201950 0.487310 0.527678 -0.199686
C23   C     C_3   0.307777 0.886522 0.473787 -0.118060
C24   C     C_3   0.701948 0.987309 0.527678 -0.199685
C25   C     C_3   0.788327 0.322802 0.538880 -0.100904
C26   C     C_3   0.183913 0.384259 0.475938 -0.041755
C27   C     C_3   0.288325 0.822800 0.538880 -0.100903
C28   C     C_3   0.683913 0.884257 0.475938 -0.041758
C29   C     C_3   0.765993 0.445988 0.563571 -0.000151
C30   C     C_3   0.240656 0.426939 0.433741 0.027045
C31   C     C_3   0.265992 0.945986 0.563571 -0.000149
C32   C     C_3   0.740656 0.926939 0.433741 0.027042
C33   C     C_3   0.519771 0.277799 0.976847 -0.106056
C34   C     C_3   0.462666 0.260571 0.024219 -0.118544
C35   C     C_3   0.019736 0.777822 0.976850 -0.106044
C36   C     C_3   0.962638 0.760531 0.024223 -0.118572
C37   C     C_3   0.566989 0.187278 0.020719 -0.108766
C38   C     C_3   0.432485 0.153142 0.979738 -0.113662
C39   C     C_3   0.066982 0.687340 0.020719 -0.108766
C40   C     C_3   0.932489 0.653082 0.979740 -0.113673
C41   C     C_3   0.509410 0.170440 0.067393 0.053716
C42   C     C_3   0.490002 0.170763 0.933086 0.053990
C43   C     C_3   0.009410 0.670438 0.067393 0.053719
C44   C     C_3   0.989999 0.670765 0.933087 0.053990
C45   C     C_R   0.535946 0.179977 0.338416 0.533388
C46   C     C_R   0.465068 0.179834 0.662333 0.542608
C47   C     C_R   0.035946 0.679977 0.338416 0.533397
C48   C     C_R   0.965068 0.679834 0.662333 0.542618
C49   C     C_3   0.479887 0.062686 0.024111 -0.112911
C50   C     C_3   0.536759 0.079992 0.975931 -0.121700
C51   C     C_3   0.979919 0.562664 0.024110 -0.112895
C52   C     C_3   0.036785 0.580032 0.975929 -0.121717
C53   C     C_1   0.762310 0.426259 0.904228 -0.005914
C54   C     C_1   0.243326 0.410258 0.100291 -0.004577
C55   C     C_1   0.262311 0.926260 0.904229 -0.005907
C56   C     C_1   0.743327 0.910257 0.100291 -0.004580
C57   C     C_1   0.747979 0.408348 0.034831 -0.047889
C58   C     C_1   0.266235 0.359211 0.974308 -0.047675
C59   C     C_1   0.247980 0.908350 0.034832 -0.047894
C60   C     C_1   0.766236 0.859208 0.974309 -0.047674
C61   C     C_1   0.754119 0.416183 0.963985 -0.046816
C62   C     C_1   0.255898 0.384093 0.043212 -0.044047
C63   C     C_1   0.254120 0.916185 0.963986 -0.046810
C64   C     C_1   0.755899 0.884091 0.043212 -0.044053
C65   C     C_1   0.743362 0.394704 0.095186 -0.006370
C66   C     C_1   0.272421 0.338694 0.914716 -0.009881
C67   C     C_1   0.243363 0.894706 0.095186 -0.006378
C68   C     C_1   0.772422 0.838691 0.914716 -0.009873
C69   C     C_R   0.725157 0.315551 0.368647 0.548811
C70   C     C_R   0.260653 0.365640 0.638902 0.553552
C71   C     C_R   0.225157 0.815550 0.368647 0.548817
C72   C     C_R   0.760652 0.865640 0.638902 0.553557
C73   C     C_R   0.722897 0.951345 0.164416 0.549508
C74   C     C_R   0.277669 0.952771 0.836225 0.546794
C75   C     C_R   0.222897 0.451345 0.164416 0.549510
C76   C     C_R   0.777669 0.452771 0.836224 0.546791
C77   C     C_R   0.530358 0.178808 0.140967 0.537322
C78   C     C_R   0.469192 0.178739 0.859347 0.531248
C79   C     C_R   0.030359 0.678808 0.140967 0.537329
C80   C     C_R   0.969190 0.678739 0.859348 0.531250
C81   C     C_R   0.736232 0.360259 0.164422 0.554871
C82   C     C_R   0.277894 0.310523 0.843847 0.547144
C83   C     C_R   0.236232 0.860259 0.164422 0.554872
C84   C     C_R   0.777894 0.810522 0.843847 0.547146
C85   C     C_1   0.488036 0.169825 0.595885 0.051018
C86   C     C_1   0.515962 0.170962 0.406206 0.003755
C87   C     C_1   0.988036 0.669824 0.595885 0.051014
C88   C     C_1   0.015962 0.670962 0.406205 0.003772
C89   C     C_1   0.506876 0.165503 0.465965 -0.052115
C90   C     C_1   0.498862 0.164438 0.536617 -0.018680
C91   C     C_1   0.006875 0.665504 0.465964 -0.052127
C92   C     C_1   0.998862 0.664439 0.536617 -0.018718
C93   C     C_3   0.691260 0.424682 0.530331 -0.076453
C94   C     C_3   0.295674 0.346248 0.473054 -0.138383
C95   C     C_3   0.191258 0.924681 0.530331 -0.076458
C96   C     C_3   0.795675 0.846251 0.473055 -0.138380
Cr1   Cr    Cr6+3 0.765830 0.160660 0.268180 1.042246
Cr2   Cr    Cr6+3 0.234170 0.160660 0.731820 1.056742
Cr3   Cr    Cr6+3 0.265830 0.660660 0.268180 1.042234
Cr4   Cr    Cr6+3 0.734170 0.660660 0.731820 1.056742
Cr5   Cr    Cr6+3 0.612110 0.009150 0.248770 1.051173
Cr6   Cr    Cr6+3 0.387890 0.009150 0.751230 1.049446
Cr7   Cr    Cr6+3 0.112110 0.509150 0.248770 1.051163
Cr8   Cr    Cr6+3 0.887890 0.509150 0.751230 1.049452
Cr9   Cr    Cr6+3 0.615930 0.324050 0.248450 1.084823
Cr10  Cr    Cr6+3 0.384070 0.324050 0.751550 1.098722
Cr11  Cr    Cr6+3 0.115930 0.824050 0.248450 1.084785
Cr12  Cr    Cr6+3 0.884070 0.824050 0.751550 1.098727
H1    H     H_    0.678425 0.223289 0.503070 0.113935
H2    H     H_    0.228745 0.209202 0.533513 0.172589
H3    H     H_    0.178423 0.723288 0.503068 0.113933
H4    H     H_    0.728747 0.709202 0.533513 0.172590
H5    H     H_    0.643999 0.440953 0.555556 0.185851
H6    H     H_    0.333270 0.289409 0.449233 0.121950
H7    H     H_    0.143997 0.940952 0.555555 0.185837
H8    H     H_    0.833273 0.789414 0.449235 0.121957
H9    H     H_    0.316612 0.092696 0.497456 0.099607
H10   H     H_    0.772057 0.119899 0.463528 0.157994
H11   H     H_    0.816612 0.592698 0.497454 0.099608
H12   H     H_    0.272060 0.619898 0.463529 0.157997
H13   H     H_    0.856910 0.371100 0.451628 0.185045
H14   H     H_    0.163956 0.541789 0.552351 0.126548
H15   H     H_    0.356910 0.871097 0.451630 0.185043
H16   H     H_    0.663952 0.041787 0.552349 0.126548
H17   H     H_    0.820191 0.255885 0.571301 0.217356
H18   H     H_    0.130097 0.363486 0.453444 0.213765
H19   H     H_    0.320189 0.755882 0.571303 0.217342
H20   H     H_    0.630098 0.863481 0.453443 0.213769
H21   H     H_    0.622701 0.201436 0.039450 0.119521
H22   H     H_    0.376853 0.138362 0.960985 0.107004
H23   H     H_    0.122690 0.701547 0.039449 0.119528
H24   H     H_    0.876861 0.638255 0.960987 0.107019
H25   H     H_    0.537104 0.365128 0.956420 0.138044
H26   H     H_    0.431871 0.333155 0.045257 0.130253
H27   H     H_    0.037042 0.865171 0.956425 0.138056
H28   H     H_    0.931822 0.833082 0.045264 0.130243
H29   H     H_    0.462840 0.975727 0.045201 0.130297
H30   H     H_    0.567421 0.007542 0.954615 0.129355
H31   H     H_    0.962900 0.475685 0.045200 0.130305
H32   H     H_    0.067468 0.507615 0.954611 0.129350
O1    O     O_R   0.783230 0.287800 0.346510 -0.517385
O2    O     O_R   0.216770 0.287800 0.653490 -0.511231
O3    O     O_R   0.283230 0.787800 0.346510 -0.517387
O4    O     O_R   0.716770 0.787800 0.653490 -0.511232
O5    O     O_R   0.554500 0.081650 0.170370 -0.502381
O6    O     O_R   0.445500 0.081650 0.829630 -0.503322
O7    O     O_R   0.054500 0.581650 0.170370 -0.502384
O8    O     O_R   0.945500 0.581650 0.829630 -0.503322
O9    O     O_R   0.545430 0.285140 0.163100 -0.514705
O10   O     O_R   0.454570 0.285140 0.836900 -0.522243
O11   O     O_R   0.045430 0.785140 0.163100 -0.514707
O12   O     O_R   0.954570 0.785140 0.836900 -0.522252
O13   O     O_R   0.677850 0.374730 0.185500 -0.485725
O14   O     O_R   0.322150 0.374730 0.814500 -0.483820
O15   O     O_R   0.177850 0.874730 0.185500 -0.485734
O16   O     O_R   0.822150 0.874730 0.814500 -0.483820
O17   O     O_3   0.664630 0.164620 0.255130 -0.297886
O18   O     O_3   0.335370 0.164620 0.744870 -0.316056
O19   O     O_3   0.164630 0.664620 0.255130 -0.297879
O20   O     O_3   0.835370 0.664620 0.744870 -0.316061
O21   O     O_R   0.760130 0.037060 0.338610 -0.524194
O22   O     O_R   0.239870 0.037060 0.661390 -0.496425
O23   O     O_R   0.260130 0.537060 0.338610 -0.524203
O24   O     O_R   0.739870 0.537060 0.661390 -0.496424
O25   O     O_R   0.666620 0.921370 0.332440 -0.473607
O26   O     O_R   0.333380 0.921370 0.667560 -0.489065
O27   O     O_R   0.166620 0.421370 0.332440 -0.473608
O28   O     O_R   0.833380 0.421370 0.667560 -0.489059
O29   O     O_R   0.557170 0.082420 0.312350 -0.506459
O30   O     O_R   0.442830 0.082420 0.687650 -0.516865
O31   O     O_R   0.057170 0.582420 0.312350 -0.506460
O32   O     O_R   0.942830 0.582420 0.687650 -0.516865
O33   O     O_R   0.548310 0.285980 0.316250 -0.470770
O34   O     O_R   0.451690 0.285980 0.683750 -0.437357
O35   O     O_R   0.048310 0.785980 0.316250 -0.470772
O36   O     O_R   0.951690 0.785980 0.683750 -0.437348
O37   O     O_R   0.680520 0.375500 0.327470 -0.414748
O38   O     O_R   0.319480 0.375500 0.672530 -0.450215
O39   O     O_R   0.180520 0.875500 0.327470 -0.414770
O40   O     O_R   0.819480 0.875500 0.672530 -0.450208
O41   O     O_R   0.780350 0.286970 0.193350 -0.504548
O42   O     O_R   0.219650 0.286970 0.806650 -0.498379
O43   O     O_R   0.280350 0.786970 0.193350 -0.504544
O44   O     O_R   0.719650 0.786970 0.806650 -0.498381
O45   O     O_R   0.757460 0.036290 0.196640 -0.498402
O46   O     O_R   0.242540 0.036290 0.803360 -0.506767
O47   O     O_R   0.257460 0.536290 0.196640 -0.498400
O48   O     O_R   0.742540 0.536290 0.803360 -0.506767
O49   O     O_R   0.663740 0.920540 0.179290 -0.495715
O50   O     O_R   0.336260 0.920540 0.820710 -0.494145
O51   O     O_R   0.163740 0.420540 0.179290 -0.495720
O52   O     O_R   0.836260 0.420540 0.820710 -0.494145
S1    S     S_3+6 0.644895 0.583178 0.420090 -0.001839
O53   O     O_2   0.610860 0.651747 0.473053 -0.312642
O54   O     O_2   0.677738 0.668419 0.373652 -0.297368
O55   O     O_3   0.582550 0.503322 0.373184 -0.475688
H33   H     H_    0.549575 0.564711 0.351373 0.360984
S2    S     S_3+6 0.395732 0.515562 0.552397 0.025213
O56   O     O_2   0.406170 0.623950 0.507957 -0.305191
O57   O     O_2   0.400154 0.555942 0.626316 -0.233545
O58   O     O_3   0.459264 0.416346 0.544432 -0.500139
H34   H     H_    0.464574 0.417022 0.494547 0.357232
S3    S     S_3+6 0.144896 0.083178 0.420089 -0.001844
O59   O     O_2   0.110860 0.151749 0.473050 -0.312602
O60   O     O_2   0.177742 0.168417 0.373652 -0.297413
O61   O     O_3   0.082551 0.003325 0.373181 -0.475679
H35   H     H_    0.049615 0.064722 0.351314 0.360981
S4    S     S_3+6 0.895727 0.015576 0.552403 0.025217
O62   O     O_2   0.906174 0.123936 0.507946 -0.305175
O63   O     O_2   0.900130 0.056001 0.626313 -0.233586
O64   O     O_3   0.959264 0.916351 0.544474 -0.500139
H36   H     H_    0.964603 0.917027 0.494596 0.357258

loop_
_geom_bond_atom_site_label_1
_geom_bond_atom_site_label_2
_ccdc_geom_bond_type
C58   C62   S    
C29   C93   S    
S3    O59   D    
C67   C83   S    
Cr10  O10   S    
C49   H29   S    
C17   C29   S    
O58   H34   S    
C14   C18   S    
C7    C27   S    
C35   C39   S    
C35   C36   S    
C8    C96   S    
C81   O41   A    
C44   C80   S    
C19   C31   S    
Cr6   O18   S    
C20   H10   S    
C94   H6    S    
C3    O27   A    
C38   C49   S    
C10   C22   S    
Cr7   O27   S    
S3    O60   D    
Cr5   O5    S    
Cr11  O35   S    
C37   C41   S    
C33   C42   S    
C38   H22   S    
Cr3   O3    S    
C16   C20   S    
Cr4   O48   S    
C9    C69   S    
Cr1   O45   S    
C38   C42   S    
Cr3   O19   S    
C8    H4    S    
C15   C95   S    
C73   O49   A    
C11   C71   S    
C83   O15   A    
C34   H26   S    
C69   O1    A    
Cr8   O52   S    
C24   H16   S    
C81   O13   A    
Cr1   O41   S    
Cr12  O40   S    
C53   C61   T    
C80   O12   A    
C12   C24   S    
C26   H18   S    
C71   O39   A    
C49   C50   S    
C25   H17   S    
C7    C11   S    
C9    C13   S    
C59   C67   T    
C15   C19   S    
C55   C74   S    
C11   C15   S    
C58   C66   T    
Cr9   O17   S    
Cr2   O18   S    
C95   H7    S    
S4    O62   D    
C6    C94   S    
C55   C63   T    
C4    O24   A    
Cr5   O29   S    
S2    O56   D    
C18   C30   S    
C23   C27   S    
Cr10  O14   S    
C2    O26   A    
Cr3   O43   S    
C4    C29   S    
C76   O48   A    
C3    O23   A    
Cr8   O32   S    
C46   C85   S    
Cr11  O11   S    
C44   C52   S    
C39   C52   S    
C40   H24   S    
Cr5   O17   S    
Cr6   O26   S    
Cr12  O12   S    
C87   C92   T    
Cr2   O2    S    
Cr7   O31   S    
C6    H2    S    
C2    O22   A    
C34   C41   S    
C27   H19   S    
Cr8   O20   S    
Cr4   O44   S    
C36   H28   S    
C28   C32   S    
C41   C49   S    
C73   O45   A    
Cr2   O22   S    
C69   O37   A    
C22   H14   S    
C74   O46   A    
C25   C29   S    
S2    O57   D    
S3    O61   S    
C70   O2    A    
C16   C96   S    
C27   C31   S    
C51   C52   S    
C68   C84   S    
C12   C16   S    
C84   O44   A    
Cr10  O38   S    
C10   C14   S    
C35   H27   S    
C91   C92   S    
C78   O6    A    
O61   H35   S    
C70   O38   A    
C23   H15   S    
C54   C62   T    
S1    O54   D    
Cr9   O13   S    
Cr10  O18   S    
C1    C32   S    
C33   C37   S    
C46   O30   A    
C13   C93   S    
C2    C31   S    
C82   O14   A    
Cr2   O42   S    
C3    C30   S    
C75   O51   A    
C5    C9    S    
C76   O52   A    
C45   O33   A    
Cr8   O28   S    
C14   S2    S    
Cr4   O20   S    
C47   O31   A    
O64   H36   S    
Cr12  O16   S    
C88   C91   T    
C36   C40   S    
C8    C12   S    
S1    O55   S    
Cr11  O19   S    
S2    O58   S    
C46   O34   A    
C33   C34   S    
Cr10  O34   S    
C48   C87   S    
C83   O43   A    
Cr4   O24   S    
C78   O10   A    
C93   H5    S    
Cr5   O25   S    
C35   C44   S    
Cr1   O1    S    
C42   C50   S    
C5    C25   S    
C10   C70   S    
C14   C94   S    
Cr9   O37   S    
C32   C96   S    
C80   O8    A    
C42   C78   S    
Cr1   O21   S    
Cr4   O4    S    
C8    C28   S    
C74   O50   A    
Cr3   O23   S    
C53   C76   S    
Cr7   O51   S    
C72   O40   A    
C77   O9    A    
C9    C21   S    
C18   H12   S    
C19   H9    S    
C7    C95   S    
C48   O32   A    
C79   O11   A    
C20   C32   S    
C72   O4    A    
C21   C25   S    
C56   C73   S    
Cr11  O39   S    
C1    O25   A    
C34   C38   S    
C59   C63   S    
C33   H25   S    
C75   O47   A    
C24   C28   S    
C57   C65   T    
O55   H33   S    
C16   S4    S    
C86   C89   T    
C45   O29   A    
C6    C10   S    
C5    C93   S    
C85   C90   T    
C50   H30   S    
C57   C61   S    
Cr12  O20   S    
C7    H3    S    
C40   C51   S    
Cr9   O9    S    
C82   O42   A    
Cr5   O49   S    
C13   C17   S    
C60   C64   S    
C47   C88   S    
C18   C22   S    
C45   C86   S    
Cr3   O47   S    
Cr8   O8    S    
C30   C94   S    
S4    O63   D    
Cr6   O6    S    
C66   C82   S    
C41   C77   S    
C37   C50   S    
C84   O16   A    
Cr7   O19   S    
C56   C64   T    
C6    C26   S    
C77   O5    A    
C39   H23   S    
Cr6   O30   S    
C43   C51   S    
S4    O64   S    
C31   C95   S    
Cr12  O36   S    
C11   C23   S    
Cr6   O50   S    
C37   H21   S    
C79   O7    A    
C13   S1    S    
C21   H13   S    
C12   C72   S    
C17   C21   S    
C17   H11   S    
C47   O35   A    
C1    O21   A    
C54   C75   S    
C52   H32   S    
C4    O28   A    
C19   C23   S    
C40   C44   S    
C60   C68   T    
Cr2   O46   S    
S1    O53   D    
C22   C26   S    
C39   C43   S    
C65   C81   S    
C96   H8    S    
C36   C43   S    
Cr9   O33   S    
C15   S3    S    
C5    H1    S    
C71   O3    A    
C89   C90   S    
C43   C79   S    
C20   C24   S    
Cr11  O15   S    
C28   H20   S    
Cr1   O17   S    
Cr7   O7    S    
C48   O36   A    
C26   C30   S    
C51   H31   S    
