data_mof_unit_57070.cif
_audit_creation_date              2012-12-10T17:05:43-0500
_audit_creation_method            fapswitch 2.2
_symmetry_space_group_name_H-M    P1
_symmetry_Int_Tables_number       1
_space_group_crystal_system       triclinic
_cell_length_a                    15.956263
_cell_length_b                    11.2994
_cell_length_c                    9.828888
_cell_angle_alpha                 109.847076
_cell_angle_beta                  99.185769
_cell_angle_gamma                 91.882067
_cell_volume                      1638.2303539

loop_
_atom_site_label
_atom_site_type_symbol
_atom_type_description
_atom_site_fract_x
_atom_site_fract_y
_atom_site_fract_z
_atom_type_partial_charge
C1    C     C_R   0.496708 0.255972 0.442766 0.787803
C2    C     C_3   0.957122 0.394701 0.581284 0.347434
C3    C     C_3   0.914932 0.480876 0.497218 -0.212418
C4    C     C_3   0.959363 0.618422 0.576191 0.356453
C5    C     C_3   0.056583 0.621096 0.574653 0.283787
C6    C     C_1   0.823355 0.484505 0.500564 0.208827
C7    C     C_1   0.173835 0.494976 0.492673 0.077496
C8    C     C_1   0.249889 0.499382 0.497186 -0.181430
C9    C     C_2   0.495839 0.119782 0.411159 -0.222231
C10   C     C_2   0.508996 0.069099 0.520427 -0.039285
C11   C     C_2   0.527791 0.875386 0.581304 0.370375
C12   C     C_R   0.340024 0.500874 0.499825 0.817428
C13   C     C_2   0.488201 0.931638 0.489822 -0.150487
C14   C     C_2   0.510323 0.505452 0.079938 0.517667
C15   C     C_2   0.492106 0.490080 0.918530 0.530068
C16   C     C_R   0.508500 0.743316 0.556687 0.778555
C17   C     C_R   0.659520 0.497680 0.499808 0.818792
C18   C     C_3   0.056891 0.401564 0.581183 -0.278465
C19   C     C_3   0.026356 0.435739 0.327805 0.365775
C20   C     C_3   0.927968 0.435385 0.334264 0.984160
C21   C     C_1   0.748395 0.490319 0.500032 -0.118566
C22   C     C_3   0.080852 0.486343 0.489914 -0.158441
Cu1   Cu    Cu3+1 0.514650 0.521810 0.644910 1.014809
Cu2   Cu    Cu3+1 0.485350 0.478190 0.355090 1.004340
H1    H     H_    0.087446 0.459306 0.695751 0.168759
H2    H     H_    0.586417 0.617049 0.932738 0.195684
H3    H     H_    0.411128 0.387592 0.068719 0.185335
H4    H     H_    0.090888 0.653297 0.690498 0.083313
H5    H     H_    0.950265 0.653687 0.692717 0.147666
N1    N     N_2   0.463320 0.445430 0.137380 -0.322075
N2    N     N_2   0.536720 0.554500 0.862620 -0.317181
O1    O     O_R   0.507820 0.332330 0.577400 -0.540187
O2    O     O_R   0.483070 0.295500 0.332660 -0.593795
O3    O     O_R   0.391820 0.518430 0.622420 -0.521591
O4    O     O_R   0.367070 0.481600 0.377680 -0.581988
O5    O     O_R   0.516930 0.704500 0.667340 -0.581166
O6    O     O_R   0.492180 0.667670 0.422600 -0.562902
O7    O     O_R   0.632930 0.518400 0.622320 -0.583177
O8    O     O_R   0.608180 0.481570 0.377580 -0.507400
C23   C     C_R   0.910127 0.259759 0.530313 0.157385
C24   C     C_R   0.853021 0.232357 0.614409 -0.123432
C25   C     C_R   0.815934 0.109388 0.579914 -0.189639
C26   C     C_R   0.832528 0.011679 0.458564 -0.048082
C27   C     C_R   0.887224 0.036245 0.372379 -0.113860
C28   C     C_R   0.925905 0.158271 0.408039 -0.074196
H6    H     H_    0.837657 0.305370 0.709000 0.198312
H7    H     H_    0.774787 0.089300 0.648303 0.183545
H8    H     H_    0.803552 0.916730 0.432063 0.188799
H9    H     H_    0.900993 0.960066 0.278983 0.152143
H10   H     H_    0.970115 0.170627 0.341415 0.236051
F1    F     F_    0.949441 0.452491 0.727901 -0.712095
F2    F     F_    0.922258 0.701564 0.513712 -0.608521
C29   C     C_R   0.416609 0.861035 0.368471 0.076752
C30   C     C_R   0.332124 0.872403 0.388998 -0.188988
C31   C     C_R   0.265185 0.812372 0.271579 -0.121505
C32   C     C_R   0.282947 0.742736 0.133496 -0.102415
C33   C     C_R   0.366699 0.726330 0.114125 -0.140612
C34   C     C_R   0.433332 0.784018 0.231428 -0.024289
H11   H     H_    0.318909 0.929106 0.495074 0.119234
H12   H     H_    0.199727 0.822174 0.286391 0.151886
H13   H     H_    0.232652 0.702910 0.039937 0.124783
H14   H     H_    0.379861 0.672553 0.006903 0.134750
H15   H     H_    0.498326 0.773487 0.214655 0.173110
C35   C     C_R   0.543831 0.149052 0.677132 0.259961
C36   C     C_R   0.500278 0.146795 0.789997 -0.014681
C37   C     C_R   0.539954 0.202496 0.937251 -0.144070
C38   C     C_R   0.622087 0.264170 0.973374 -0.069072
C39   C     C_R   0.664520 0.271226 0.862223 -0.111085
C40   C     C_R   0.625947 0.213119 0.714739 -0.082612
H16   H     H_    0.437217 0.097361 0.763558 0.100330
H17   H     H_    0.507104 0.197609 0.023563 0.163035
H18   H     H_    0.652446 0.307561 0.087560 0.185954
H19   H     H_    0.727824 0.319981 0.890265 0.169399
H20   H     H_    0.660017 0.216775 0.629301 0.094740
F3    F     F_    0.594345 0.935345 0.691866 -0.677971
C41   C     C_R   0.478701 0.044134 0.251554 0.136663
C42   C     C_R   0.397632 0.038914 0.167417 -0.076042
C43   C     C_R   0.382822 0.977737 0.015076 -0.189536
C44   C     C_R   0.448782 0.922411 0.945550 -0.110400
C45   C     C_R   0.530159 0.929839 0.027807 -0.096122
C46   C     C_R   0.545543 0.992047 0.180431 -0.194095
H21   H     H_    0.346161 0.082216 0.220242 0.116991
H22   H     H_    0.320229 0.973187 0.950919 0.136854
H23   H     H_    0.436727 0.875587 0.827655 0.145073
H24   H     H_    0.581428 0.888476 0.973173 0.190835
H25   H     H_    0.609028 0.999339 0.243098 0.150949
F4    F     F_    0.426690 0.405787 0.828772 -0.680631
F5    F     F_    0.579029 0.583814 0.167567 -0.671423
C47   C     C_R   0.097707 0.277883 0.569929 0.134103
C48   C     C_R   0.146083 0.216400 0.462397 -0.062591
C49   C     C_R   0.177265 0.101161 0.456673 -0.197177
C50   C     C_R   0.161786 0.045575 0.558353 -0.084099
C51   C     C_R   0.117306 0.107151 0.668992 -0.093221
C52   C     C_R   0.086377 0.222631 0.675780 -0.171777
H26   H     H_    0.160469 0.254306 0.381308 0.188740
H27   H     H_    0.213187 0.055228 0.372200 0.134785
H28   H     H_    0.184178 0.954999 0.552235 0.161851
H29   H     H_    0.106049 0.064887 0.748921 0.156808
H30   H     H_    0.050859 0.267437 0.761661 0.187325
C53   C     C_R   0.052926 0.502884 0.225417 0.166692
C54   C     C_R   0.104096 0.442863 0.121565 -0.074141
C55   C     C_R   0.118595 0.491295 0.013375 -0.171389
C56   C     C_R   0.082168 0.599845 0.005857 -0.042185
C57   C     C_R   0.036787 0.665600 0.112668 -0.145500
C58   C     C_R   0.023401 0.619104 0.222612 -0.008682
H31   H     H_    0.132000 0.356849 0.121582 0.175319
H32   H     H_    0.157667 0.443934 0.934528 0.133515
H33   H     H_    0.091586 0.635939 0.920321 0.108228
H34   H     H_    0.011209 0.752441 0.109709 0.139294
H35   H     H_    0.986667 0.673261 0.300705 0.262406
F6    F     F_    0.040379 0.310449 0.264383 -0.707316
F7    F     F_    0.886862 0.315788 0.258213 -0.642011
F8    F     F_    0.886098 0.510265 0.264457 -0.639426
F9    F     F_    0.083942 0.711115 0.520898 -0.663446

loop_
_geom_bond_atom_site_label_1
_geom_bond_atom_site_label_2
_ccdc_geom_bond_type
C27   H9    S    
C31   C32   A    
C51   C52   A    
C5    F9    S    
C2    C18   S    
C24   C25   A    
C19   C20   S    
C58   H35   S    
C3    C6    S    
C33   C34   A    
C1    O2    A    
C7    C8    T    
C29   C30   A    
C53   C58   A    
C54   C55   A    
C4    F2    S    
C52   H30   S    
C57   H34   S    
C36   H16   S    
C54   H31   S    
Cu2   O8    S    
C32   C33   A    
C38   H18   S    
C17   O8    A    
C47   C52   A    
C50   C51   A    
C49   H27   S    
C20   F7    S    
C43   H22   S    
C5    C22   S    
C39   C40   A    
C24   H6    S    
C56   H33   S    
C9    C41   S    
C26   H8    S    
C4    H5    S    
C16   O6    A    
C25   H7    S    
C37   C38   A    
H2    N2    S    
C31   H12   S    
H3    N1    S    
C44   H23   S    
C18   H1    S    
C14   N1    D    
C57   C58   A    
C50   H28   S    
C13   C29   S    
C30   H11   S    
C23   C28   A    
Cu2   O4    S    
C38   C39   A    
C40   H20   S    
C19   C22   S    
C1    C9    S    
C41   C42   A    
C49   C50   A    
C43   C44   A    
C45   C46   A    
C33   H14   S    
C39   H19   S    
C42   C43   A    
C6    C21   T    
C1    O1    A    
C17   C21   S    
Cu1   N2    S    
C26   C27   A    
C45   H24   S    
C5    H4    S    
C11   C16   S    
C37   H17   S    
C8    C12   S    
Cu1   O3    S    
Cu2   O6    S    
C3    C20   S    
C32   H13   S    
C35   C40   A    
C12   O4    A    
C23   C24   A    
C36   C37   A    
C25   C26   A    
C12   O3    A    
C3    C4    S    
C7    C22   S    
C55   H32   S    
C27   C28   A    
C15   F4    S    
C9    C10   D    
C34   H15   S    
C30   C31   A    
C18   C22   S    
C18   C47   S    
C10   C35   S    
C46   H25   S    
C4    C5    S    
C10   C13   S    
C48   H26   S    
C41   C46   A    
C29   C34   A    
C15   N2    D    
C19   F6    S    
Cu1   O7    S    
Cu2   O2    S    
Cu1   O1    S    
C2    C3    S    
C14   F5    S    
C11   F3    S    
C16   O5    A    
C19   C53   S    
C28   H10   S    
C11   C13   D    
C48   C49   A    
C20   F8    S    
C42   H21   S    
C35   C36   A    
C53   C54   A    
C17   O7    A    
C55   C56   A    
Cu2   N1    S    
C2    F1    S    
Cu1   Cu2   S    
C44   C45   A    
C2    C23   S    
Cu1   O5    S    
C56   C57   A    
C14   C15   S    
C47   C48   A    
C51   H29   S    
