data_mof_unit_9511.cif
_audit_creation_date              2013-03-05T15:53:16-0500
_audit_creation_method            fapswitch 2.2
_symmetry_space_group_name_H-M    P1
_symmetry_Int_Tables_number       1
_space_group_crystal_system       triclinic
_cell_length_a                    17.350855
_cell_length_b                    24.353953
_cell_length_c                    15.119011
_cell_angle_alpha                 90.009635
_cell_angle_beta                  125.929957
_cell_angle_gamma                 89.954491
_cell_volume                      5173.16634197

loop_
_atom_site_label
_atom_site_type_symbol
_atom_site_description
_atom_site_fract_x
_atom_site_fract_y
_atom_site_fract_z
_atom_type_partial_charge
C1    C     C_R   0.310726 0.375514 0.906342 -0.068172
C2    C     C_R   0.648104 0.348342 0.092546 -0.170071
C3    C     C_R   0.810716 0.875527 0.906336 -0.068183
C4    C     C_R   0.148097 0.848340 0.092546 -0.170076
H1    H     H_    0.252454 0.371817 0.821358 0.097969
H2    H     H_    0.683622 0.334888 0.175677 0.138707
H3    H     H_    0.752440 0.871844 0.821346 0.097973
H4    H     H_    0.183610 0.834886 0.175676 0.138704
N1    N     N_R   0.395410 0.396350 0.944340 -0.038647
N2    N     N_R   0.604590 0.396350 0.055660 -0.042844
N3    N     N_R   0.895410 0.896350 0.944340 -0.038641
N4    N     N_R   0.104590 0.896350 0.055660 -0.042843
C5    C     C_R   0.401587 0.622715 0.090683 -0.134318
C6    C     C_R   0.555625 0.650660 0.908295 -0.147157
C7    C     C_R   0.901581 0.122709 0.090679 -0.134314
C8    C     C_R   0.055620 0.150661 0.908296 -0.147162
H5    H     H_    0.426885 0.624559 0.174723 0.113258
H6    H     H_    0.505433 0.664293 0.824999 0.105488
H7    H     H_    0.926876 0.124553 0.174718 0.113259
H8    H     H_    0.005424 0.164295 0.825001 0.105482
N5    N     N_R   0.449930 0.602500 0.055880 -0.041401
N6    N     N_R   0.550070 0.602500 0.944120 -0.037375
N7    N     N_R   0.949930 0.102500 0.055880 -0.041400
N8    N     N_R   0.050070 0.102500 0.944120 -0.037374
C9    C     C_R   0.553184 0.456227 0.306888 0.164814
C10   C     C_R   0.504310 0.454940 0.733703 0.160572
C11   C     C_R   0.053182 0.956227 0.306888 0.164817
C12   C     C_R   0.004326 0.954943 0.733716 0.160594
N9    N     N_R   0.525080 0.471030 0.205650 -0.058945
N10   N     N_R   0.474920 0.471030 0.794350 -0.058890
N11   N     N_R   0.025080 0.971030 0.205650 -0.058947
N12   N     N_R   0.974920 0.971030 0.794350 -0.058883
C13   C     C_R   0.241097 0.545232 0.701003 -0.153492
C14   C     C_R   0.767793 0.545024 0.245225 -0.137082
C15   C     C_R   0.741201 0.045234 0.700907 -0.153541
C16   C     C_R   0.267797 0.045015 0.245209 -0.137008
H9    H     H_    0.227792 0.587151 0.671864 0.095337
H10   H     H_    0.789672 0.587322 0.253233 0.102712
H11   H     H_    0.727980 0.087153 0.671773 0.095287
H12   H     H_    0.289685 0.087310 0.253201 0.102712
N13   N     N_R   0.320260 0.527820 0.794570 -0.038497
N14   N     N_R   0.679740 0.527820 0.205430 -0.040813
N15   N     N_R   0.820260 0.027820 0.794570 -0.038491
N16   N     N_R   0.179740 0.027820 0.205430 -0.040819
C17   C     C_R   0.549792 0.547052 0.300528 -0.186214
C18   C     C_R   0.510927 0.547046 0.744068 -0.156398
C19   C     C_R   0.049791 0.047052 0.300528 -0.186212
C20   C     C_R   0.010935 0.047048 0.744078 -0.156417
H13   H     H_    0.562387 0.589760 0.324819 0.120267
H14   H     H_    0.515380 0.589824 0.728467 0.123671
H15   H     H_    0.062387 0.089760 0.324819 0.120273
H16   H     H_    0.015387 0.089826 0.728478 0.123672
N17   N     N_R   0.524590 0.527840 0.205200 -0.051256
N18   N     N_R   0.475410 0.527840 0.794800 -0.052933
N19   N     N_R   0.024590 0.027840 0.205200 -0.051258
N20   N     N_R   0.975410 0.027840 0.794800 -0.052930
C21   C     C_R   0.242462 0.453856 0.700191 -0.161821
C22   C     C_R   0.767029 0.453138 0.245539 -0.136753
C23   C     C_R   0.742535 0.953861 0.700112 -0.161716
C24   C     C_R   0.267016 0.953129 0.245531 -0.136792
H17   H     H_    0.229830 0.411984 0.671223 0.094704
H18   H     H_    0.787516 0.410624 0.253654 0.120560
H19   H     H_    0.729962 0.911987 0.671172 0.094540
H20   H     H_    0.287482 0.910613 0.253629 0.120532
N21   N     N_R   0.320750 0.471000 0.795020 -0.047425
N22   N     N_R   0.679250 0.471000 0.204980 -0.050346
N23   N     N_R   0.820750 0.971000 0.795020 -0.047417
N24   N     N_R   0.179250 0.971000 0.204980 -0.050338
C25   C     C_R   0.310167 0.626128 0.907909 -0.130039
C26   C     C_R   0.648202 0.651995 0.089744 -0.135087
C27   C     C_R   0.810158 0.126117 0.907903 -0.130052
C28   C     C_R   0.148200 0.151995 0.089745 -0.135118
H21   H     H_    0.251905 0.633632 0.823715 0.096600
H22   H     H_    0.686511 0.667075 0.172582 0.089572
H23   H     H_    0.751890 0.133605 0.823702 0.096648
H24   H     H_    0.186511 0.167073 0.172584 0.089585
N25   N     N_R   0.393620 0.602490 0.942710 -0.040213
N26   N     N_R   0.606380 0.602490 0.057290 -0.038438
N27   N     N_R   0.893620 0.102490 0.942710 -0.040217
N28   N     N_R   0.106380 0.102490 0.057290 -0.038441
C29   C     C_R   0.400990 0.373078 0.088261 -0.122395
C30   C     C_R   0.555604 0.345827 0.912369 -0.127029
C31   C     C_R   0.900983 0.873083 0.088256 -0.122371
C32   C     C_R   0.055600 0.845825 0.912370 -0.127034
H25   H     H_    0.424820 0.365355 0.169975 0.109525
H26   H     H_    0.505401 0.328268 0.833041 0.118619
H27   H     H_    0.924811 0.865358 0.169970 0.109523
H28   H     H_    0.005397 0.828266 0.833043 0.118625
N29   N     N_R   0.451720 0.396350 0.057510 -0.047430
N30   N     N_R   0.548280 0.396350 0.942490 -0.040177
N31   N     N_R   0.951720 0.896350 0.057510 -0.047431
N32   N     N_R   0.048280 0.896350 0.942490 -0.040177
C33   C     C_R   0.312490 0.359690 0.994777 0.068824
C34   C     C_R   0.619712 0.315749 0.004932 0.080014
C35   C     C_R   0.812478 0.859701 0.994770 0.068816
C36   C     C_R   0.119705 0.815747 0.004934 0.080024
C37   C     C_R   0.314103 0.638981 0.000455 0.068128
C38   C     C_R   0.617404 0.682715 0.997123 0.078356
C39   C     C_R   0.814093 0.138972 0.000448 0.068128
C40   C     C_R   0.117397 0.182717 0.997125 0.078370
C41   C     C_R   0.568656 0.503401 0.365401 0.021629
C42   C     C_R   0.531661 0.502175 0.707512 0.013571
C43   C     C_R   0.068654 0.003400 0.365401 0.021640
C44   C     C_R   0.031678 0.002178 0.707528 0.013577
C45   C     C_R   0.191193 0.499621 0.640455 0.146978
C46   C     C_R   0.823492 0.498906 0.268957 0.141094
C47   C     C_R   0.691353 0.999632 0.640278 0.146952
C48   C     C_R   0.323487 0.998889 0.268939 0.141061
Ni1   Ni    Ni4+2 0.435420 0.434270 0.870230 0.212934
Ni2   Ni    Ni4+2 0.564580 0.434270 0.129770 0.209672
Ni3   Ni    Ni4+2 0.935420 0.934270 0.870230 0.212943
Ni4   Ni    Ni4+2 0.064580 0.934270 0.129770 0.209672
Ni5   Ni    Ni4+2 0.563430 0.564580 0.128740 0.209189
Ni6   Ni    Ni4+2 0.436570 0.564580 0.871260 0.208814
Ni7   Ni    Ni4+2 0.063430 0.064580 0.128740 0.209194
Ni8   Ni    Ni4+2 0.936570 0.064580 0.871260 0.208789
C49   C     C_2   0.978656 0.454962 0.362560 -0.101095
C50   C     C_2   0.077047 0.458468 0.460792 -0.109215
C51   C     C_2   0.478611 0.954907 0.362558 -0.101023
C52   C     C_2   0.577027 0.958347 0.460774 -0.109106
C53   C     C_2   0.924843 0.500027 0.317299 -0.199590
C54   C     C_2   0.105483 0.501215 0.529414 -0.197807
C55   C     C_2   0.424831 0.999982 0.317235 -0.199386
C56   C     C_2   0.605832 0.001270 0.529082 -0.197532
H29   H     H_    0.946932 0.414385 0.341597 0.146386
H30   H     H_    0.120639 0.421804 0.485041 0.127319
H31   H     H_    0.446822 0.914347 0.341688 0.146306
H32   H     H_    0.620252 0.921500 0.485357 0.127284
H33   H     H_    0.957354 0.540238 0.332606 0.135125
H34   H     H_    0.062016 0.537672 0.508081 0.132620
H35   H     H_    0.457320 0.040184 0.332354 0.134959
H36   H     H_    0.562787 0.037954 0.507407 0.132366
C57   C     C_R   0.280660 0.697121 0.106617 0.122447
C58   C     C_R   0.617002 0.759225 0.890560 0.099905
C59   C     C_R   0.780658 0.197118 0.106611 0.122444
C60   C     C_R   0.116996 0.259226 0.890563 0.099908
C61   C     C_R   0.246938 0.670105 0.008414 0.043611
C62   C     C_R   0.637413 0.739695 0.989374 0.075114
C63   C     C_R   0.746931 0.170099 0.008409 0.043609
C64   C     C_R   0.137406 0.239696 0.989377 0.075112
C65   C     C_R   0.153680 0.680557 0.917085 -0.204818
C66   C     C_R   0.691455 0.773002 0.082736 -0.193913
C67   C     C_R   0.653674 0.180554 0.917079 -0.204803
C68   C     C_R   0.191455 0.273000 0.082741 -0.193928
H37   H     H_    0.123832 0.658653 0.841197 0.130763
H38   H     H_    0.703686 0.761341 0.159078 0.122585
H39   H     H_    0.623823 0.158650 0.841192 0.130781
H40   H     H_    0.203685 0.261340 0.159083 0.122585
C69   C     C_R   0.603596 0.225001 0.919295 -0.148973
C70   C     C_R   0.241270 0.317873 0.081662 -0.180260
C71   C     C_R   0.103596 0.725000 0.919300 -0.148975
C72   C     C_R   0.741260 0.817879 0.081653 -0.180251
H41   H     H_    0.536206 0.236305 0.844477 0.138080
H42   H     H_    0.289334 0.340160 0.156888 0.118560
H43   H     H_    0.036205 0.736302 0.844481 0.138082
H44   H     H_    0.789319 0.840170 0.156877 0.118564
C73   C     C_R   0.647593 0.258710 0.012756 0.018994
C74   C     C_R   0.238660 0.328083 0.988265 0.069586
C75   C     C_R   0.147589 0.758709 0.012761 0.019002
C76   C     C_R   0.738649 0.828092 0.988257 0.069576
C77   C     C_R   0.731288 0.240302 0.109960 0.121870
C78   C     C_R   0.170475 0.300862 0.891396 0.043866
C79   C     C_R   0.231285 0.740302 0.109966 0.121889
C80   C     C_R   0.670473 0.800866 0.891390 0.043874
C81   C     C_3   0.821874 0.271245 0.190198 0.020414
C82   C     C_3   0.173458 0.274621 0.803265 0.065805
C83   C     C_3   0.321869 0.771247 0.190207 0.020393
C84   C     C_3   0.673465 0.774626 0.803265 0.065816
C85   C     C_3   0.375075 0.724260 0.184513 -0.561162
C86   C     C_3   0.611240 0.729982 0.799470 -0.545068
C87   C     C_3   0.875075 0.224255 0.184503 -0.561168
C88   C     C_3   0.111225 0.229982 0.799468 -0.545072
H45   H     H_    0.828659 0.310024 0.156416 0.123740
H46   H     H_    0.135930 0.299392 0.727003 0.121437
H47   H     H_    0.328651 0.810028 0.156428 0.123753
H48   H     H_    0.635935 0.799396 0.727000 0.121407
H49   H     H_    0.410887 0.735959 0.145766 0.186770
H50   H     H_    0.537813 0.730464 0.722569 0.189545
H51   H     H_    0.910886 0.235951 0.145754 0.186769
H52   H     H_    0.037797 0.230468 0.722568 0.189545
H53   H     H_    0.420678 0.701106 0.262303 0.224942
H54   H     H_    0.645348 0.688791 0.823032 0.227358
H55   H     H_    0.920678 0.201102 0.262295 0.224940
H56   H     H_    0.145326 0.188788 0.823024 0.227356
C89   C     C_R   0.630646 0.496243 0.642609 0.164989
C90   C     C_R   0.640424 0.496840 0.561001 0.148009
C91   C     C_R   0.130658 0.996243 0.642618 0.164976
C92   C     C_R   0.140431 0.996838 0.561004 0.148011
C93   C     C_R   0.543957 0.506642 0.623814 0.013248
C94   C     C_R   0.563472 0.507412 0.454793 0.017826
C95   C     C_R   0.043973 0.006648 0.623829 0.013252
C96   C     C_R   0.063477 0.007413 0.454798 0.017821
C97   C     C_R   0.465279 0.520306 0.518193 -0.192861
C98   C     C_R   0.475045 0.520609 0.433306 -0.189103
C99   C     C_R   0.965294 0.020315 0.518211 -0.192835
C100  C     C_R   0.975055 0.020616 0.433320 -0.189105
H57   H     H_    0.396485 0.528882 0.501259 0.144263
H58   H     H_    0.413515 0.529389 0.350965 0.143370
H59   H     H_    0.896503 0.028894 0.501281 0.144263
H60   H     H_    0.913524 0.029399 0.350980 0.143370
C101  C     C_3   0.742179 0.479492 0.632798 -0.497959
C102  C     C_3   0.730403 0.478561 0.726237 -0.486801
C103  C     C_3   0.242183 0.979484 0.632795 -0.497932
C104  C     C_3   0.230413 0.978556 0.726239 -0.486811
H61   H     H_    0.754560 0.438141 0.612369 0.191855
H62   H     H_    0.772555 0.510570 0.789388 0.209130
H63   H     H_    0.254556 0.938132 0.612362 0.191853
H64   H     H_    0.272573 0.010562 0.789392 0.209134
H65   H     H_    0.790924 0.512205 0.641717 0.206618
H66   H     H_    0.734266 0.436649 0.757747 0.190626
H67   H     H_    0.290933 0.012194 0.641714 0.206630
H68   H     H_    0.234269 0.936643 0.757745 0.190626
I1    I     I_    0.856241 0.278324 0.351286 -0.531658
I2    I     I_    0.309093 0.241003 0.854201 -0.451372
I3    I     I_    0.356230 0.778321 0.351293 -0.531733
I4    I     I_    0.809108 0.741018 0.854209 -0.451387
C105  C     C_3   0.578197 0.399556 0.357704 -0.480213
C106  C     C_3   0.632884 0.363902 0.328572 -0.246490
C107  C     C_3   0.648592 0.306461 0.376903 -0.858148
H69   H     H_    0.696146 0.308344 0.467544 0.258854
H70   H     H_    0.579594 0.287745 0.349862 0.251703
H71   H     H_    0.681571 0.279712 0.348399 0.279514
H72   H     H_    0.592664 0.359789 0.239304 0.209134
H73   H     H_    0.702831 0.383026 0.360627 0.211906
H74   H     H_    0.623675 0.403571 0.447793 0.193909
H75   H     H_    0.513323 0.378927 0.338819 0.178974
C108  C     C_3   0.484824 0.400226 0.677604 -0.460315
C109  C     C_3   0.383879 0.379953 0.630287 -0.241738
C110  C     C_3   0.364842 0.324266 0.574823 -0.911403
H76   H     H_    0.371634 0.327226 0.506349 0.257666
H77   H     H_    0.415899 0.293138 0.634444 0.258626
H78   H     H_    0.291477 0.310708 0.541750 0.257721
H79   H     H_    0.373664 0.376200 0.695933 0.199243
H80   H     H_    0.331097 0.410150 0.569362 0.197271
H81   H     H_    0.491332 0.404042 0.609021 0.195600
H82   H     H_    0.540252 0.370345 0.734155 0.183124
C111  C     C_3   0.078188 0.899555 0.357702 -0.480210
C112  C     C_3   0.132874 0.863900 0.328571 -0.246510
C113  C     C_3   0.148574 0.806458 0.376896 -0.858108
H83   H     H_    0.196125 0.808339 0.467538 0.258852
H84   H     H_    0.079573 0.787745 0.349850 0.251705
H85   H     H_    0.181552 0.779707 0.348394 0.279517
H86   H     H_    0.092657 0.859788 0.239303 0.209137
H87   H     H_    0.202824 0.883020 0.360631 0.211908
H88   H     H_    0.123664 0.903569 0.447790 0.193907
H89   H     H_    0.013312 0.878929 0.338812 0.178975
C114  C     C_3   0.984875 0.900225 0.677637 -0.460355
C115  C     C_3   0.883928 0.879941 0.630283 -0.241708
C116  C     C_3   0.864922 0.824255 0.574824 -0.911414
H90   H     H_    0.871736 0.827221 0.506367 0.257673
H91   H     H_    0.915981 0.793131 0.634454 0.258614
H92   H     H_    0.791556 0.810688 0.541728 0.257715
H93   H     H_    0.873691 0.876182 0.695910 0.199224
H94   H     H_    0.831146 0.910135 0.569347 0.197358
H95   H     H_    0.991413 0.904040 0.609076 0.195608
H96   H     H_    0.040304 0.870350 0.734210 0.183133

loop_
_geom_bond_atom_site_label_1
_geom_bond_atom_site_label_2
_geom_bond_distance
_ccdc_geom_bond_type
C22   H18   1.077819 S    
C31   H27   1.064480 S    
C103  C104  1.541681 S    
C72   C76   1.408141 A    
C57   C61   1.400150 A    
C30   C34   1.380047 A    
N12   Ni3   1.873875 S    
C73   C77   1.401487 A    
C26   N26   1.343211 A    
C101  C102  1.541680 S    
C66   H38   1.081876 S    
C25   N25   1.345208 A    
C113  H83   1.110831 S    
C14   N14   1.339340 A    
C3    N3    1.325494 A    
C83   I3    2.147685 S    
N13   Ni6   1.864112 S    
C68   H40   1.081876 S    
C103  H67   1.111487 S    
C27   N27   1.345200 A    
C106  C107  1.526829 S    
C106  H72   1.101487 S    
C83   C85   1.503552 S    
C27   H23   1.079502 S    
C60   C78   1.370092 A    
C115  C116  1.525391 S    
C82   C88   1.510034 S    
C108  H82   1.104357 S    
C18   C42   1.364416 A    
C11   C111  1.513801 S    
C116  H90   1.110884 S    
N19   Ni7   1.872612 S    
C86   H50   1.112047 S    
C77   C81   1.507909 S    
C1    H1    1.075533 S    
C96   C100  1.406117 A    
C87   H55   1.111160 S    
C79   C83   1.507914 S    
C7    H7    1.074528 S    
C110  H78   1.110436 S    
C3    H3    1.075571 S    
N16   N24   1.383816 A    
C32   C36   1.380044 A    
C115  H94   1.112286 S    
N10   N18   1.383570 A    
C16   C48   1.384143 A    
C81   H45   1.112459 S    
C20   C44   1.364409 A    
C112  H87   1.111406 S    
C42   C93   1.405554 S    
C56   H36   1.084047 S    
N31   Ni4   1.836529 S    
C84   H48   1.111699 S    
C50   C54   1.342885 D    
C66   C72   1.399889 A    
C57   C85   1.498235 S    
C49   C53   1.339169 D    
C40   C64   1.452049 S    
C23   N23   1.338004 A    
C4    C36   1.364491 A    
C9    C105  1.513802 S    
C60   C64   1.400934 A    
C22   N22   1.337116 A    
C72   H44   1.082140 S    
N16   Ni7   1.862759 S    
N17   Ni5   1.872612 S    
C88   H56   1.111428 S    
C26   H22   1.080976 S    
C68   C70   1.399883 A    
N11   Ni4   1.873169 S    
C25   H21   1.079478 S    
C59   C87   1.498241 S    
C4    N4    1.323894 A    
C15   N15   1.336570 A    
C109  H80   1.112286 S    
C24   C48   1.386326 A    
C4    H4    1.075933 S    
C105  H75   1.106606 S    
N23   Ni3   1.842320 S    
C29   N29   1.339138 A    
C114  H96   1.104356 S    
C88   H52   1.112047 S    
C92   C103  1.491208 S    
C7    N7    1.319101 A    
C17   N17   1.322060 A    
C8    N8    1.319079 A    
C78   C82   1.505701 S    
N27   Ni8   1.875644 S    
C86   H54   1.111427 S    
C9    N9    1.354442 A    
C59   C77   1.375453 A    
C87   H51   1.112652 S    
C2    H2    1.075934 S    
N7    N27   1.385736 A    
C63   C67   1.402499 A    
C47   C56   1.449842 S    
C102  H66   1.111712 S    
C57   C79   1.375451 A    
C12   N12   1.342650 A    
C37   C61   1.452677 S    
C109  C110  1.525391 S    
C14   H10   1.080078 S    
N8    N28   1.385736 A    
C18   H14   1.081011 S    
C6    C38   1.368793 A    
C99   H59   1.083932 S    
N1    Ni1   1.872020 S    
C2    C34   1.364508 A    
C101  H65   1.111487 S    
C116  H91   1.110865 S    
N4    Ni4   1.871291 S    
C82   H46   1.111699 S    
C21   C45   1.380272 A    
N10   Ni1   1.873875 S    
C5    N5    1.319099 A    
C35   C76   1.448018 S    
C14   C46   1.384068 A    
C1    N1    1.325493 A    
C60   C88   1.500684 S    
N9    Ni2   1.873169 S    
C16   H12   1.080079 S    
C19   C43   1.349948 A    
N6    N26   1.385736 A    
N5    Ni5   1.842844 S    
C41   C94   1.409552 S    
C62   C66   1.406100 A    
N1    N29   1.385736 A    
C100  H60   1.084091 S    
C94   C98   1.406116 A    
C115  H93   1.109650 S    
C8    C40   1.368791 A    
C19   H15   1.081880 S    
C105  C106  1.528844 S    
C30   H26   1.074435 S    
C44   C95   1.405570 S    
C27   C39   1.395765 A    
C112  H86   1.101487 S    
C23   C47   1.380396 A    
C28   N28   1.343203 A    
C90   C101  1.491204 S    
C52   C56   1.343068 D    
C111  H89   1.106605 S    
C22   C46   1.386396 A    
C12   C114  1.507667 S    
C71   C75   1.409993 A    
C89   C102  1.486819 S    
C90   C94   1.382353 A    
C15   H11   1.081687 S    
C110  H76   1.110887 S    
N3    N31   1.385736 A    
N15   Ni8   1.864112 S    
C107  H70   1.111102 S    
C29   C33   1.383997 A    
C12   C44   1.388118 A    
N14   Ni5   1.862759 S    
C108  C109  1.534277 S    
N28   Ni7   1.876404 S    
C17   H13   1.081881 S    
C10   C108  1.507664 S    
C8    H8    1.080363 S    
C31   C35   1.384013 A    
C18   N18   1.319917 A    
N20   Ni8   1.871913 S    
C111  H88   1.107302 S    
C28   H24   1.080976 S    
C113  H84   1.111101 S    
N22   Ni2   1.843668 S    
C21   H17   1.080413 S    
N21   Ni1   1.842320 S    
C109  H79   1.109659 S    
C39   C63   1.452689 S    
C17   C41   1.349943 A    
C81   C87   1.503548 S    
C82   I2    2.161479 S    
C103  H63   1.110472 S    
C80   C84   1.505700 S    
N15   N23   1.383804 A    
C25   C37   1.395751 A    
C38   C62   1.452062 S    
N8    Ni8   1.844225 S    
C34   C73   1.452402 S    
C51   C55   1.339249 D    
C85   H49   1.112651 S    
C11   N11   1.354446 A    
C70   H42   1.082141 S    
C104  H68   1.111713 S    
C75   C79   1.401494 A    
C16   N16   1.339395 A    
N26   Ni5   1.876404 S    
C48   C55   1.455709 S    
N25   Ni6   1.875644 S    
C2    N2    1.323896 A    
C84   I4    2.161478 S    
C76   C80   1.396978 A    
C67   H39   1.082612 S    
C107  H69   1.110832 S    
C108  H81   1.110867 S    
C104  H64   1.111446 S    
C65   C71   1.400156 A    
C19   N19   1.322063 A    
C28   C40   1.388437 A    
C81   I1    2.147685 S    
C20   N20   1.319915 A    
C102  H62   1.111448 S    
C61   C65   1.402500 A    
C112  C113  1.526830 S    
C116  H92   1.110436 S    
C70   C74   1.408139 A    
C55   H35   1.085430 S    
C85   H53   1.111160 S    
C91   C95   1.380251 A    
C6    H6    1.080363 S    
N4    N32   1.385734 A    
C105  H74   1.107304 S    
C64   C68   1.406099 A    
C53   H33   1.085509 S    
C91   C104  1.486817 S    
C113  H85   1.107356 S    
C58   C62   1.400936 A    
N13   N21   1.383804 A    
C51   C52   1.467062 S    
C52   H32   1.085280 S    
N32   Ni3   1.835149 S    
C89   C93   1.380250 A    
C65   H37   1.082611 S    
C31   N31   1.339142 A    
C92   C96   1.382358 A    
C59   C63   1.400160 A    
N6    Ni6   1.844225 S    
C23   H19   1.080379 S    
C71   H43   1.081618 S    
C30   N30   1.343504 A    
C13   C45   1.375715 A    
C5    H5    1.074530 S    
C13   H9    1.081669 S    
C24   H20   1.077801 S    
C24   N24   1.337023 A    
C13   N13   1.336621 A    
C6    N6    1.319086 A    
C91   C92   1.340555 A    
C110  H77   1.110864 S    
C49   C50   1.466992 S    
C10   C42   1.388114 A    
C107  H71   1.107355 S    
C7    C39   1.375166 A    
N12   N20   1.383570 A    
C9    C41   1.376948 A    
C89   C90   1.340550 A    
C98   H58   1.084092 S    
C32   H28   1.074435 S    
N9    N17   1.383558 A    
C97   H57   1.083930 S    
C69   H41   1.081617 S    
N18   Ni6   1.871913 S    
C46   C53   1.455689 S    
C84   C86   1.510042 S    
C58   C80   1.370095 A    
C45   C54   1.449634 S    
N2    Ni2   1.871291 S    
C83   H47   1.112456 S    
C111  C112  1.528841 S    
C106  H73   1.111406 S    
C5    C37   1.375152 A    
C33   C74   1.448007 S    
C50   H30   1.085073 S    
C95   C99   1.401941 A    
C15   C47   1.375673 A    
N29   Ni2   1.836529 S    
C74   C78   1.396978 A    
N7    Ni7   1.842844 S    
C99   C100  1.389652 A    
C93   C97   1.401938 A    
C67   C69   1.400161 A    
C36   C75   1.452395 S    
C29   H25   1.064479 S    
N2    N30   1.385734 A    
C1    C33   1.374513 A    
C97   C98   1.389651 A    
C58   C86   1.500680 S    
N5    N25   1.385736 A    
N14   N22   1.383816 A    
N3    Ni3   1.872020 S    
C101  H61   1.110473 S    
C3    C35   1.374525 A    
C43   C96   1.409563 S    
C32   N32   1.343509 A    
N30   Ni1   1.835149 S    
N11   N19   1.383558 A    
C20   H16   1.081010 S    
C49   H29   1.084448 S    
C69   C73   1.409997 A    
C11   C43   1.376949 A    
C54   H34   1.083841 S    
N24   Ni4   1.843668 S    
C26   C38   1.388443 A    
C114  C115  1.534264 S    
C114  H95   1.110868 S    
C21   N21   1.337964 A    
C10   N10   1.342625 A    
C51   H31   1.084449 S    
