data_mof_unit_42575.cif
_audit_creation_date              2012-12-10T17:02:29-0500
_audit_creation_method            fapswitch 2.2
_symmetry_space_group_name_H-M    P1
_symmetry_Int_Tables_number       1
_space_group_crystal_system       triclinic
_cell_length_a                    10.978545
_cell_length_b                    11.092822
_cell_length_c                    9.885762
_cell_angle_alpha                 112.96874
_cell_angle_beta                  96.552173
_cell_angle_gamma                 90.821726
_cell_volume                      1098.94585302

loop_
_atom_site_label
_atom_site_type_symbol
_atom_type_description
_atom_site_fract_x
_atom_site_fract_y
_atom_site_fract_z
_atom_type_partial_charge
C1    C     C_R   0.486596 0.253531 0.439583 0.917105
C2    C     C_R   0.508745 0.746628 0.560766 0.811744
C3    C     C_2   0.477368 0.112557 0.405517 -0.254588
C4    C     C_2   0.513046 0.887559 0.594914 -0.296741
C5    C     C_2   0.498166 0.069810 0.515263 -0.151948
C6    C     C_2   0.492097 0.930048 0.484878 -0.100232
C7    C     C_2   0.507991 0.511779 0.082881 0.160502
C8    C     C_2   0.496288 0.486827 0.918738 0.200276
C9    C     C_R   0.262005 0.495556 0.501923 0.750413
C10   C     C_R   0.736623 0.498926 0.495007 0.859609
C11   C     C_R   0.128931 0.638273 0.767697 0.305145
C12   C     C_R   0.848146 0.308791 0.238203 0.304605
C13   C     C_R   0.089867 0.761387 0.858487 0.368463
C14   C     C_R   0.898404 0.265157 0.103778 0.395284
C15   C     C_R   0.979270 0.803457 0.812497 -0.144550
C16   C     C_R   0.024826 0.260483 0.109070 -0.169209
C17   C     C_R   0.904015 0.718192 0.687057 -0.153411
C18   C     C_R   0.098242 0.315663 0.244821 -0.202225
C19   C     C_R   0.946482 0.597771 0.596400 0.022410
C20   C     C_R   0.049959 0.402619 0.371162 0.032614
C21   C     C_R   0.070645 0.575891 0.620865 -0.080603
C22   C     C_R   0.920326 0.402787 0.365645 -0.061231
C23   C     C_R   0.868769 0.499455 0.483663 -0.074575
C24   C     C_R   0.126633 0.485660 0.502368 -0.047184
Cu1   Cu    Cu3+1 0.521920 0.521810 0.644910 1.123957
Cu2   Cu    Cu3+1 0.478080 0.478190 0.355090 1.104539
H1    H     H_    0.065999 0.208254 0.009683 0.253660
H2    H     H_    0.945763 0.896062 0.880628 0.244559
H3    H     H_    0.813859 0.747129 0.659644 0.173593
H4    H     H_    0.192147 0.291138 0.247412 0.233039
H5    H     H_    0.470720 0.861141 0.370188 0.227768
H6    H     H_    0.521975 0.138564 0.629473 0.238533
H7    H     H_    0.533316 0.956585 0.709555 0.221717
H8    H     H_    0.455041 0.043736 0.291032 0.228594
H9    H     H_    0.430363 0.411710 0.841213 0.185303
H10   H     H_    0.568238 0.591859 0.162372 0.149019
N1    N     N_2   0.445130 0.445420 0.137360 -0.024951
N2    N     N_2   0.554870 0.554580 0.862640 -0.045058
O1    O     O_R   0.511700 0.332340 0.577400 -0.601403
O2    O     O_R   0.488300 0.667660 0.422600 -0.603947
O3    O     O_R   0.474680 0.295500 0.332650 -0.479851
O4    O     O_R   0.525320 0.704500 0.667350 -0.549294
O5    O     O_R   0.338170 0.518410 0.622370 -0.567079
O6    O     O_R   0.661830 0.481590 0.377630 -0.605404
O7    O     O_R   0.301150 0.481570 0.377630 -0.576195
O8    O     O_R   0.698850 0.518430 0.622370 -0.500422
S1    S     S_3+6 0.164218 0.529640 0.854679 0.096246
O9    O     O_2   0.193239 0.399383 0.742892 -0.258029
O10   O     O_2   0.269667 0.586549 0.975656 -0.277876
O11   O     O_3   0.039624 0.507594 0.929082 -0.430638
H11   H     H_    0.070858 0.476503 0.007009 0.391811
S2    S     S_3+6 0.762409 0.184102 0.261742 0.055288
O12   O     O_2   0.637819 0.161338 0.172862 -0.199571
O13   O     O_2   0.828077 0.059426 0.204133 -0.235624
O14   O     O_3   0.751046 0.222653 0.441873 -0.568208
H12   H     H_    0.749034 0.137817 0.453149 0.370655
S3    S     S_3+6 0.167095 0.854643 0.037614 0.052168
O15   O     O_2   0.136040 0.794237 0.142628 -0.202568
O16   O     O_2   0.303471 0.856396 0.033087 -0.275423
O17   O     O_3   0.122955 0.008845 0.099037 -0.557396
H13   H     H_    0.159465 0.048971 0.204391 0.378421
S4    S     S_3+6 0.806133 0.202039 0.930217 0.052004
O18   O     O_2   0.747720 0.069824 0.902013 -0.290690
O19   O     O_2   0.708018 0.294836 0.930249 -0.260140
O20   O     O_3   0.892260 0.187477 0.795094 -0.495003
H14   H     H_    0.836342 0.142725 0.701650 0.374974
S5    S     S_3+6 0.652658 0.687714 0.979546 0.163470
O21   O     O_2   0.583184 0.782741 0.094228 -0.296830
O22   O     O_2   0.756471 0.641470 0.056268 -0.224205
O23   O     O_3   0.711998 0.765669 0.884747 -0.472914
H15   H     H_    0.676211 0.852282 0.917647 0.400668
S6    S     S_3+6 0.378217 0.290617 0.015551 0.129550
O24   O     O_2   0.258137 0.307274 0.939125 -0.251466
O25   O     O_2   0.461080 0.222682 0.901460 -0.288031
O26   O     O_3   0.348008 0.187879 0.096214 -0.499461
H16   H     H_    0.322766 0.102565 0.013151 0.396468

loop_
_geom_bond_atom_site_label_1
_geom_bond_atom_site_label_2
_ccdc_geom_bond_type
Cu1   O4    S    
C10   O8    A    
C19   C23   A    
O26   H16   S    
C9    C24   S    
C9    O7    A    
S4    O18   D    
C18   H4    S    
C2    O2    A    
C10   C23   S    
C17   H3    S    
C7    H10   S    
C2    C4    S    
S1    O9    D    
C3    H8    S    
S2    O14   S    
C12   C14   A    
O14   H12   S    
S5    O23   S    
C5    H6    S    
C16   H1    S    
C6    H5    S    
C15   H2    S    
C3    C5    D    
Cu2   O6    S    
C7    C8    S    
S1    O10   D    
Cu2   N1    S    
N1    S6    S    
S2    O12   D    
Cu1   O1    S    
C11   C13   A    
Cu2   O7    S    
Cu2   O2    S    
S3    O15   D    
O23   H15   S    
C8    N2    D    
C2    O4    A    
S6    O26   S    
C1    O3    A    
Cu1   O5    S    
C12   S2    S    
S2    O13   D    
O11   H11   S    
S1    O11   S    
C18   C20   A    
C13   C15   A    
C7    N1    D    
C5    C6    S    
Cu1   N2    S    
C14   C16   A    
C9    O5    A    
C4    C6    D    
S3    O16   D    
C1    O1    A    
C10   O6    A    
S5    O21   D    
C14   S4    S    
C12   C22   A    
C13   S3    S    
N2    S5    S    
S6    O25   D    
O20   H14   S    
C21   C24   A    
C1    C3    S    
C15   C17   A    
C4    H7    S    
S6    O24   D    
S3    O17   S    
S4    O19   D    
S4    O20   S    
C17   C19   A    
Cu1   Cu2   S    
C19   C21   A    
C11   S1    S    
Cu1   O8    S    
C11   C21   A    
C16   C18   A    
C22   C23   A    
C20   C24   A    
Cu2   O3    S    
C20   C22   A    
O17   H13   S    
S5    O22   D    
C8    H9    S    
