data_mof_unit_57230.cif
_audit_creation_date              2012-12-10T17:36:50-0500
_audit_creation_method            fapswitch 2.2
_symmetry_space_group_name_H-M    P1
_symmetry_Int_Tables_number       1
_space_group_crystal_system       triclinic
_cell_length_a                    10.604856
_cell_length_b                    12.335614
_cell_length_c                    13.201237
_cell_angle_alpha                 116.866967
_cell_angle_beta                  77.497793
_cell_angle_gamma                 101.421787
_cell_volume                      1494.02411511

loop_
_atom_site_label
_atom_site_type_symbol
_atom_type_description
_atom_site_fract_x
_atom_site_fract_y
_atom_site_fract_z
_atom_type_partial_charge
C1    C     C_R   0.518954 0.854509 0.286218 0.821807
C2    C     C_3   0.013438 0.908045 0.523587 -0.149421
C3    C     C_3   0.954849 0.891696 0.419375 -0.145985
C4    C     C_3   0.877558 0.999600 0.499161 0.028817
C5    C     C_R   0.300290 0.286510 0.012393 -0.196164
C6    C     C_R   0.447683 0.229215 0.833726 -0.045006
C7    C     C_R   0.643724 0.804341 0.088559 0.025175
C8    C     C_R   0.663724 0.725402 0.972371 -0.226260
C9    C     C_R   0.598715 0.608148 0.931753 -0.194024
C10   C     C_R   0.508095 0.567325 0.006374 0.086610
C11   C     C_R   0.468423 0.654173 0.119090 0.051725
C12   C     C_R   0.740462 0.999636 0.499578 0.823650
C13   C     C_R   0.455350 0.442923 0.972353 0.079377
C14   C     C_R   0.352416 0.409530 0.045185 0.164735
C15   C     C_R   0.301605 0.499544 0.148901 -0.237981
C16   C     C_R   0.357830 0.620279 0.185026 -0.195693
C17   C     C_R   0.504569 0.350056 0.869026 -0.253428
C18   C     C_R   0.347161 0.196652 0.906534 -0.199066
C19   C     C_R   0.541265 0.771742 0.162786 -0.137506
C20   C     C_R   0.709313 0.348087 0.330701 -0.311010
C21   C     C_R   0.323654 0.759346 0.644932 0.074550
C22   C     C_R   0.285146 0.662771 0.676326 -0.259000
C23   C     C_R   0.479245 0.145270 0.713316 0.784743
C24   C     C_R   0.351403 0.559433 0.621709 -0.189950
C25   C     C_R   0.457793 0.551424 0.534445 -0.005542
C26   C     C_R   0.493858 0.653054 0.505334 0.288784
C27   C     C_R   0.529852 0.447140 0.475317 -0.037059
C28   C     C_R   0.636258 0.447490 0.389349 0.180746
C29   C     C_R   0.669664 0.547075 0.362362 -0.285116
C30   C     C_R   0.600108 0.647285 0.418871 -0.178899
C31   C     C_R   0.501739 0.341736 0.497285 0.020858
C32   C     C_R   0.677107 0.248067 0.356847 0.062018
C33   C     C_R   0.259572 0.999950 0.499844 0.770898
C34   C     C_3   0.986594 0.090756 0.474924 -0.110393
C35   C     C_3   0.066194 0.982754 0.395207 -0.142875
C36   C     C_3   0.122484 0.999285 0.499433 0.013655
C37   C     C_3   0.045108 0.107115 0.579157 -0.186408
C38   C     C_3   0.933859 0.016039 0.603314 -0.183430
Cu1   Cu    Cu3+1 0.529830 0.098270 0.475420 0.954225
Cu2   Cu    Cu3+1 0.470170 0.901730 0.524580 0.923606
H1    H     H_    0.123537 0.969166 0.310184 0.134504
H2    H     H_    0.586908 0.369067 0.812913 0.143315
H3    H     H_    0.621795 0.551411 0.841268 0.138385
H4    H     H_    0.737419 0.751365 0.913731 0.131846
H5    H     H_    0.312291 0.686384 0.264812 0.166715
H6    H     H_    0.733830 0.171746 0.312457 0.165587
H7    H     H_    0.750938 0.547775 0.296595 0.149913
H8    H     H_    0.791136 0.347910 0.265189 0.135607
H9    H     H_    0.422480 0.333446 0.560873 0.122909
H10   H     H_    0.271648 0.839153 0.687827 0.121334
H11   H     H_    0.972999 0.165582 0.454877 0.142991
H12   H     H_    0.317512 0.487552 0.649576 0.133533
H13   H     H_    0.203642 0.668043 0.743275 0.142371
H14   H     H_    0.633752 0.718471 0.391699 0.208029
H15   H     H_    0.085304 0.195148 0.644376 0.129539
H16   H     H_    0.876496 0.029560 0.688315 0.131510
H17   H     H_    0.026995 0.833126 0.543520 0.140075
H18   H     H_    0.914480 0.803690 0.354221 0.132118
H19   H     H_    0.301071 0.103301 0.879454 0.142897
H20   H     H_    0.219259 0.476316 0.203259 0.141372
H21   H     H_    0.221090 0.260414 0.067292 0.132359
N1    N     N_R   0.575030 0.246270 0.438190 -0.182598
N2    N     N_R   0.425760 0.754330 0.561190 -0.206055
O1    O     O_R   0.537510 0.972500 0.318130 -0.549414
O2    O     O_R   0.487140 0.806530 0.359650 -0.607774
O3    O     O_R   0.708330 0.082950 0.479220 -0.563753
O4    O     O_R   0.657960 0.916980 0.520740 -0.607612
O5    O     O_R   0.512860 0.193470 0.640350 -0.589320
O6    O     O_R   0.462490 0.027500 0.681870 -0.587041
O7    O     O_R   0.342040 0.083020 0.479260 -0.586638
O8    O     O_R   0.291670 0.917050 0.520780 -0.598760
C39   C     C_2   0.739719 0.914251 0.128400 0.328505
H22   H     H_    0.776523 0.963401 0.075503 0.050613
O9    O     O_2   0.785903 0.945240 0.215842 -0.572826

loop_
_geom_bond_atom_site_label_1
_geom_bond_atom_site_label_2
_ccdc_geom_bond_type
C24   H12   S    
Cu2   O8    S    
C34   C37   S    
Cu1   O5    S    
C23   O6    A    
C35   C36   S    
C2    H17   S    
C7    C8    A    
Cu1   O1    S    
C30   H14   S    
C11   C19   A    
C34   H11   S    
C29   C30   A    
Cu2   N2    S    
C29   H7    S    
C36   C37   S    
C15   C16   A    
C33   C36   S    
C34   C35   S    
C15   H20   S    
C6    C17   A    
C17   H2    S    
C8    C9    A    
Cu2   O4    S    
C1    O2    A    
C4    C12   S    
C9    C10   A    
C13   C14   A    
C31   N1    A    
C31   H9    S    
C21   H10   S    
C22   H13   S    
C6    C18   A    
C12   O4    A    
C4    C34   S    
C9    H3    S    
C1    C19   S    
Cu2   O6    S    
C27   C31   A    
C24   C25   A    
C39   O9    D    
Cu1   Cu2   S    
C5    C18   A    
C20   C28   A    
C25   C26   A    
C12   O3    A    
C23   O5    A    
C26   N2    A    
C37   C38   S    
C11   C16   A    
C2    C38   S    
C3    C35   S    
C5    H21   S    
C5    C14   A    
C20   H8    S    
C33   O7    A    
C4    C38   S    
C26   C30   A    
C7    C19   A    
Cu2   O2    S    
Cu1   O3    S    
C22   C24   A    
C3    C4    S    
C1    O1    A    
C7    C39   S    
C20   C32   A    
C2    C36   S    
Cu1   N1    S    
C28   C29   A    
C32   H6    S    
C8    H4    S    
C39   H22   S    
C10   C13   A    
C16   H5    S    
C25   C27   A    
C13   C17   A    
C2    C3    S    
C32   N1    A    
C6    C23   S    
Cu1   O7    S    
C35   H1    S    
C21   N2    A    
C10   C11   A    
C33   O8    A    
C37   H15   S    
C3    H18   S    
C18   H19   S    
C38   H16   S    
C27   C28   A    
C14   C15   A    
C21   C22   A    
