data_mof_unit_48096.cif
_audit_creation_date              2012-12-10T19:29:30-0500
_audit_creation_method            fapswitch 2.2
_symmetry_space_group_name_H-M    P1
_symmetry_Int_Tables_number       1
_space_group_crystal_system       triclinic
_cell_length_a                    22.154367
_cell_length_b                    22.334555
_cell_length_c                    14.968432
_cell_angle_alpha                 89.43865
_cell_angle_beta                  89.69353
_cell_angle_gamma                 90.006275
_cell_volume                      7406.03731328

loop_
_atom_site_label
_atom_site_type_symbol
_atom_type_description
_atom_site_fract_x
_atom_site_fract_y
_atom_site_fract_z
_atom_type_partial_charge
C1    C     C_R   0.418560 0.919082 0.500371 0.890187
C2    C     C_R   0.581533 0.080866 0.499430 0.892003
C3    C     C_R   0.581342 0.919067 0.500083 0.890498
C4    C     C_R   0.418532 0.080946 0.499878 0.893880
C5    C     C_R   0.918985 0.418719 0.500270 0.884814
C6    C     C_R   0.081881 0.580469 0.499428 0.894661
C7    C     C_R   0.081125 0.418801 0.500180 0.881827
C8    C     C_R   0.918528 0.580862 0.499948 0.896536
C9    C     C_1   0.330545 0.156516 0.500739 0.163383
C10   C     C_1   0.661420 0.835720 0.499797 0.120860
C11   C     C_1   0.668708 0.157280 0.493608 0.163477
C12   C     C_1   0.338930 0.835097 0.499820 0.127626
C13   C     C_1   0.833266 0.659199 0.501963 0.165074
C14   C     C_1   0.155172 0.330015 0.501949 0.104206
C15   C     C_1   0.170026 0.655710 0.493955 0.163399
C16   C     C_1   0.842650 0.331990 0.497078 0.114746
C17   C     C_1   0.499539 0.000164 0.189971 0.215799
C18   C     C_1   0.500424 0.999719 0.810138 0.190966
C19   C     C_1   0.999593 0.500448 0.189978 0.211748
C20   C     C_1   0.000259 0.499611 0.810096 0.186195
C21   C     C_3   0.464511 0.956336 0.971446 0.483767
C22   C     C_3   0.535878 0.043139 0.029072 0.438035
C23   C     C_3   0.520117 0.947478 0.032050 0.410368
C24   C     C_3   0.480117 0.052081 0.969501 0.425386
C25   C     C_3   0.966744 0.454541 0.971857 0.486747
C26   C     C_3   0.033385 0.545174 0.028329 0.443614
C27   C     C_3   0.022786 0.448911 0.032308 0.413383
C28   C     C_3   0.977140 0.550814 0.969073 0.432972
C29   C     C_3   0.704358 0.734345 0.564871 0.380012
C30   C     C_3   0.289513 0.263635 0.467854 0.323533
C31   C     C_3   0.296575 0.736292 0.428286 0.384219
C32   C     C_3   0.718571 0.252716 0.556484 0.332759
C33   C     C_3   0.188316 0.215597 0.537083 0.360614
C34   C     C_3   0.786608 0.757332 0.438364 0.333444
C35   C     C_3   0.798684 0.231557 0.426710 0.383497
C36   C     C_3   0.217346 0.750341 0.560663 0.335753
C37   C     C_3   0.221980 0.193127 0.453216 0.379945
C38   C     C_3   0.772115 0.798385 0.517444 0.330686
C39   C     C_3   0.783701 0.187973 0.504316 0.353174
C40   C     C_3   0.228299 0.795808 0.484637 0.320817
C41   C     C_3   0.719500 0.692472 0.486623 0.345707
C42   C     C_3   0.256738 0.285247 0.552322 0.331679
C43   C     C_3   0.284818 0.689993 0.503614 0.339754
C44   C     C_3   0.732722 0.295347 0.478119 0.331126
C45   C     C_1   0.371131 0.122136 0.499877 -0.138804
C46   C     C_1   0.625019 0.874287 0.500056 -0.162850
C47   C     C_1   0.628611 0.122389 0.497240 -0.141884
C48   C     C_1   0.375017 0.874023 0.500845 -0.159867
C49   C     C_1   0.872387 0.623287 0.500377 -0.140239
C50   C     C_1   0.121729 0.371185 0.500886 -0.146963
C51   C     C_1   0.129680 0.621122 0.497270 -0.141677
C52   C     C_1   0.877335 0.372040 0.499958 -0.154685
C53   C     C_3   0.248933 0.220548 0.586869 -0.201205
C54   C     C_3   0.719101 0.746336 0.420260 -0.249034
C55   C     C_3   0.730877 0.243320 0.411442 -0.198015
C56   C     C_3   0.285441 0.740569 0.574052 -0.243785
C57   C     C_3   0.771925 0.744732 0.582904 -0.204615
C58   C     C_3   0.229404 0.257988 0.417469 -0.229942
C59   C     C_3   0.228159 0.745432 0.414958 -0.212668
C60   C     C_3   0.786036 0.240121 0.572061 -0.244843
C61   C     C_3   0.282285 0.198859 0.502567 -0.070188
C62   C     C_3   0.704526 0.788379 0.499817 -0.115588
C63   C     C_3   0.716156 0.200486 0.489961 -0.070294
C64   C     C_3   0.296562 0.787013 0.497672 -0.109228
C65   C     C_3   0.786978 0.703520 0.503775 -0.066128
C66   C     C_3   0.196161 0.280740 0.502532 -0.137510
C67   C     C_3   0.216640 0.699771 0.491192 -0.059620
C68   C     C_3   0.800423 0.283924 0.493334 -0.127517
C69   C     C_3   0.442501 0.009091 0.029784 -0.410404
C70   C     C_3   0.557975 0.990316 0.970666 -0.529471
C71   C     C_3   0.941991 0.506222 0.029989 -0.404094
C72   C     C_3   0.058172 0.493418 0.970211 -0.525281
C73   C     C_3   0.499022 0.000177 0.090005 -0.115948
C74   C     C_3   0.500981 0.999511 0.910364 -0.128600
C75   C     C_3   0.999053 0.500659 0.090051 -0.126876
C76   C     C_3   0.000695 0.499336 0.910202 -0.142442
H1    H     H_    0.604772 0.983467 0.945980 0.162862
H2    H     H_    0.395476 0.015769 0.053596 0.178388
H3    H     H_    0.105297 0.489322 0.945527 0.165599
H4    H     H_    0.894724 0.511022 0.053760 0.177088
N1    N     N_1   0.500020 0.000000 0.268010 -0.092677
N2    N     N_1   0.499980 0.000000 0.731990 -0.093806
N3    N     N_1   0.000020 0.500000 0.268010 -0.091892
N4    N     N_1   0.999980 0.500000 0.731990 -0.093117
O1    O     O_R   0.438390 0.938390 0.574460 -0.598208
O2    O     O_R   0.561610 0.061610 0.425540 -0.590860
O3    O     O_R   0.561610 0.938390 0.425540 -0.591845
O4    O     O_R   0.438390 0.061610 0.574460 -0.586981
O5    O     O_R   0.938390 0.438390 0.574460 -0.601123
O6    O     O_R   0.061610 0.561610 0.425540 -0.589342
O7    O     O_R   0.061610 0.438390 0.425540 -0.593031
O8    O     O_R   0.938390 0.561610 0.574460 -0.585578
O9    O     O_R   0.438400 0.938390 0.425520 -0.617336
O10   O     O_R   0.561600 0.061610 0.574480 -0.614245
O11   O     O_R   0.561600 0.938390 0.574480 -0.625956
O12   O     O_R   0.438400 0.061610 0.425520 -0.614953
O13   O     O_R   0.938400 0.438390 0.425520 -0.618894
O14   O     O_R   0.061600 0.561610 0.574480 -0.611890
O15   O     O_R   0.061600 0.438390 0.574480 -0.621424
O16   O     O_R   0.938400 0.561610 0.425520 -0.615457
Zn1   Zn    Zn3+2 0.500000 0.000000 0.599450 1.005075
Zn2   Zn    Zn3+2 0.500000 0.000000 0.400550 1.014748
Zn3   Zn    Zn3+2 0.000000 0.500000 0.599450 1.004816
Zn4   Zn    Zn3+2 0.000000 0.500000 0.400550 1.011608
O17   O     O_3   0.209129 0.141567 0.402804 -0.630636
C77   C     C_3   0.151131 0.144976 0.364090 0.118965
H5    H     H_    0.156565 0.142555 0.290387 0.144903
H6    H     H_    0.126400 0.187327 0.377611 0.122854
C78   C     C_3   0.113516 0.091341 0.396031 -0.302307
H7    H     H_    0.134457 0.049467 0.371053 0.222338
H8    H     H_    0.113119 0.089290 0.470212 0.255101
C79   C     C_3   0.048603 0.095148 0.362886 -1.009077
H9    H     H_    0.025637 0.134671 0.391856 0.251733
H10   H     H_    0.023526 0.054350 0.384093 0.275729
H11   H     H_    0.047703 0.098536 0.288827 0.273037
O18   O     O_3   0.795500 0.856212 0.532726 -0.642681
C80   C     C_3   0.858284 0.854085 0.549471 0.098795
H12   H     H_    0.881973 0.877904 0.494078 0.151362
H13   H     H_    0.877559 0.807956 0.553437 0.154867
C81   C     C_3   0.871377 0.886799 0.636526 -0.335503
H14   H     H_    0.854968 0.933714 0.631201 0.231564
H15   H     H_    0.846893 0.864474 0.692547 0.216067
C82   C     C_3   0.938738 0.887297 0.657194 -0.953400
H16   H     H_    0.956126 0.840811 0.663622 0.277682
H17   H     H_    0.946466 0.910862 0.721092 0.267905
H18   H     H_    0.963940 0.911160 0.603429 0.267151
O19   O     O_3   0.804994 0.128384 0.509048 -0.616203
C83   C     C_3   0.858315 0.124556 0.559751 0.102768
H19   H     H_    0.846039 0.119600 0.631543 0.140465
H20   H     H_    0.887989 0.164395 0.550826 0.112262
C84   C     C_3   0.893852 0.069349 0.530813 -0.320679
H21   H     H_    0.864465 0.029090 0.535456 0.237315
H22   H     H_    0.908519 0.075184 0.460117 0.221846
C85   C     C_3   0.949280 0.059594 0.589223 -0.978344
H23   H     H_    0.978705 0.099771 0.587255 0.265172
H24   H     H_    0.975494 0.020853 0.564239 0.267439
H25   H     H_    0.935384 0.050218 0.659386 0.271699
O20   O     O_3   0.202332 0.853489 0.478863 -0.639089
C86   C     C_3   0.141291 0.849116 0.453174 0.092885
H26   H     H_    0.117203 0.812243 0.489338 0.163113
H27   H     H_    0.138787 0.841484 0.380087 0.148428
C87   C     C_3   0.109191 0.908001 0.473545 -0.314831
H28   H     H_    0.108880 0.915424 0.546848 0.216509
H29   H     H_    0.133926 0.945649 0.440923 0.234963
C88   C     C_3   0.044330 0.907396 0.439640 -0.992044
H30   H     H_    0.043787 0.902693 0.365842 0.274048
H31   H     H_    0.021723 0.950041 0.457152 0.260607
H32   H     H_    0.018768 0.869702 0.470627 0.269008
O21   O     O_3   0.697792 0.633141 0.480358 -0.619027
C89   C     C_3   0.647206 0.629895 0.423893 0.087476
H33   H     H_    0.662906 0.626515 0.353469 0.141569
H34   H     H_    0.616844 0.669257 0.430176 0.123899
C90   C     C_3   0.611170 0.573649 0.448237 -0.307534
H35   H     H_    0.640378 0.533639 0.440034 0.231745
H36   H     H_    0.596753 0.575794 0.519371 0.223359
C91   C     C_3   0.555396 0.567155 0.389750 -0.996079
H37   H     H_    0.524136 0.605291 0.400421 0.263054
H38   H     H_    0.531350 0.525135 0.407847 0.272307
H39   H     H_    0.568539 0.565352 0.318117 0.271627
O22   O     O_3   0.271559 0.334906 0.605626 -0.648675
C92   C     C_3   0.331241 0.329830 0.638069 0.115186
H40   H     H_    0.360597 0.360874 0.599030 0.157503
H41   H     H_    0.350870 0.283957 0.632747 0.158923
C93   C     C_3   0.332155 0.348126 0.736152 -0.348038
H42   H     H_    0.316065 0.395068 0.742121 0.231028
H43   H     H_    0.301178 0.318625 0.775251 0.219384
C94   C     C_3   0.395510 0.343242 0.775128 -0.958952
H44   H     H_    0.411679 0.296201 0.772496 0.273403
H45   H     H_    0.394698 0.357543 0.845950 0.265207
H46   H     H_    0.427315 0.372555 0.737297 0.264030
O23   O     O_3   0.309022 0.631394 0.504113 -0.621184
C95   C     C_3   0.360363 0.627734 0.559140 0.086131
H47   H     H_    0.345730 0.622635 0.629945 0.140882
H48   H     H_    0.389869 0.667841 0.552235 0.123050
C96   C     C_3   0.397156 0.572589 0.533435 -0.319755
H49   H     H_    0.369442 0.531675 0.544608 0.230009
H50   H     H_    0.409423 0.575320 0.461409 0.225178
C97   C     C_3   0.454793 0.567724 0.588418 -0.988561
H51   H     H_    0.484113 0.607321 0.575928 0.260977
H52   H     H_    0.479961 0.526815 0.569097 0.271117
H53   H     H_    0.443708 0.564722 0.660781 0.269612
O24   O     O_3   0.709804 0.353696 0.464309 -0.643064
C98   C     C_3   0.646552 0.352561 0.451773 0.102478
H54   H     H_    0.624832 0.374960 0.509457 0.148336
H55   H     H_    0.626689 0.306743 0.447363 0.155512
C99   C     C_3   0.631018 0.387856 0.366993 -0.327494
H56   H     H_    0.648469 0.434291 0.372460 0.230353
H57   H     H_    0.652980 0.366700 0.308385 0.216751
C100  C     C_3   0.562994 0.389955 0.352171 -0.969956
H58   H     H_    0.545137 0.344022 0.342422 0.275446
H59   H     H_    0.552984 0.417276 0.291678 0.272240
H60   H     H_    0.540030 0.410464 0.410480 0.260437
O25   O     O_3   0.663332 0.723104 0.635735 -0.626704
C101  C     C_3   0.602927 0.722103 0.605589 0.122959
H61   H     H_    0.585984 0.675356 0.610295 0.157868
H62   H     H_    0.596843 0.737534 0.535349 0.116029
C102  C     C_3   0.564639 0.761901 0.666003 -0.378394
H63   H     H_    0.565533 0.743733 0.735343 0.225324
H64   H     H_    0.584086 0.807767 0.666569 0.233346
C103  C     C_3   0.499424 0.765615 0.634124 -0.907288
H65   H     H_    0.497508 0.784051 0.565061 0.245504
H66   H     H_    0.473644 0.795966 0.678408 0.303745
H67   H     H_    0.478091 0.720621 0.636089 0.263090
O26   O     O_3   0.345332 0.285492 0.435111 -0.648397
C104  C     C_3   0.338153 0.344172 0.400768 0.109116
H68   H     H_    0.309098 0.372321 0.444541 0.173297
H69   H     H_    0.317916 0.342341 0.333119 0.155112
C105  C     C_3   0.400063 0.373915 0.392585 -0.354528
H70   H     H_    0.422071 0.374557 0.459112 0.218007
H71   H     H_    0.428901 0.347591 0.346410 0.239120
C106  C     C_3   0.394818 0.437999 0.357048 -0.954388
H72   H     H_    0.374543 0.438279 0.289343 0.273170
H73   H     H_    0.440302 0.458680 0.352719 0.266154
H74   H     H_    0.366360 0.465216 0.402478 0.269392
O27   O     O_3   0.335649 0.731332 0.353772 -0.625324
C107  C     C_3   0.396447 0.724930 0.380300 0.106487
H75   H     H_    0.408294 0.676599 0.380444 0.164242
H76   H     H_    0.406066 0.743097 0.447691 0.117237
C108  C     C_3   0.436564 0.758043 0.312690 -0.345928
H77   H     H_    0.429857 0.738842 0.245227 0.233120
H78   H     H_    0.423333 0.806053 0.310291 0.240184
C109  C     C_3   0.503209 0.753651 0.337084 -0.911275
H79   H     H_    0.511416 0.773942 0.403317 0.255957
H80   H     H_    0.530468 0.778237 0.286293 0.300064
H81   H     H_    0.517977 0.706194 0.338379 0.251707
O28   O     O_3   0.674124 0.260694 0.623260 -0.649230
C110  C     C_3   0.685383 0.313388 0.672271 0.131079
H82   H     H_    0.650542 0.347108 0.654667 0.143887
H83   H     H_    0.730415 0.334208 0.659056 0.171735
C111  C     C_3   0.679906 0.299068 0.771894 -0.362589
H84   H     H_    0.633391 0.283026 0.786690 0.227511
H85   H     H_    0.712221 0.262922 0.789847 0.230070
C112  C     C_3   0.693108 0.353929 0.828533 -0.928951
H86   H     H_    0.740076 0.369642 0.816604 0.281442
H87   H     H_    0.687957 0.342116 0.900391 0.267929
H88   H     H_    0.661103 0.390647 0.812092 0.263497
O29   O     O_3   0.139160 0.184936 0.577518 -0.631870
C113  C     C_3   0.083024 0.211269 0.556277 0.083742
H89   H     H_    0.050313 0.174514 0.545518 0.155945
H90   H     H_    0.083199 0.237791 0.493132 0.126206
C114  C     C_3   0.060464 0.248618 0.634828 -0.384798
H91   H     H_    0.054320 0.218914 0.694159 0.229986
H92   H     H_    0.094439 0.283196 0.651755 0.227813
C115  C     C_3   0.000592 0.279149 0.613283 -0.879564
H93   H     H_    0.005881 0.309874 0.555169 0.239399
H94   H     H_    0.985529 0.305986 0.671194 0.290465
H95   H     H_    0.965529 0.245210 0.598380 0.266046
O30   O     O_3   0.832381 0.765212 0.373324 -0.649599
C116  C     C_3   0.824179 0.819498 0.325397 0.131255
H96   H     H_    0.860520 0.850970 0.344694 0.149489
H97   H     H_    0.780085 0.842139 0.338258 0.169369
C117  C     C_3   0.829750 0.807300 0.225434 -0.352364
H98   H     H_    0.874164 0.786151 0.211310 0.237515
H99   H     H_    0.793619 0.775823 0.205146 0.227754
C118  C     C_3   0.824339 0.864887 0.170385 -0.962877
H100  H     H_    0.780059 0.886645 0.183010 0.274178
H101  H     H_    0.827836 0.854322 0.098206 0.265044
H102  H     H_    0.861160 0.896407 0.187691 0.269339
O31   O     O_3   0.837129 0.219731 0.353242 -0.623620
C119  C     C_3   0.898860 0.224890 0.375494 0.097537
H103  H     H_    0.920376 0.180491 0.365864 0.161474
H104  H     H_    0.907648 0.238010 0.445705 0.111756
C120  C     C_3   0.928568 0.270387 0.311994 -0.332619
H105  H     H_    0.922795 0.255459 0.241926 0.233793
H106  H     H_    0.905954 0.314503 0.319187 0.233220
C121  C     C_3   0.995790 0.277766 0.330763 -0.929962
H107  H     H_    0.002652 0.294305 0.399543 0.253495
H108  H     H_    0.015476 0.310903 0.283099 0.291418
H109  H     H_    0.019736 0.234518 0.322512 0.251764
O32   O     O_3   0.173524 0.753492 0.629279 -0.650589
C122  C     C_3   0.180178 0.806753 0.678613 0.141312
H110  H     H_    0.142976 0.837737 0.660127 0.156326
H111  H     H_    0.223725 0.830742 0.666454 0.171892
C123  C     C_3   0.175345 0.791641 0.778134 -0.372160
H112  H     H_    0.131202 0.769733 0.792235 0.237056
H113  H     H_    0.211906 0.759864 0.796491 0.228546
C124  C     C_3   0.180944 0.847561 0.835215 -0.932588
H114  H     H_    0.225520 0.869220 0.823906 0.280581
H115  H     H_    0.176972 0.834934 0.906942 0.265221
H116  H     H_    0.144493 0.879890 0.818613 0.265926
C125  C     C_2   0.691437 0.748919 0.329215 0.383414
H117  H     H_    0.706178 0.717897 0.278297 0.062720
O33   O     O_2   0.652764 0.785972 0.311752 -0.597484
C126  C     C_2   0.258472 0.200559 0.681595 0.487245
H118  H     H_    0.231390 0.219920 0.734507 0.058910
O34   O     O_2   0.296441 0.162866 0.699720 -0.566798
C127  C     C_2   0.314650 0.740027 0.663931 0.374773
H119  H     H_    0.301312 0.706902 0.713655 0.065888
O35   O     O_2   0.352943 0.777074 0.681854 -0.608865
C128  C     C_2   0.702079 0.244759 0.321091 0.478379
H120  H     H_    0.718273 0.276202 0.270783 0.064742
O36   O     O_2   0.660763 0.210808 0.303540 -0.577714
C129  C     C_2   0.217820 0.276210 0.322516 0.373519
H121  H     H_    0.243033 0.255218 0.269017 0.079022
O37   O     O_2   0.180335 0.314464 0.304934 -0.587039
C130  C     C_2   0.799130 0.743289 0.674329 0.481090
H122  H     H_    0.782324 0.773410 0.725089 0.061628
O38   O     O_2   0.839818 0.708466 0.692257 -0.569667
C131  C     C_2   0.814812 0.239349 0.662350 0.372032
H123  H     H_    0.800302 0.206840 0.712254 0.066115
O39   O     O_2   0.854093 0.275386 0.680368 -0.606679
C132  C     C_2   0.199317 0.746358 0.324613 0.462015
H124  H     H_    0.212955 0.779932 0.275721 0.074476
O40   O     O_2   0.160745 0.709723 0.305547 -0.564266
O41   O     O_3   0.535958 0.892118 0.072021 -0.658431
C133  C     C_3   0.594292 0.874663 0.045097 0.058648
H125  H     H_    0.628268 0.907180 0.070022 0.170460
H126  H     H_    0.597277 0.871670 0.970927 0.128741
C134  C     C_3   0.607742 0.812925 0.084963 -0.297821
H127  H     H_    0.602222 0.814599 0.158635 0.273025
H128  H     H_    0.575002 0.779867 0.058550 0.210553
C135  C     C_3   0.671769 0.792538 0.062690 -0.947693
H129  H     H_    0.677905 0.789247 0.989202 0.261233
H130  H     H_    0.680068 0.747834 0.093334 0.263228
H131  H     H_    0.705198 0.824576 0.089634 0.276061
O42   O     O_3   0.461019 0.106855 0.931262 -0.635985
C136  C     C_3   0.435507 0.143444 0.997755 0.090135
H132  H     H_    0.467141 0.149336 0.054614 0.166176
H133  H     H_    0.392492 0.123519 0.022722 0.149809
C137  C     C_3   0.421918 0.204978 0.957065 -0.313339
H134  H     H_    0.464590 0.225606 0.932298 0.221651
H135  H     H_    0.390915 0.199830 0.899472 0.250694
C138  C     C_3   0.392751 0.246400 0.025342 -0.967586
H136  H     H_    0.349389 0.227173 0.049783 0.268076
H137  H     H_    0.383514 0.290591 0.993675 0.267343
H138  H     H_    0.423421 0.253095 0.082860 0.269966
O43   O     O_3   0.422815 0.914079 0.938732 -0.630211
C139  C     C_3   0.450459 0.857713 0.929012 0.076348
H139  H     H_    0.455985 0.836400 0.995888 0.198962
H140  H     H_    0.494999 0.861504 0.894291 0.126040
C140  C     C_3   0.409628 0.817666 0.873718 -0.289244
H141  H     H_    0.363536 0.816746 0.903463 0.238493
H142  H     H_    0.406632 0.836542 0.805002 0.265800
C141  C     C_3   0.434037 0.753790 0.870141 -0.948087
H143  H     H_    0.435264 0.733761 0.938327 0.256001
H144  H     H_    0.480278 0.753525 0.841320 0.262603
H145  H     H_    0.404368 0.725865 0.827981 0.288532
O44   O     O_3   0.571416 0.088526 0.067174 -0.637592
C142  C     C_3   0.604910 0.118430 0.000134 0.079334
H146  H     H_    0.574500 0.138249 0.948782 0.173090
H147  H     H_    0.637201 0.087154 0.967643 0.143512
C143  C     C_3   0.640757 0.168781 0.043413 -0.279350
H148  H     H_    0.609202 0.199332 0.078714 0.239484
H149  H     H_    0.672454 0.149441 0.093285 0.250860
C144  C     C_3   0.676466 0.204694 0.974029 -0.997508
H150  H     H_    0.708636 0.175266 0.937972 0.267335
H151  H     H_    0.702309 0.240584 0.007553 0.276858
H152  H     H_    0.645074 0.225665 0.925473 0.266853
O45   O     O_3   0.041160 0.394291 0.072092 -0.658212
C145  C     C_3   0.101194 0.380976 0.048350 0.060773
H153  H     H_    0.132181 0.415431 0.075809 0.172026
H154  H     H_    0.106325 0.378866 0.974336 0.127035
C146  C     C_3   0.117672 0.319810 0.087695 -0.296765
H155  H     H_    0.109639 0.319957 0.161005 0.270525
H156  H     H_    0.088259 0.284985 0.058048 0.206538
C147  C     C_3   0.183611 0.304179 0.069319 -0.934718
H157  H     H_    0.192435 0.303119 0.996222 0.253715
H158  H     H_    0.193854 0.259357 0.098193 0.260688
H159  H     H_    0.213863 0.337604 0.100482 0.275356
O46   O     O_3   0.954839 0.604599 0.931581 -0.634239
C148  C     C_3   0.931841 0.642632 0.998693 0.104762
H160  H     H_    0.953073 0.687341 0.989329 0.160906
H161  H     H_    0.942189 0.627919 0.068465 0.143290
C149  C     C_3   0.863541 0.648977 0.987659 -0.308774
H162  H     H_    0.853491 0.665591 0.919074 0.258955
H163  H     H_    0.841793 0.604493 0.996752 0.220671
C150  C     C_3   0.836984 0.692442 0.055370 -0.994219
H164  H     H_    0.845621 0.676257 0.124546 0.270423
H165  H     H_    0.787458 0.695979 0.045660 0.273282
H166  H     H_    0.857208 0.737607 0.046163 0.271704
O47   O     O_3   0.927968 0.409281 0.940268 -0.631589
C151  C     C_3   0.960897 0.356668 0.922579 0.074567
H167  H     H_    0.970001 0.332693 0.986512 0.199031
H168  H     H_    0.004217 0.366454 0.886939 0.123036
C152  C     C_3   0.923198 0.315685 0.864024 -0.285961
H169  H     H_    0.877874 0.308911 0.894745 0.240260
H170  H     H_    0.917296 0.337307 0.797509 0.260934
C153  C     C_3   0.953677 0.254860 0.852941 -0.956107
H171  H     H_    0.956362 0.231237 0.918449 0.257378
H172  H     H_    0.999984 0.260587 0.825503 0.258341
H173  H     H_    0.927181 0.226846 0.806522 0.295352
O48   O     O_3   0.066766 0.593397 0.062976 -0.636810
C154  C     C_3   0.095584 0.626219 0.993591 0.119526
H174  H     H_    0.083611 0.674161 0.001878 0.160519
H175  H     H_    0.081465 0.613669 0.924759 0.148315
C155  C     C_3   0.163988 0.619313 0.001960 -0.320766
H176  H     H_    0.178194 0.632566 0.070093 0.256273
H177  H     H_    0.176577 0.571681 0.992016 0.212811
C156  C     C_3   0.197267 0.658150 0.933229 -0.985599
H178  H     H_    0.183965 0.645661 0.864417 0.269407
H179  H     H_    0.246700 0.651582 0.940226 0.271884
H180  H     H_    0.186779 0.706164 0.944139 0.270471

loop_
_geom_bond_atom_site_label_1
_geom_bond_atom_site_label_2
_ccdc_geom_bond_type
O15   Zn3   S    
C118  H101  S    
O12   Zn2   S    
C101  H62   S    
C107  C108  S    
C92   C93   S    
C88   H30   S    
C96   H50   S    
C7    O15   A    
C126  H118  S    
C72   H3    S    
C80   H13   S    
C86   C87   S    
C101  C102  S    
C41   O21   S    
C77   H5    S    
C122  H110  S    
O16   Zn4   S    
C151  H167  S    
C123  H112  S    
C31   C59   S    
C102  H64   S    
O24   C98   S    
C79   H9    S    
C4    O12   A    
C40   O20   S    
C70   C74   S    
C127  O35   D    
C8    O8    A    
C15   C51   T    
C95   C96   S    
C59   C132  S    
C104  H69   S    
C1    O1    A    
C27   C75   S    
C92   H41   S    
C92   H40   S    
C148  C149  S    
C113  H90   S    
C138  H136  S    
C137  C138  S    
C143  H148  S    
C82   H18   S    
C3    O3    A    
C147  H159  S    
O42   C136  S    
C136  C137  S    
C155  H177  S    
C98   H54   S    
C38   C57   S    
C96   H49   S    
C152  H169  S    
C133  H125  S    
C144  H152  S    
C111  H85   S    
O6    Zn4   S    
C21   O43   S    
C119  H104  S    
C130  H122  S    
C34   C54   S    
C25   O47   S    
C156  H178  S    
C87   H29   S    
C155  C156  S    
C154  H174  S    
C88   H32   S    
C53   C126  S    
C120  H106  S    
C143  C144  S    
C41   C65   S    
C86   H26   S    
C151  C152  S    
C1    C48   S    
C2    C47   S    
C3    C46   S    
C115  H95   S    
C25   C76   S    
C91   H38   S    
C44   C55   S    
C14   C50   T    
C99   C100  S    
C29   O25   S    
C39   C60   S    
C18   N2    T    
C150  H166  S    
C145  H153  S    
C27   O45   S    
C103  H66   S    
O25   C101  S    
C30   C61   S    
C57   C130  S    
C36   O32   S    
C3    O11   A    
C114  H92   S    
C99   H56   S    
C78   H7    S    
C5    O5    A    
O14   Zn3   S    
C117  H98   S    
C38   C62   S    
C140  H142  S    
O45   C145  S    
C141  H145  S    
C24   O42   S    
C83   H19   S    
C79   H10   S    
C97   H51   S    
C82   H16   S    
C94   H45   S    
C115  H93   S    
C116  H96   S    
C31   C43   S    
C9    C61   S    
C107  H76   S    
C11   C63   S    
C78   H8    S    
C42   C53   S    
C12   C64   S    
C31   O27   S    
C149  H162  S    
C114  H91   S    
C100  H59   S    
C59   C67   S    
C53   C61   S    
C149  H163  S    
C55   C63   S    
C156  H180  S    
C56   C64   S    
C25   C71   S    
C112  H86   S    
O29   C113  S    
O5    Zn3   S    
C70   H1    S    
C17   C73   S    
C23   C70   S    
C111  H84   S    
C19   N3    T    
O46   C148  S    
C95   H48   S    
C33   C66   S    
C4    C45   S    
C134  H128  S    
C14   C66   S    
C132  O40   D    
C97   H53   S    
C2    O10   A    
C98   C99   S    
C43   O23   S    
C141  H143  S    
C109  H81   S    
C6    O6    A    
C21   C69   S    
C138  H137  S    
C137  H135  S    
C37   O17   S    
C129  H121  S    
C131  O39   D    
C15   C67   S    
C147  H158  S    
C26   C75   S    
C109  H80   S    
C121  H108  S    
C117  C118  S    
C1    O9    A    
C110  H83   S    
C5    O13   A    
C20   N4    T    
C144  H151  S    
O2    Zn2   S    
C83   C84   S    
C81   H14   S    
C26   O48   S    
C152  C153  S    
C116  C117  S    
C29   C41   S    
C87   H28   S    
C42   O22   S    
C7    C50   S    
C32   O28   S    
C119  H103  S    
C121  H109  S    
C85   H23   S    
C4    O4    A    
C125  O33   D    
C135  H131  S    
C114  C115  S    
C126  O34   D    
C8    O16   A    
C154  C155  S    
C80   H12   S    
C108  C109  S    
C86   H27   S    
C77   H6    S    
C115  H94   S    
C123  H113  S    
C102  H63   S    
C112  H88   S    
C142  C143  S    
O26   C104  S    
C43   C67   S    
O28   C110  S    
C124  H116  S    
C89   H33   S    
C22   C70   S    
C118  H100  S    
C77   C78   S    
C122  C123  S    
C9    C45   T    
O48   C154  S    
C123  C124  S    
C26   C72   S    
C28   O46   S    
C11   C47   T    
C12   C48   T    
C84   C85   S    
C85   H25   S    
C146  H155  S    
C120  H105  S    
C148  H161  S    
C113  C114  S    
C6    O14   A    
C93   H42   S    
C119  C120  S    
C143  H149  S    
C82   H17   S    
O47   C151  S    
C128  H120  S    
C136  H133  S    
C146  H156  S    
C29   C62   S    
C105  H70   S    
C89   C90   S    
C133  H126  S    
C69   C73   S    
C90   H36   S    
C81   C82   S    
C54   C125  S    
C130  O38   D    
C101  H61   S    
C118  H102  S    
C87   C88   S    
C10   C62   S    
C139  C140  S    
C88   H31   S    
C96   C97   S    
C133  C134  S    
C80   C81   S    
C94   H44   S    
C58   C129  S    
C139  H139  S    
C54   C62   S    
C145  C146  S    
C104  H68   S    
C60   C131  S    
C33   C37   S    
C102  C103  S    
C35   C39   S    
C131  H123  S    
C36   C56   S    
C142  H146  S    
C7    O7    A    
C150  H165  S    
C145  H154  S    
C22   O44   S    
C29   C57   S    
C21   C23   S    
C22   C24   S    
C23   O41   S    
C32   C60   S    
C99   H57   S    
C84   H21   S    
C28   C76   S    
C44   O24   S    
C108  H77   S    
C146  C147  S    
C30   O26   S    
O30   C116  S    
C117  H99   S    
C113  H89   S    
C93   C94   S    
C16   C52   T    
C57   C65   S    
C83   H20   S    
O9    Zn2   S    
C97   H52   S    
C149  C150  S    
O17   C77   S    
C153  H173  S    
C155  H176  S    
O43   C139  S    
C140  H141  S    
O21   C89   S    
O22   C92   S    
C105  C106  S    
C93   H43   S    
C135  H130  S    
C17   N1    T    
O27   C107  S    
C100  H58   S    
O13   Zn4   S    
C33   O29   S    
O20   C86   S    
C60   C68   S    
O41   C133  S    
C156  H179  S    
O32   C122  S    
C30   C42   S    
C8    C49   S    
C27   C72   S    
C55   C128  S    
C120  C121  S    
O23   C95   S    
C150  H164  S    
O7    Zn4   S    
C72   C76   S    
O4    Zn1   S    
C36   C67   S    
C13   C65   S    
C134  H127  S    
C135  H129  S    
C142  H147  S    
C91   H37   S    
C98   H55   S    
C141  H144  S    
O18   C80   S    
C20   C76   S    
C111  C112  S    
O8    Zn3   S    
C58   C66   S    
C110  H82   S    
O10   Zn1   S    
C151  H168  S    
C103  H65   S    
C104  C105  S    
C10   C46   T    
C5    C52   S    
C16   C68   S    
C6    C51   S    
C37   C58   S    
C18   C74   S    
C40   C59   S    
C69   H2    S    
C136  H132  S    
C23   C73   S    
C34   C65   S    
C71   H4    S    
C140  C141  S    
C81   H15   S    
C24   C69   S    
C94   H46   S    
N1    Zn2   S    
C152  H170  S    
C33   C53   S    
C116  H97   S    
C39   O19   S    
N3    Zn4   S    
C35   C55   S    
C35   O31   S    
C36   C40   S    
C107  H75   S    
C139  H140  S    
C78   C79   S    
C85   H24   S    
C125  H117  S    
C21   C74   S    
C90   C91   S    
C100  H60   S    
C154  H175  S    
C106  H72   S    
C108  H78   S    
O3    Zn2   S    
C38   O18   S    
C106  H74   S    
C32   C44   S    
C112  H87   S    
C13   C49   T    
C106  H73   S    
C124  H115  S    
C127  H119  S    
C34   O30   S    
C89   H34   S    
C44   C68   S    
O31   C119  S    
O1    Zn1   S    
C95   H47   S    
C134  C135  S    
C122  H111  S    
C132  H124  S    
C34   C38   S    
C31   C64   S    
C91   H39   S    
C32   C63   S    
C84   H22   S    
C37   C61   S    
C25   C27   S    
C39   C63   S    
C148  H160  S    
C26   C28   S    
C40   C64   S    
C138  H138  S    
C137  H134  S    
C19   C75   S    
C144  H150  S    
C129  O37   D    
C71   C75   S    
C24   C74   S    
C35   C68   S    
C153  H171  S    
C103  H67   S    
C30   C58   S    
C147  H157  S    
N2    Zn1   S    
C2    O2    A    
C56   C127  S    
C128  O36   D    
C109  H79   S    
C41   C54   S    
C121  H107  S    
C28   C71   S    
O11   Zn1   S    
C43   C56   S    
C110  C111  S    
C105  H71   S    
O44   C142  S    
C42   C66   S    
N4    Zn3   S    
C22   C73   S    
C90   H35   S    
C124  H114  S    
C153  H172  S    
C79   H11   S    
O19   C83   S    
