data_mof_unit_49186.cif
_audit_creation_date              2012-12-10T16:51:19-0500
_audit_creation_method            fapswitch 2.2
_symmetry_space_group_name_H-M    P1
_symmetry_Int_Tables_number       1
_space_group_crystal_system       triclinic
_cell_length_a                    27.772882
_cell_length_b                    8.659866
_cell_length_c                    7.422419
_cell_angle_alpha                 103.373645
_cell_angle_beta                  94.016862
_cell_angle_gamma                 92.454937
_cell_volume                      1729.27764432

loop_
_atom_site_label
_atom_site_type_symbol
_atom_type_description
_atom_site_fract_x
_atom_site_fract_y
_atom_site_fract_z
_atom_type_partial_charge
C1    C     C_R   0.498504 0.199410 0.452817 0.893156
C2    C     C_R   0.501449 0.800588 0.547194 0.883051
C3    C     C_R   0.101668 0.528300 0.431965 -0.113842
C4    C     C_R   0.897178 0.533054 0.407753 -0.112217
C5    C     C_R   0.124318 0.390266 0.345371 -0.122506
C6    C     C_R   0.874366 0.670002 0.495774 -0.116955
C7    C     C_R   0.095777 0.257384 0.239269 0.488803
C8    C     C_R   0.902701 0.808442 0.587721 0.490747
C9    C     C_R   0.130434 0.663159 0.532099 -0.017347
C10   C     C_R   0.868676 0.392504 0.324877 -0.006680
C11   C     C_R   0.354448 0.506189 0.505668 -0.152819
C12   C     C_R   0.646017 0.505716 0.489247 -0.165413
C13   C     C_R   0.970510 0.396063 0.314805 0.086624
C14   C     C_R   0.028341 0.672031 0.507239 0.085280
C15   C     C_R   0.976990 0.672964 0.501193 -0.014685
C16   C     C_R   0.021764 0.396563 0.317171 -0.016264
C17   C     C_R   0.948387 0.534758 0.406182 0.070442
C18   C     C_R   0.050402 0.532122 0.418961 0.069710
C19   C     C_R   0.940454 0.258416 0.230949 -0.232680
C20   C     C_R   0.058731 0.807064 0.598125 -0.233015
C21   C     C_R   0.890712 0.257098 0.236247 -0.172385
C22   C     C_R   0.108586 0.801869 0.611365 -0.167277
C23   C     C_R   0.407391 0.499034 0.502528 0.855596
C24   C     C_R   0.592773 0.502673 0.497860 0.851307
C25   C     C_R   0.045447 0.265166 0.220229 -0.331296
C26   C     C_R   0.953241 0.805838 0.594572 -0.329237
C27   C     C_2   0.497777 0.031225 0.426362 -0.342912
C28   C     C_2   0.502109 0.968768 0.573666 -0.334371
C29   C     C_R   0.175247 0.390215 0.367666 0.642577
C30   C     C_R   0.823439 0.662403 0.493700 0.669998
C31   C     C_R   0.180792 0.657314 0.548954 0.562588
C32   C     C_R   0.818662 0.387798 0.339791 0.554378
C33   C     C_R   0.279921 0.571620 0.357038 -0.102182
C34   C     C_R   0.713265 0.473086 0.293767 -0.064388
C35   C     C_R   0.329798 0.565372 0.366402 -0.192601
C36   C     C_R   0.663930 0.466867 0.312946 -0.219887
C37   C     C_R   0.327843 0.453409 0.638696 0.198067
C38   C     C_R   0.679383 0.546984 0.649596 0.220812
C39   C     C_R   0.277153 0.461151 0.628878 0.286105
C40   C     C_R   0.729414 0.542603 0.629173 0.279925
C41   C     C_R   0.253505 0.519231 0.486607 0.228478
C42   C     C_R   0.746278 0.511510 0.450300 0.209409
Cu1   Cu    Cu3+1 0.505380 0.517380 0.684380 1.015402
Cu2   Cu    Cu3+1 0.494620 0.482620 0.315620 0.997359
H1    H     H_    0.463478 0.373590 0.947393 0.259803
H2    H     H_    0.537113 0.624796 0.052358 0.243814
H3    H     H_    0.639647 0.433177 0.187885 0.215569
H4    H     H_    0.349220 0.607279 0.263565 0.205688
H5    H     H_    0.725969 0.447099 0.156016 0.222477
H6    H     H_    0.261554 0.616406 0.247716 0.187712
H7    H     H_    0.869594 0.147326 0.173261 0.211659
H8    H     H_    0.130040 0.908373 0.684061 0.214322
H9    H     H_    0.954079 0.146438 0.165756 0.145062
H10   H     H_    0.045555 0.920535 0.660069 0.143616
H11   H     H_    0.025898 0.167055 0.123753 0.136637
H12   H     H_    0.972959 0.908147 0.682040 0.134202
H13   H     H_    0.493712 0.958604 0.284847 0.181854
H14   H     H_    0.506165 0.041390 0.715183 0.183122
N1    N     N_R   0.201909 0.521837 0.469074 -0.459598
N2    N     N_R   0.797218 0.520758 0.426611 -0.453705
N3    N     N_2   0.486510 0.456430 0.038510 -0.204962
N4    N     N_2   0.513490 0.543570 0.961490 -0.205626
O1    O     O_R   0.503500 0.286120 0.619780 -0.585091
O2    O     O_R   0.496500 0.713880 0.380220 -0.590884
O3    O     O_R   0.494410 0.256780 0.308360 -0.581670
O4    O     O_R   0.505590 0.743220 0.691640 -0.578734
O5    O     O_R   0.434810 0.514700 0.655690 -0.557757
O6    O     O_R   0.565190 0.485300 0.344310 -0.597397
O7    O     O_R   0.425720 0.485350 0.344280 -0.565785
O8    O     O_R   0.574280 0.514650 0.655720 -0.537644
O9    O     O_2   0.198240 0.260237 0.289909 -0.430535
O10   O     O_2   0.800030 0.794706 0.558976 -0.432404
O11   O     O_2   0.791753 0.250467 0.271143 -0.511675
O12   O     O_2   0.208576 0.785749 0.644892 -0.498762
Br1   Br    Br    0.358776 0.360679 0.825625 -0.452323
Br2   Br    Br    0.659074 0.621131 0.896814 -0.460715
Br3   Br    Br    0.239299 0.391431 0.806454 -0.398660
Br4   Br    Br    0.775099 0.572212 0.844773 -0.454308
O13   O     O_3   0.117732 0.126086 0.140874 -0.528734
C43   C     C_3   0.098605 0.983334 0.177663 0.055564
H15   H     H_    0.088663 0.999452 0.323680 0.141034
H16   H     H_    0.066257 0.936539 0.080310 0.136351
C44   C     C_3   0.136323 0.859532 0.146282 -0.642957
H17   H     H_    0.168137 0.898513 0.248648 0.270390
H18   H     H_    0.120651 0.744157 0.163315 0.184097
H19   H     H_    0.148251 0.842616 0.003775 0.265151
O14   O     O_3   0.880707 0.936433 0.693362 -0.529335
C45   C     C_3   0.897923 0.083004 0.661051 0.039307
H20   H     H_    0.905658 0.072644 0.513455 0.144464
H21   H     H_    0.931127 0.129092 0.753753 0.136165
C46   C     C_3   0.859753 0.203751 0.707351 -0.608319
H22   H     H_    0.850274 0.214901 0.852398 0.260474
H23   H     H_    0.873839 0.321803 0.692803 0.188096
H24   H     H_    0.826658 0.165433 0.611648 0.282096

loop_
_geom_bond_atom_site_label_1
_geom_bond_atom_site_label_2
_ccdc_geom_bond_type
O14   C45   S    
C8    C26   A    
C23   O7    A    
C34   C42   A    
Cu1   O1    S    
C39   C41   A    
C38   Br2   S    
Cu2   O2    S    
H2    N4    S    
C39   Br3   S    
C22   H8    S    
C19   C21   A    
C9    C22   A    
C23   O5    A    
C36   H3    S    
C31   N1    A    
C11   C23   S    
C11   C37   A    
C14   C18   A    
C29   N1    A    
C30   N2    A    
C1    O3    A    
C12   C36   A    
C19   H9    S    
C40   C42   A    
C37   Br1   S    
Cu2   O3    S    
C43   C44   S    
C35   H4    S    
C1    O1    A    
C3    C18   A    
C2    O2    A    
C5    C29   A    
C10   C21   A    
C13   C19   A    
C24   O8    A    
C14   C20   A    
C41   N1    S    
C20   H10   S    
C27   H13   S    
C42   N2    S    
C46   H22   S    
C5    C7    A    
C9    C31   A    
C15   C26   A    
C6    C8    A    
C3    C5    A    
C33   H6    S    
Cu1   Cu2   S    
C3    C9    A    
C46   H23   S    
C44   H17   S    
C45   C46   S    
Cu2   O7    S    
C16   C18   A    
C4    C17   A    
C43   H16   S    
C44   H18   S    
C45   H21   S    
Cu1   O8    S    
C40   Br4   S    
Cu2   O6    S    
C4    C6    A    
C32   N2    A    
C4    C10   A    
C21   H7    S    
C7    O13   S    
C16   C25   A    
C15   C17   A    
C34   H5    S    
C6    C30   A    
C25   H11   S    
C20   C22   A    
C43   H15   S    
C2    O4    A    
C26   H12   S    
C30   O10   S    
C28   H14   S    
Cu2   N3    S    
C12   C24   S    
C7    C25   A    
C13   C17   A    
C8    O14   S    
C33   C41   A    
C11   C35   A    
C37   C39   A    
C46   H24   S    
C38   C40   A    
Cu1   O4    S    
H1    N3    S    
C33   C35   A    
C34   C36   A    
C12   C38   A    
N3    N4    D    
C31   O12   S    
C24   O6    A    
O13   C43   S    
C10   C32   A    
C44   H19   S    
C45   H20   S    
Cu1   O5    S    
C13   C16   A    
C27   C28   D    
C1    C27   S    
C14   C15   A    
C2    C28   S    
C32   O11   S    
Cu1   N4    S    
C29   O9    S    
