data_mof_unit_63759.cif
_audit_creation_date              2012-12-10T18:13:28-0500
_audit_creation_method            fapswitch 2.2
_symmetry_space_group_name_H-M    P1
_symmetry_Int_Tables_number       1
_space_group_crystal_system       triclinic
_cell_length_a                    36.144264
_cell_length_b                    29.151645
_cell_length_c                    21.666853
_cell_angle_alpha                 90.456218
_cell_angle_beta                  126.234167
_cell_angle_gamma                 89.695983
_cell_volume                      18413.9480274

loop_
_atom_site_label
_atom_site_type_symbol
_atom_type_description
_atom_site_fract_x
_atom_site_fract_y
_atom_site_fract_z
_atom_type_partial_charge
C1    C     C_R   0.913235 0.000013 0.913249 0.909479
C2    C     C_1   0.229485 0.999973 0.230175 0.025222
C3    C     C_3   0.454849 0.478949 0.240861 -0.621295
C4    C     C_1   0.862564 0.000031 0.862341 -0.179495
C5    C     C_1   0.137436 0.999969 0.137659 -0.179502
C6    C     C_1   0.362564 0.500031 0.862341 -0.179492
C7    C     C_1   0.637436 0.499969 0.137659 -0.179505
C8    C     C_1   0.962904 0.918006 0.773213 0.311833
C9    C     C_1   0.037076 0.082003 0.226770 0.311865
C10   C     C_1   0.087261 0.995740 0.278317 0.180037
C11   C     C_1   0.912739 0.004281 0.721681 0.180043
C12   C     C_1   0.462909 0.418004 0.773217 0.311833
C13   C     C_1   0.270515 0.500027 0.769825 0.025225
C14   C     C_1   0.537043 0.582017 0.226742 0.311913
C15   C     C_1   0.587261 0.495775 0.278311 0.180025
C16   C     C_1   0.412738 0.504275 0.721682 0.180040
C17   C     C_1   0.087415 0.003915 0.897148 0.211997
C18   C     C_1   0.912585 0.996063 0.102853 0.211984
C19   C     C_1   0.952075 0.926741 0.147814 0.266436
C20   C     C_1   0.047941 0.073247 0.852202 0.266417
C21   C     C_1   0.587415 0.503921 0.897147 0.212000
C22   C     C_1   0.412584 0.496028 0.102857 0.211966
C23   C     C_1   0.452103 0.426722 0.147842 0.266475
C24   C     C_1   0.729485 0.499973 0.230175 0.025220
C25   C     C_1   0.547936 0.573250 0.852197 0.266421
C26   C     C_1   0.728293 0.000021 0.727445 0.020921
C27   C     C_1   0.271706 0.999979 0.272554 0.020920
C28   C     C_1   0.228293 0.500020 0.727445 0.020922
C29   C     C_1   0.771707 0.499979 0.272554 0.020919
C30   C     C_1   0.678452 0.000012 0.677527 0.015414
C31   C     C_1   0.321548 0.999988 0.322473 0.015413
C32   C     C_1   0.178452 0.500012 0.677527 0.015414
C33   C     C_R   0.086765 0.999987 0.086750 0.909491
C34   C     C_1   0.821548 0.499988 0.322473 0.015412
C35   C     C_1   0.636226 0.000005 0.635417 -0.187245
C36   C     C_1   0.363774 0.999995 0.364583 -0.187245
C37   C     C_1   0.136226 0.500005 0.635417 -0.187244
C38   C     C_1   0.863774 0.499995 0.364583 -0.187246
C39   C     C_R   0.000013 0.913249 0.500099 0.928506
C40   C     C_R   0.999987 0.086751 0.499901 0.928515
C41   C     C_R   0.500013 0.413249 0.500099 0.928482
C42   C     C_R   0.499987 0.586751 0.499901 0.928501
C43   C     C_R   0.999605 0.003416 0.621795 1.024815
C44   C     C_R   0.413235 0.500013 0.913249 0.909474
C45   C     C_R   0.000395 0.996582 0.378205 1.024793
C46   C     C_R   0.499605 0.503417 0.621795 1.024809
C47   C     C_R   0.500395 0.496580 0.378206 1.024765
C48   C     C_R   0.500000 0.085536 0.500215 0.872481
C49   C     C_R   0.500000 0.914464 0.499785 0.872481
C50   C     C_R   1.000000 0.585536 0.500215 0.872481
C51   C     C_R   0.000000 0.414464 0.499785 0.872481
C52   C     C_R   0.585530 0.999999 0.585242 0.872307
C53   C     C_R   0.414469 0.000001 0.414758 0.872307
C54   C     C_R   0.085530 0.499999 0.585242 0.872307
C55   C     C_R   0.586765 0.499987 0.086750 0.909507
C56   C     C_R   0.914469 0.500001 0.414758 0.872306
C57   C     C_1   0.000036 0.862573 0.500296 -0.166176
C58   C     C_1   0.999964 0.137427 0.499704 -0.166175
C59   C     C_1   0.500036 0.362573 0.500296 -0.166186
C60   C     C_1   0.499964 0.637427 0.499704 -0.166181
C61   C     C_R   0.000084 0.999700 0.877616 0.936910
C62   C     C_R   0.999915 0.000299 0.122382 0.936914
C63   C     C_R   0.500084 0.499700 0.877616 0.936914
C64   C     C_R   0.499911 0.500299 0.122379 0.936924
C65   C     C_1   0.000041 0.820353 0.500459 0.028855
C66   C     C_1   0.820349 0.000033 0.819905 0.029624
C67   C     C_1   0.999959 0.179647 0.499541 0.028859
C68   C     C_1   0.500041 0.320353 0.500459 0.028851
C69   C     C_1   0.499959 0.679647 0.499541 0.028861
C70   C     C_1   0.000037 0.770516 0.500621 0.027063
C71   C     C_1   0.999963 0.229484 0.499379 0.027065
C72   C     C_1   0.500037 0.270516 0.500621 0.027062
C73   C     C_1   0.499963 0.729484 0.499379 0.027066
C74   C     C_1   0.500030 0.228293 0.500714 0.022534
C75   C     C_1   0.499970 0.771706 0.499286 0.022536
C76   C     C_1   0.000030 0.728293 0.500714 0.022535
C77   C     C_1   0.179651 0.999967 0.180095 0.029621
C78   C     C_1   0.999970 0.271706 0.499286 0.022535
C79   C     C_1   0.500019 0.178453 0.500738 0.015994
C80   C     C_1   0.499981 0.821547 0.499262 0.015995
C81   C     C_1   0.000019 0.678453 0.500738 0.015994
C82   C     C_1   0.999981 0.321547 0.499262 0.015994
C83   C     C_1   0.500009 0.136228 0.500626 -0.186894
C84   C     C_1   0.499990 0.863772 0.499374 -0.186893
C85   C     C_1   0.000009 0.636228 0.500626 -0.186894
C86   C     C_1   0.999990 0.363772 0.499374 -0.186893
C87   C     C_3   0.998902 0.947745 0.780659 0.232955
C88   C     C_1   0.320349 0.500033 0.819905 0.029626
C89   C     C_3   0.001084 0.052255 0.219328 0.232936
C90   C     C_3   0.044515 0.972321 0.256695 0.183866
C91   C     C_3   0.955490 0.027689 0.743310 0.183870
C92   C     C_3   0.498906 0.447745 0.780663 0.232948
C93   C     C_3   0.501061 0.552255 0.219306 0.232899
C94   C     C_3   0.544524 0.472340 0.256702 0.183863
C95   C     C_3   0.455489 0.527686 0.743308 0.183867
C96   C     C_3   0.991313 0.950333 0.701419 0.712367
C97   C     C_3   0.008673 0.049669 0.298568 0.712373
C98   C     C_3   0.042469 0.967395 0.327320 0.704071
C99   C     C_1   0.679651 0.499967 0.180095 0.029619
C100  C     C_3   0.957538 0.032615 0.672687 0.704067
C101  C     C_3   0.491317 0.450332 0.701423 0.712371
C102  C     C_3   0.508648 0.549672 0.298545 0.712390
C103  C     C_3   0.542483 0.467414 0.327331 0.704071
C104  C     C_3   0.457536 0.532612 0.672685 0.704068
C105  C     C_3   0.044853 0.024419 0.830037 -0.005334
C106  C     C_3   0.955152 0.975569 0.169968 -0.005330
C107  C     C_3   0.544851 0.524423 0.830036 -0.005334
C108  C     C_3   0.455160 0.475550 0.169978 -0.005324
C109  C     C_3   0.999616 0.999520 0.809196 -0.270585
C110  C     C_1   0.770515 0.000027 0.769825 0.025224
C111  C     C_3   0.000382 0.000479 0.190803 -0.270588
C112  C     C_3   0.499617 0.499520 0.809196 -0.270579
C113  C     C_3   0.500380 0.500480 0.190801 -0.270587
C114  C     C_3   0.998383 0.001758 0.687834 -0.205737
C115  C     C_3   0.001617 0.998241 0.312166 -0.205733
C116  C     C_3   0.498383 0.501758 0.687834 -0.205735
C117  C     C_3   0.501616 0.498241 0.312165 -0.205714
C118  C     C_3   0.045164 0.021017 0.759154 -0.621248
C119  C     C_3   0.954841 0.978970 0.240851 -0.621259
C120  C     C_3   0.545162 0.521021 0.759152 -0.621253
H1    H     H_    0.074263 0.999450 0.771689 0.218173
H2    H     H_    0.955049 0.080836 0.118744 0.352657
H3    H     H_    0.073429 0.911996 0.271435 0.355214
H4    H     H_    0.926590 0.088021 0.728582 0.355214
H5    H     H_    0.544934 0.419152 0.881239 0.352664
H6    H     H_    0.455018 0.580815 0.118708 0.352646
H7    H     H_    0.573461 0.412026 0.271464 0.355218
H8    H     H_    0.426585 0.588016 0.728577 0.355214
H9    H     H_    0.945053 0.927198 0.597007 0.375440
H10   H     H_    0.054926 0.072812 0.402977 0.375431
H11   H     H_    0.107811 0.958103 0.408816 0.352974
H12   H     H_    0.925736 0.000530 0.228311 0.218174
H13   H     H_    0.892199 0.041924 0.591192 0.352975
H14   H     H_    0.445059 0.427195 0.597011 0.375437
H15   H     H_    0.554887 0.572832 0.402947 0.375413
H16   H     H_    0.607829 0.458153 0.408831 0.352979
H17   H     H_    0.392196 0.541916 0.591190 0.352975
H18   H     H_    0.053442 0.930384 0.735521 0.361156
H19   H     H_    0.946538 0.069602 0.264457 0.361162
H20   H     H_    0.010626 0.907106 0.291604 0.351501
H21   H     H_    0.989397 0.092896 0.708419 0.351504
H22   H     H_    0.553448 0.430387 0.735529 0.361159
H23   H     H_    0.947251 0.945158 0.254704 0.193897
H24   H     H_    0.446501 0.569578 0.264409 0.361180
H25   H     H_    0.510667 0.407110 0.291646 0.351496
H26   H     H_    0.489390 0.592895 0.708412 0.351503
H27   H     H_    0.052763 0.054827 0.745310 0.193908
H28   H     H_    0.574263 0.499456 0.771689 0.218173
H29   H     H_    0.425734 0.500493 0.228314 0.218175
H30   H     H_    0.447276 0.445133 0.254729 0.193880
H31   H     H_    0.552759 0.554832 0.745306 0.193905
H32   H     H_    0.044931 0.919150 0.881234 0.352665
N1    N     N_1   0.935267 0.894664 0.767716 -0.164421
N2    N     N_1   0.879279 0.011889 0.050306 -0.188858
N3    N     N_1   0.949397 0.888617 0.130217 -0.167496
N4    N     N_1   0.050628 0.111370 0.869808 -0.167492
N5    N     N_1   0.620717 0.488090 0.949692 -0.188856
N6    N     N_1   0.379272 0.511841 0.050305 -0.188859
N7    N     N_1   0.449439 0.388596 0.130259 -0.167502
N8    N     N_1   0.550621 0.611374 0.869801 -0.167492
N9    N     N_1   0.064708 0.105352 0.232263 -0.164418
N10   N     N_1   0.120706 0.013398 0.295247 -0.169576
N11   N     N_1   0.879289 0.986630 0.704745 -0.169577
N12   N     N_1   0.435273 0.394660 0.767721 -0.164420
N13   N     N_1   0.564667 0.605376 0.232231 -0.164413
N14   N     N_1   0.620698 0.513445 0.295232 -0.169578
N15   N     N_1   0.379290 0.486622 0.704747 -0.169577
N16   N     N_1   0.120716 0.988081 0.949692 -0.188856
O1    O     O_R   0.936850 0.964330 0.936870 -0.603406
O2    O     O_R   0.000010 0.035670 0.092610 -0.664439
O3    O     O_R   0.000010 0.964330 0.092610 -0.548900
O4    O     O_R   0.999990 0.035670 0.907390 -0.548893
O5    O     O_R   0.499990 0.464330 0.907390 -0.664439
O6    O     O_R   0.500010 0.535670 0.092610 -0.664439
O7    O     O_R   0.500010 0.464330 0.092610 -0.548914
O8    O     O_R   0.499990 0.535670 0.907390 -0.548896
O9    O     O_R   0.964320 0.936860 0.464320 -0.619094
O10   O     O_R   0.035680 0.063140 0.535680 -0.619092
O11   O     O_R   0.035680 0.936860 0.535680 -0.587342
O12   O     O_R   0.063150 0.035670 0.063130 -0.603402
O13   O     O_R   0.964320 0.063140 0.464320 -0.587333
O14   O     O_R   0.464320 0.436860 0.464320 -0.619098
O15   O     O_R   0.535680 0.563140 0.535680 -0.619094
O16   O     O_R   0.535680 0.436860 0.535680 -0.587341
O17   O     O_R   0.464320 0.563140 0.464320 -0.587316
O18   O     O_R   0.964330 1.000000 0.556950 -0.561984
O19   O     O_R   0.035670 1.000000 0.443050 -0.561976
O20   O     O_R   0.464330 0.500000 0.556950 -0.561981
O21   O     O_R   0.535670 0.500000 0.443050 -0.561963
O22   O     O_R   0.035630 0.000000 0.628230 -0.643074
O23   O     O_R   0.063150 0.964330 0.063130 -0.594224
O24   O     O_R   0.964370 0.000000 0.371770 -0.643066
O25   O     O_R   0.535630 0.500000 0.628230 -0.643070
O26   O     O_R   0.464370 0.500000 0.371770 -0.643049
O27   O     O_R   0.499940 0.063120 0.447680 -0.589395
O28   O     O_R   0.500060 0.936880 0.552320 -0.589394
O29   O     O_R   0.500060 0.063120 0.552320 -0.588261
O30   O     O_R   0.499940 0.936880 0.447680 -0.588261
O31   O     O_R   0.999940 0.563120 0.447680 -0.589395
O32   O     O_R   0.000060 0.436880 0.552320 -0.589394
O33   O     O_R   0.000060 0.563120 0.552320 -0.588261
O34   O     O_R   0.936850 0.035670 0.936870 -0.594233
O35   O     O_R   0.999940 0.436880 0.447680 -0.588262
O36   O     O_R   0.563110 0.000000 0.510830 -0.588960
O37   O     O_R   0.436890 0.000000 0.489170 -0.588960
O38   O     O_R   0.063110 0.500000 0.510830 -0.588960
O39   O     O_R   0.936890 0.500000 0.489170 -0.588960
O40   O     O_R   0.563120 0.000000 0.615390 -0.588795
O41   O     O_R   0.436880 0.000000 0.384610 -0.588796
O42   O     O_R   0.063120 0.500000 0.615390 -0.588795
O43   O     O_R   0.936880 0.500000 0.384610 -0.588796
O44   O     O_3   0.041245 0.925447 0.832956 -0.748305
O45   O     O_R   0.436850 0.464330 0.936870 -0.603410
O46   O     O_3   0.958736 0.074543 0.167024 -0.748305
O47   O     O_3   0.045478 0.928393 0.229637 -0.744076
O48   O     O_3   0.954538 0.071617 0.770376 -0.744072
O49   O     O_3   0.541250 0.425450 0.832962 -0.748308
O50   O     O_3   0.458706 0.574527 0.166990 -0.748314
O51   O     O_3   0.545503 0.428412 0.229661 -0.744087
O52   O     O_3   0.454533 0.571614 0.770372 -0.744074
O53   O     O_3   0.946090 0.936376 0.642230 -0.732940
O54   O     O_3   0.053892 0.063637 0.357756 -0.732939
O55   O     O_3   0.084414 0.982002 0.394938 -0.703500
O56   O     O_R   0.563150 0.535670 0.063130 -0.603399
O57   O     O_3   0.915590 0.018020 0.605064 -0.703501
O58   O     O_3   0.446096 0.436372 0.642234 -0.732939
O59   O     O_3   0.553859 0.563663 0.357730 -0.732934
O60   O     O_3   0.584421 0.482041 0.394941 -0.703502
O61   O     O_3   0.415589 0.518013 0.605064 -0.703500
O62   O     O_3   0.021404 0.919799 0.699582 -0.736565
O63   O     O_3   0.978573 0.080194 0.300396 -0.736550
O64   O     O_3   0.036036 0.921378 0.339947 -0.780345
O65   O     O_3   0.963984 0.078630 0.660072 -0.780351
O66   O     O_3   0.521411 0.419801 0.699589 -0.736561
O67   O     O_R   0.563150 0.464330 0.063130 -0.594219
O68   O     O_3   0.478531 0.580182 0.300354 -0.736530
O69   O     O_3   0.536072 0.421394 0.339982 -0.780338
O70   O     O_3   0.463978 0.578627 0.660066 -0.780348
O71   O     O_R   0.436850 0.535670 0.936870 -0.594238
O72   O     O_R   0.999990 0.964330 0.907390 -0.664440
Zn1   Zn    Zn3+2 0.000000 0.952370 0.000000 1.022014
Zn2   Zn    Zn3+2 0.500030 0.000000 0.569830 0.992062
Zn3   Zn    Zn3+2 0.999970 0.500000 0.430170 0.992062
Zn4   Zn    Zn3+2 0.000030 0.500000 0.569830 0.992062
Zn5   Zn    Zn3+2 0.000000 0.047630 0.000000 1.022018
Zn6   Zn    Zn3+2 0.500000 0.452370 0.000000 1.022008
Zn7   Zn    Zn3+2 0.500000 0.547630 0.000000 1.022020
Zn8   Zn    Zn3+2 0.952370 0.000000 0.452390 1.027868
Zn9   Zn    Zn3+2 0.047630 0.000000 0.547610 1.027866
Zn10  Zn    Zn3+2 0.452370 0.500000 0.452390 1.027879
Zn11  Zn    Zn3+2 0.547630 0.500000 0.547610 1.027873
Zn12  Zn    Zn3+2 0.499970 0.000000 0.430170 0.992062

loop_
_geom_bond_atom_site_label_1
_geom_bond_atom_site_label_2
_ccdc_geom_bond_type
O5    Zn6   S    
C4    C66   T    
C98   O55   S    
C47   O21   A    
H3    O47   S    
C106  C119  S    
C24   C99   S    
C19   N3    T    
C107  C112  S    
C47   O26   A    
O38   Zn3   S    
C7    C55   S    
C80   C84   T    
C61   C109  S    
C15   C94   S    
O18   Zn8   S    
C98   C115  S    
O13   Zn8   S    
H7    O51   S    
C63   O8    A    
O67   Zn6   S    
C104  O70   S    
C62   O3    A    
O10   Zn9   S    
O33   Zn4   S    
C7    C99   T    
C30   C35   T    
H14   O58   S    
C49   C84   S    
C118  H27   S    
O40   Zn2   S    
C40   O13   A    
C6    C88   T    
C17   C105  S    
C95   C112  S    
C43   C114  S    
H19   O63   S    
O11   Zn9   S    
C116  C120  S    
C15   N14   T    
O9    Zn8   S    
O35   Zn3   S    
C16   N15   T    
C65   C70   S    
C39   C57   S    
H8    O52   S    
C119  H23   S    
C97   O54   S    
O71   Zn7   S    
C87   O44   S    
C63   C112  S    
C45   C115  S    
C24   C29   T    
O72   Zn1   S    
C105  C109  S    
C36   C53   S    
C3    C117  S    
C50   C85   S    
O17   Zn10  S    
C104  C116  S    
O45   Zn6   S    
O7    Zn6   S    
C62   C111  S    
H26   O70   S    
C43   O22   A    
C54   O38   A    
H25   O69   S    
C53   O37   A    
O26   Zn10  S    
O2    Zn5   S    
C69   C73   S    
C2    C27   T    
H18   O62   S    
C96   O62   S    
C91   C100  S    
C97   C115  S    
C75   C80   S    
C26   C110  T    
C14   C93   S    
C18   N2    T    
C103  O69   S    
C106  C111  S    
O12   Zn5   S    
C89   O46   S    
O25   Zn11  S    
H16   O60   S    
C10   N10   T    
C6    C44   S    
O3    Zn1   S    
C33   O12   A    
C73   C75   T    
C96   C114  S    
C100  O65   S    
C103  C117  S    
C90   C111  S    
H21   O65   S    
C1    O34   A    
C51   C86   S    
C90   O47   S    
C39   O9    A    
C94   C113  S    
C51   O35   A    
O6    Zn7   S    
C63   O5    A    
O8    Zn7   S    
C49   O30   A    
C62   O2    A    
C45   O24   A    
O29   Zn2   S    
C3    H29   S    
C41   O16   A    
C40   C58   S    
H24   O68   S    
C27   C31   S    
C44   O45   A    
O23   Zn1   S    
O16   Zn11  S    
O43   Zn3   S    
C28   C32   S    
H10   O54   S    
C100  C114  S    
C41   C59   S    
C56   O43   A    
H17   O61   S    
C42   C60   S    
C45   O19   A    
C22   N6    T    
C43   O18   A    
C55   O56   A    
C103  O60   S    
C82   C86   T    
C29   C34   S    
O22   Zn9   S    
H2    O46   S    
C5    C33   S    
C101  O58   S    
C52   O36   A    
C118  H1    S    
C108  C113  S    
O19   Zn9   S    
O20   Zn10  S    
C18   C106  S    
C91   O48   S    
O30   Zn12  S    
C59   C68   T    
C12   N12   T    
C78   C82   S    
O56   Zn7   S    
H22   O66   S    
C68   C72   S    
C57   C65   T    
O27   Zn12  S    
C3    H30   S    
C25   N8    T    
C11   N11   T    
C95   O52   S    
C13   C28   T    
C61   O4    A    
C93   C113  S    
C32   C37   T    
C66   C110  S    
C64   O7    A    
C9    N9    T    
C8    N1    T    
C114  C118  S    
C102  C117  S    
H15   O59   S    
C92   C101  S    
C98   O64   S    
C37   C54   S    
C42   O17   A    
C72   C74   T    
C21   C107  S    
C94   C103  S    
H20   O64   S    
C115  C119  S    
C74   C79   S    
C48   O27   A    
C70   C76   T    
C3    C108  S    
C5    C77   T    
C40   O10   A    
C105  C118  S    
C9    C89   S    
O37   Zn2   S    
C44   O71   A    
C107  C120  S    
C101  O66   S    
C95   C104  S    
C25   C107  S    
C46   O25   A    
C20   C105  S    
H4    O48   S    
C50   O33   A    
C92   O49   S    
O34   Zn5   S    
O32   Zn4   S    
C120  H31   S    
C64   C113  S    
C20   N4    T    
C34   C38   T    
C61   O72   A    
C21   N5    T    
C12   C92   S    
C92   C112  S    
C89   C97   S    
O1    Zn1   S    
C17   N16   T    
C119  H12   S    
C76   C81   S    
C39   O11   A    
C50   O31   A    
C87   C96   S    
C120  H28   S    
C87   C109  S    
C49   O28   A    
C102  O59   S    
C42   O15   A    
C89   C111  S    
C54   O42   A    
O24   Zn8   S    
C48   C83   S    
C46   C116  S    
C48   O29   A    
C33   O23   A    
C8    C87   S    
C1    C4    S    
O14   Zn10  S    
O42   Zn4   S    
C2    C77   S    
O39   Zn4   S    
H13   O57   S    
C79   C83   T    
C16   C95   S    
C91   C109  S    
C104  O61   S    
C97   O63   S    
C56   O39   A    
O4    Zn5   S    
C22   C108  S    
C23   C108  S    
C13   C88   S    
C1    O1    A    
C94   O51   S    
O21   Zn11  S    
C67   C71   S    
C55   O67   A    
H32   O44   S    
C100  O57   S    
C41   O14   A    
O15   Zn11  S    
O31   Zn3   S    
C51   O32   A    
O41   Zn12  S    
C14   N13   T    
O36   Zn12  S    
C19   C106  S    
C11   C91   S    
C58   C67   T    
C47   C117  S    
C38   C56   S    
C60   C69   T    
C10   C90   S    
C93   C102  S    
C53   O41   A    
C96   O53   S    
O28   Zn2   S    
C35   C52   S    
C101  C116  S    
C31   C36   T    
C93   O50   S    
H11   O55   S    
H9    O53   S    
C102  O68   S    
C46   O20   A    
C64   O6    A    
C90   C98   S    
C71   C78   T    
C81   C85   T    
H6    O50   S    
H5    O49   S    
C23   N7    T    
C26   C30   S    
C52   O40   A    
