data_mof_unit_20912.cif
_audit_creation_date              2012-12-10T18:09:55-0500
_audit_creation_method            fapswitch 2.2
_symmetry_space_group_name_H-M    P1
_symmetry_Int_Tables_number       1
_space_group_crystal_system       triclinic
_cell_length_a                    10.658412
_cell_length_b                    12.634028
_cell_length_c                    13.150101
_cell_angle_alpha                 82.736633
_cell_angle_beta                  90.660802
_cell_angle_gamma                 102.467767
_cell_volume                      1714.9144393

loop_
_atom_site_label
_atom_site_type_symbol
_atom_type_description
_atom_site_fract_x
_atom_site_fract_y
_atom_site_fract_z
_atom_type_partial_charge
C1    C     C_R   0.479000 0.439245 0.690898 0.848853
C2    C     C_R   0.455168 0.445955 0.973038 0.083837
C3    C     C_R   0.429780 0.469382 0.868359 0.085204
C4    C     C_R   0.741816 0.500446 0.500925 0.886619
C5    C     C_R   0.459190 0.528918 0.036332 0.085686
C6    C     C_R   0.417094 0.625721 0.999552 0.169399
C7    C     C_R   0.371722 0.638915 0.900054 -0.256527
C8    C     C_R   0.377842 0.561652 0.835013 -0.202501
C9    C     C_R   0.508229 0.519359 0.134454 -0.272930
C10   C     C_R   0.460043 0.691296 0.164554 -0.199888
C11   C     C_R   0.459124 0.400431 0.799903 -0.117443
C12   C     C_3   0.121593 0.501349 0.497035 0.078319
C13   C     C_R   0.301922 0.079104 0.362821 0.362882
C14   C     C_R   0.654048 0.800621 0.628666 0.014945
C15   C     C_R   0.686757 0.905598 0.656339 -0.254185
C16   C     C_R   0.512742 0.560675 0.308856 0.881765
C17   C     C_R   0.628447 0.986598 0.607895 -0.201342
C18   C     C_R   0.536913 0.962580 0.530906 0.073526
C19   C     C_R   0.507825 0.854147 0.505397 0.240504
C20   C     C_R   0.471845 0.040620 0.479377 -0.046966
C21   C     C_R   0.374458 0.006039 0.408325 -0.029992
C22   C     C_R   0.353451 0.900231 0.381628 -0.277952
C23   C     C_3   0.064679 0.479530 0.389472 0.002064
C24   C     C_R   0.419566 0.826240 0.429176 -0.217469
C25   C     C_R   0.499365 0.151787 0.495088 -0.173532
C26   C     C_R   0.334826 0.187352 0.380006 0.511887
C27   C     C_R   0.258179 0.499950 0.499278 0.831678
C28   C     C_3   0.905794 0.407076 0.577116 -0.479454
C29   C     C_3   0.050505 0.410205 0.579644 -0.442589
C30   C     C_3   0.920463 0.487205 0.389132 0.049612
C31   C     C_3   0.957501 0.611173 0.530598 -0.403309
C32   C     C_3   0.878891 0.502090 0.499033 0.083192
C33   C     C_3   0.836365 0.547941 0.218882 -0.773695
C34   C     C_3   0.100150 0.613276 0.523416 -0.398160
C35   C     C_3   0.158451 0.503902 0.214167 -0.744110
C36   C     C_R   0.419738 0.707131 0.063543 -0.207432
C37   C     C_R   0.501247 0.595466 0.200319 -0.058743
C38   C     C_R   0.484203 0.298165 0.837521 -0.199702
C39   C     C_R   0.488195 0.267290 0.942299 -0.138333
C40   C     C_R   0.476774 0.340981 0.009872 -0.172222
H1    H     H_    0.853854 0.326916 0.555500 0.184553
H2    H     H_    0.870989 0.413663 0.655108 0.180117
H3    H     H_    0.340226 0.574482 0.758765 0.169024
H4    H     H_    0.287202 0.873411 0.322377 0.161260
H5    H     H_    0.572906 0.184749 0.546317 0.159686
H6    H     H_    0.698828 0.737351 0.666223 0.138068
H7    H     H_    0.655536 0.066238 0.633049 0.134483
H8    H     H_    0.756630 0.924023 0.715511 0.153050
H9    H     H_    0.398915 0.747062 0.404915 0.201815
H10   H     H_    0.087810 0.425783 0.657054 0.179838
H11   H     H_    0.066859 0.328934 0.566217 0.195021
H12   H     H_    0.145872 0.681029 0.464183 0.174420
H13   H     H_    0.863244 0.407378 0.370273 0.131687
H14   H     H_    0.068180 0.393431 0.380731 0.166857
H15   H     H_    0.936361 0.683192 0.481077 0.185463
H16   H     H_    0.931735 0.619080 0.610751 0.179248
H17   H     H_    0.144425 0.631361 0.598205 0.188504
H18   H     H_    0.956051 0.650797 0.311147 0.250706
H19   H     H_    0.794619 0.616320 0.182268 0.241285
H20   H     H_    0.758226 0.473544 0.231838 0.232752
H21   H     H_    0.909906 0.534588 0.166047 0.252599
H22   H     H_    0.213502 0.612629 0.322367 0.209630
H23   H     H_    0.453132 0.750839 0.215446 0.154572
H24   H     H_    0.176011 0.568233 0.147099 0.244401
H25   H     H_    0.073528 0.440180 0.198440 0.248655
H26   H     H_    0.243183 0.466379 0.224326 0.250307
H27   H     H_    0.304306 0.330393 0.336609 0.372233
H28   H     H_    0.149945 0.975107 0.329607 0.319850
H29   H     H_    0.334353 0.710170 0.871682 0.149482
H30   H     H_    0.386573 0.780867 0.036603 0.142662
H31   H     H_    0.549282 0.450777 0.162882 0.152711
H32   H     H_    0.504022 0.243143 0.785943 0.155821
H33   H     H_    0.482191 0.312732 0.090397 0.144067
H34   H     H_    0.505653 0.187710 0.971171 0.147172
N1    N     N_R   0.433240 0.222190 0.444680 -0.187576
N2    N     N_R   0.566070 0.776970 0.554790 -0.135462
N3    N     N_2   0.893454 0.575692 0.314956 -0.290226
N4    N     N_2   0.137597 0.552322 0.304854 -0.309908
O1    O     O_R   0.468120 0.366740 0.627160 -0.610539
O2    O     O_3   0.198506 0.048489 0.300623 -0.721794
O3    O     O_R   0.510770 0.544830 0.662520 -0.618938
O4    O     O_R   0.663880 0.410950 0.482330 -0.630155
O5    O     O_R   0.706530 0.589040 0.517700 -0.620796
O6    O     O_R   0.489230 0.455170 0.337480 -0.644138
O7    O     O_R   0.531880 0.633260 0.372840 -0.627952
O8    O     O_R   0.293470 0.410960 0.482300 -0.624388
O9    O     O_R   0.336120 0.589050 0.517670 -0.655026
O10   O     O_3   0.260706 0.254977 0.332614 -0.745713
Zn1   Zn    Zn3+2 0.471520 0.381090 0.476390 0.928301
Zn2   Zn    Zn3+2 0.528480 0.618910 0.523610 0.920813

loop_
_geom_bond_atom_site_label_1
_geom_bond_atom_site_label_2
_ccdc_geom_bond_type
H28   O2    S    
C12   C29   S    
C27   O8    A    
C10   H23   S    
C1    C11   S    
C8    H3    S    
C7    C8    A    
C14   H6    S    
C12   C23   S    
H27   O10   S    
O4    Zn1   S    
C10   C37   A    
C19   N2    A    
C5    C6    A    
C20   C25   A    
C35   H25   S    
C1    O3    A    
C28   H1    S    
C16   O6    A    
C40   H33   S    
C18   C19   A    
C39   H34   S    
H18   N3    S    
C30   N3    S    
C22   H4    S    
C34   H17   S    
C35   H24   S    
C31   H16   S    
C16   C37   S    
C13   O2    S    
C33   H19   S    
C21   C22   A    
C15   H8    S    
C36   H30   S    
C26   N1    A    
C29   H10   S    
C30   H13   S    
C38   H32   S    
C12   C27   S    
C23   C30   S    
C9    H31   S    
C28   C32   S    
C3    C8    A    
C39   C40   A    
C35   H26   S    
C25   N1    A    
C14   N2    A    
C11   C38   A    
C5    C9    A    
C31   C32   S    
C9    C37   A    
C17   C18   A    
C31   C34   S    
C13   C21   A    
C27   O9    A    
C4    C32   S    
O3    Zn2   S    
C26   O10   S    
C33   H20   S    
C16   O7    A    
C1    O1    A    
C22   C24   A    
C13   C26   A    
C2    C5    A    
O6    Zn1   S    
C12   C34   S    
C25   H5    S    
C23   H14   S    
C29   H11   S    
C24   H9    S    
C15   C17   A    
O5    Zn2   S    
C28   C29   S    
H22   N4    S    
C17   H7    S    
O8    Zn1   S    
C7    H29   S    
O7    Zn2   S    
C6    C7    A    
C35   N4    S    
C34   H12   S    
C2    C3    A    
C30   C32   S    
C33   N3    S    
C38   C39   A    
C4    O5    A    
C28   H2    S    
C6    C36   A    
C19   C24   A    
C18   C20   A    
C23   N4    S    
O1    Zn1   S    
C3    C11   A    
N1    Zn1   S    
C2    C40   A    
C4    O4    A    
C20   C21   A    
C33   H21   S    
O9    Zn2   S    
C14   C15   A    
C10   C36   A    
C31   H15   S    
N2    Zn2   S    
