data_mof_unit_9823.cif
_audit_creation_date              2012-12-10T16:57:47-0500
_audit_creation_method            fapswitch 2.2
_symmetry_space_group_name_H-M    P1
_symmetry_Int_Tables_number       1
_space_group_crystal_system       triclinic
_cell_length_a                    7.729779
_cell_length_b                    8.650603
_cell_length_c                    18.87898
_cell_angle_alpha                 90.698928
_cell_angle_beta                  86.706702
_cell_angle_gamma                 93.142563
_cell_volume                      1258.35362673

loop_
_atom_site_label
_atom_site_type_symbol
_atom_type_description
_atom_site_fract_x
_atom_site_fract_y
_atom_site_fract_z
_atom_type_partial_charge
C1    C     C_R   0.544855 0.794217 0.498422 0.924069
C2    C     C_R   0.455147 0.205775 0.501492 0.909027
C3    C     C_2   0.565570 0.955335 0.508071 -0.252969
C4    C     C_2   0.434532 0.044675 0.491694 -0.252128
C5    C     C_R   0.503455 0.496994 0.635431 0.865844
C6    C     C_R   0.495451 0.496864 0.364611 0.870622
C7    C     C_R   0.347953 0.466408 0.752451 -0.186659
C8    C     C_R   0.636846 0.450355 0.246637 -0.158679
C9    C     C_R   0.335017 0.412812 0.821525 -0.132028
C10   C     C_R   0.633463 0.397127 0.177191 -0.134544
C11   C     C_R   0.480751 0.359191 0.852224 0.058082
C12   C     C_R   0.474819 0.361052 0.147053 0.055520
C13   C     C_R   0.639743 0.359801 0.812732 -0.197728
C14   C     C_R   0.319512 0.379167 0.187420 -0.198325
C15   C     C_R   0.655644 0.416056 0.743637 -0.006635
C16   C     C_R   0.320870 0.434657 0.257104 0.001226
C17   C     C_R   0.506159 0.466389 0.711960 -0.124627
C18   C     C_R   0.482316 0.467451 0.288050 -0.129494
C19   C     C_R   0.470923 0.325234 0.071183 0.308387
C20   C     C_R   0.473266 0.323999 0.928032 0.307062
H1    H     H_    0.232285 0.506282 0.730472 0.197342
H2    H     H_    0.761666 0.476679 0.268189 0.198254
H3    H     H_    0.211115 0.416342 0.851190 0.163045
H4    H     H_    0.755614 0.387272 0.146817 0.162461
H5    H     H_    0.754297 0.322022 0.836643 0.169402
H6    H     H_    0.195971 0.354823 0.163993 0.163466
H7    H     H_    0.013391 0.379034 0.449359 0.220548
H8    H     H_    0.986757 0.621514 0.550365 0.233763
N1    N     N_R   0.621990 0.308204 0.961366 -0.166804
N2    N     N_R   0.320769 0.332209 0.037870 -0.167107
N3    N     N_R   0.620902 0.308915 0.031672 -0.167212
N4    N     N_R   0.321905 0.331736 0.967551 -0.167521
N5    N     N_2   0.950330 0.457950 0.481240 -0.168145
N6    N     N_2   0.049670 0.542050 0.518760 -0.155704
O1    O     O_R   0.389250 0.738570 0.504600 -0.603032
O2    O     O_R   0.610750 0.261430 0.495400 -0.605202
O3    O     O_R   0.678400 0.711620 0.492580 -0.623451
O4    O     O_R   0.321600 0.288380 0.507420 -0.628184
O5    O     O_R   0.355380 0.513500 0.607880 -0.611736
O6    O     O_R   0.644620 0.486500 0.392120 -0.616110
O7    O     O_R   0.644530 0.486550 0.595850 -0.597333
O8    O     O_R   0.355470 0.513450 0.404150 -0.595187
Zn1   Zn    Zn3+2 0.306930 0.517990 0.508030 0.998558
Zn2   Zn    Zn3+2 0.693070 0.482010 0.491970 0.997014
C21   C     C_2   0.831325 0.422173 0.708133 0.910496
O9    O     O_2   0.896011 0.544747 0.684920 -0.640500
O10   O     O_R   0.925526 0.288664 0.703976 -0.795742
H9    H     H_    0.042257 0.305809 0.677147 0.346291
C22   C     C_2   0.150932 0.458084 0.294384 0.886158
O11   O     O_2   0.042879 0.349764 0.300497 -0.653196
O12   O     O_R   0.112356 0.605123 0.320289 -0.774386
H10   H     H_    0.991678 0.607156 0.344179 0.343876
C23   C     C_1   0.716239 0.008997 0.546545 0.251947
N7    N     N_1   0.836024 0.051036 0.577026 -0.144575
C24   C     C_1   0.284296 0.991040 0.452938 0.254483
N8    N     N_1   0.164950 0.948976 0.422182 -0.142000

loop_
_geom_bond_atom_site_label_1
_geom_bond_atom_site_label_2
_ccdc_geom_bond_type
C8    H2    S    
C24   N8    T    
C15   C17   A    
C8    C18   A    
C9    C11   A    
C2    O4    A    
O6    Zn2   S    
C2    C4    S    
O10   H9    S    
C1    O3    A    
C19   N3    A    
O3    Zn2   S    
C13   C15   A    
N5    N6    D    
H8    N6    S    
O4    Zn1   S    
N1    N3    A    
C21   O9    D    
C14   H6    S    
N2    N4    A    
C3    C23   S    
C13   H5    S    
C10   C12   A    
C12   C19   S    
C16   C18   A    
C12   C14   A    
C1    C3    S    
C20   N1    A    
C5    O5    A    
C4    C24   S    
C6    O8    A    
C6    C18   S    
O7    Zn2   S    
C14   C16   A    
C11   C20   S    
O2    Zn2   S    
C5    C17   S    
O8    Zn1   S    
C15   C21   S    
N5    Zn2   S    
O12   H10   S    
C11   C13   A    
C6    O6    A    
O1    Zn1   S    
C16   C22   S    
C1    O1    A    
C8    C10   A    
C22   O11   D    
C20   N4    A    
C21   O10   S    
C2    O2    A    
C7    C9    A    
C5    O7    A    
C9    H3    S    
O5    Zn1   S    
C10   H4    S    
C7    H1    S    
C19   N2    A    
H7    N5    S    
N6    Zn1   S    
C3    C4    D    
C23   N7    T    
C22   O12   S    
C7    C17   A    
