data_mof_unit_56298.cif
_audit_creation_date              2012-12-10T18:22:16-0500
_audit_creation_method            fapswitch 2.2
_symmetry_space_group_name_H-M    P1
_symmetry_Int_Tables_number       1
_space_group_crystal_system       triclinic
_cell_length_a                    14.947301
_cell_length_b                    14.033093
_cell_length_c                    15.747467
_cell_angle_alpha                 90.046814
_cell_angle_beta                  89.754104
_cell_angle_gamma                 90.268033
_cell_volume                      3303.07169849

loop_
_atom_site_label
_atom_site_type_symbol
_atom_type_description
_atom_site_fract_x
_atom_site_fract_y
_atom_site_fract_z
_atom_type_partial_charge
C1    C     C_R   0.327026 0.499676 0.497999 0.946686
C2    C     C_3   0.572967 0.429223 0.948389 -0.611009
C3    C     C_3   0.585105 0.433519 0.047319 0.437504
C4    C     C_1   0.501288 0.500814 0.825779 0.249955
C5    C     C_1   0.505336 0.499156 0.174595 0.026912
C6    C     C_1   0.503192 0.499520 0.249769 -0.165035
C7    C     C_R   0.811433 0.455803 0.430904 0.567232
C8    C     C_R   0.767947 0.500582 0.497854 -0.347226
C9    C     C_R   0.813619 0.545889 0.562956 0.493405
C10   C     C_R   0.906811 0.544342 0.563810 -0.003562
C11   C     C_R   0.952645 0.499270 0.495257 -0.133472
C12   C     C_R   0.500628 0.499909 0.338322 0.902657
C13   C     C_R   0.904740 0.454873 0.428136 -0.129887
C14   C     C_R   0.955396 0.587381 0.630550 0.213412
C15   C     C_R   0.048187 0.588651 0.626915 -0.227161
C16   C     C_R   0.093538 0.544993 0.559863 0.008602
C17   C     C_R   0.046315 0.499129 0.493786 -0.071300
C18   C     C_R   0.092867 0.454076 0.426182 -0.063819
C19   C     C_R   0.044403 0.414780 0.357953 0.547473
C20   C     C_R   0.951160 0.412885 0.359447 0.122153
C21   C     C_R   0.185999 0.546209 0.558596 0.551765
C22   C     C_R   0.231637 0.498993 0.494274 -0.279063
C23   C     C_R   0.672897 0.500212 0.499543 1.057388
C24   C     C_R   0.186875 0.450808 0.428440 0.099549
C25   C     C_R   0.558938 0.796742 0.448128 0.725092
C26   C     C_R   0.559415 0.203589 0.448765 0.730233
C27   C     C_R   0.441821 0.798754 0.550357 -0.147089
C28   C     C_R   0.441024 0.200765 0.549581 -0.197140
C29   C     C_R   0.440885 0.898991 0.550111 0.034057
C30   C     C_R   0.440289 0.100456 0.549620 0.046999
C31   C     C_R   0.501127 0.949307 0.496981 0.007729
C32   C     C_R   0.500658 0.050599 0.496670 0.003144
C33   C     C_R   0.561507 0.898253 0.444877 -0.189546
C34   C     C_R   0.560442 0.102220 0.444270 -0.199375
C35   C     C_R   0.380941 0.949582 0.601870 -0.146550
C36   C     C_R   0.380627 0.049339 0.601607 -0.163906
C37   C     C_R   0.619708 0.051445 0.390241 0.195337
C38   C     C_R   0.620945 0.950244 0.391120 0.145035
C39   C     C_R   0.499982 0.500067 0.661780 0.914299
C40   C     C_3   0.519927 0.605346 0.049404 0.518425
C41   C     C_3   0.412239 0.458078 0.049943 0.508713
C42   C     C_3   0.408815 0.470339 0.951494 1.004490
C43   C     C_3   0.525928 0.602418 0.950172 1.045767
C44   C     C_1   0.500598 0.500366 0.750548 -0.079423
C45   C     C_3   0.505509 0.499436 0.082811 -0.256177
C46   C     C_3   0.502161 0.501037 0.917408 -0.301370
H1    H     H_    0.084739 0.622586 0.678098 0.209291
H2    H     H_    0.395995 0.759170 0.590605 0.199309
H3    H     H_    0.394811 0.239990 0.589399 0.176229
H4    H     H_    0.334304 0.911902 0.642791 0.160955
H5    H     H_    0.333819 0.086595 0.642375 0.152178
H6    H     H_    0.637372 0.442211 0.914472 0.218144
H7    H     H_    0.550801 0.356853 0.928213 0.262332
N1    N     N_R   0.500070 0.750030 0.500040 -0.153608
N2    N     N_R   0.500070 0.249970 0.500040 -0.159654
O1    O     O_R   0.367860 0.580280 0.500020 -0.598763
O2    O     O_R   0.367860 0.419720 0.500020 -0.646609
O3    O     O_R   0.500020 0.580310 0.377140 -0.590397
O4    O     O_R   0.500020 0.419690 0.377140 -0.581268
O5    O     O_R   0.632160 0.580270 0.499980 -0.545780
O6    O     O_R   0.632160 0.419730 0.499980 -0.560893
O7    O     O_R   0.500010 0.580240 0.622850 -0.582430
O8    O     O_R   0.500010 0.419760 0.622850 -0.632776
Zn1   Zn    Zn3+2 0.500020 0.607200 0.499990 1.061341
Zn2   Zn    Zn3+2 0.500020 0.392800 0.499990 1.016306
F1    F     F_    0.468566 0.668003 0.913410 -0.619748
F2    F     F_    0.346381 0.538656 0.928676 -0.625430
F3    F     F_    0.232395 0.590439 0.621778 -0.659261
N3    N     N_2   0.236150 0.401586 0.364085 -0.229422
H8    H     H_    0.295749 0.433130 0.346193 0.205264
C47   C     C_3   0.243343 0.299605 0.376602 -0.590447
H9    H     H_    0.283535 0.283551 0.433841 0.215840
H10   H     H_    0.276527 0.267061 0.320503 0.230878
H11   H     H_    0.176139 0.266538 0.384130 0.245770
F4    F     F_    0.086497 0.378751 0.288396 -0.674476
N4    N     N_2   0.904667 0.369515 0.290596 -0.234818
H12   H     H_    0.931053 0.385728 0.231684 0.253163
C48   C     C_3   0.889235 0.268329 0.301026 -0.614338
H13   H     H_    0.953900 0.229561 0.301793 0.223291
H14   H     H_    0.848504 0.241337 0.247286 0.217878
H15   H     H_    0.852204 0.253983 0.361047 0.269790
F5    F     F_    0.614189 0.743026 0.399709 -0.666942
F6    F     F_    0.618054 0.257111 0.403192 -0.609746
N5    N     N_2   0.680233 0.102031 0.336220 -0.245153
H16   H     H_    0.742530 0.071545 0.329699 0.232247
C49   C     C_3   0.642951 0.131700 0.255842 -0.652539
H17   H     H_    0.690627 0.180785 0.223843 0.232649
H18   H     H_    0.578725 0.169871 0.265272 0.259128
H19   H     H_    0.631371 0.069238 0.214092 0.210325
N6    N     N_2   0.683408 0.902772 0.337409 -0.305930
H20   H     H_    0.727102 0.856634 0.366479 0.275187
C50   C     C_3   0.651608 0.874100 0.254365 -0.654574
H21   H     H_    0.649530 0.795187 0.249476 0.290234
H22   H     H_    0.698310 0.901641 0.205144 0.230482
H23   H     H_    0.583565 0.902168 0.241310 0.217389
N7    N     N_2   0.448417 0.669555 0.077402 -0.296806
H24   H     H_    0.421080 0.653469 0.135748 0.206682
C51   C     C_3   0.467664 0.770999 0.073713 -0.514329
H25   H     H_    0.511809 0.791781 0.127259 0.218253
H26   H     H_    0.404198 0.811342 0.079264 0.209814
H27   H     H_    0.500955 0.791363 0.013294 0.287086
N8    N     N_2   0.334283 0.503302 0.089943 -0.316281
H28   H     H_    0.341193 0.518816 0.153478 0.200068
C52   C     C_3   0.248247 0.457489 0.076273 -0.476725
H29   H     H_    0.194121 0.505182 0.099023 0.207893
H30   H     H_    0.244261 0.389704 0.112570 0.256536
H31   H     H_    0.236598 0.442386 0.008075 0.278314
F7    F     F_    0.408129 0.361451 0.069099 -0.618712
F8    F     F_    0.600068 0.640863 0.081143 -0.619385
F9    F     F_    0.382781 0.384915 0.914156 -0.612839
F10   F     F_    0.612111 0.626075 0.924156 -0.606017
N9    N     N_2   0.674426 0.473492 0.066118 -0.235335
H32   H     H_    0.724427 0.449280 0.026305 0.226347
C53   C     C_3   0.705840 0.478678 0.153371 -0.564020
H33   H     H_    0.779436 0.490240 0.153822 0.214580
H34   H     H_    0.691513 0.412085 0.188829 0.235836
H35   H     H_    0.676006 0.540185 0.186954 0.285730
N10   N     N_2   0.579043 0.335966 0.081210 -0.222901
H36   H     H_    0.562168 0.330117 0.144523 0.264638
C54   C     C_3   0.647206 0.267646 0.056580 -0.783662
H37   H     H_    0.623303 0.194605 0.071760 0.254693
H38   H     H_    0.710044 0.281143 0.091966 0.224248
H39   H     H_    0.661901 0.270452 0.987579 0.245004
F11   F     F_    0.761279 0.416915 0.367714 -0.627265
F12   F     F_    0.765803 0.590676 0.624805 -0.634782
N11   N     N_2   0.912018 0.629047 0.702086 -0.233990
H40   H     H_    0.942726 0.690476 0.723520 0.226333
C55   C     C_3   0.894396 0.562684 0.770497 -0.617228
H41   H     H_    0.958333 0.536963 0.797826 0.207066
H42   H     H_    0.854766 0.500782 0.747343 0.250722
H43   H     H_    0.855376 0.598828 0.821195 0.257935

loop_
_geom_bond_atom_site_label_1
_geom_bond_atom_site_label_2
_ccdc_geom_bond_type
C27   H2    S    
O8    Zn2   S    
N11   H40   S    
C41   F7    S    
C27   C29   A    
C34   C37   A    
C41   C42   S    
C19   C20   A    
C15   H1    S    
C7    F11   S    
C55   H41   S    
N9    C53   S    
C53   H33   S    
N6    H20   S    
C27   N1    A    
C7    C8    A    
C4    C46   S    
C2    C46   S    
C16   C21   A    
C26   F6    S    
C18   C24   A    
C1    O1    A    
N4    C48   S    
N3    H8    S    
C6    C12   S    
C5    C6    T    
C49   H18   S    
C15   C16   A    
C8    C23   S    
C41   N8    S    
C20   N4    S    
C18   C19   A    
C42   C46   S    
N3    C47   S    
N10   H36   S    
N9    H32   S    
O7    Zn1   S    
C12   O4    A    
N5    H16   S    
C26   C34   A    
C40   C43   S    
C35   C36   A    
C8    C9    A    
N7    C51   S    
O1    Zn1   S    
C37   N5    S    
C9    C10   A    
C54   H39   S    
C12   O3    A    
C1    C22   S    
C21   C22   A    
C26   N2    A    
C40   C45   S    
C43   F10   S    
C40   N7    S    
C52   H30   S    
C52   H29   S    
N2    Zn2   S    
C28   N2    A    
C54   H38   S    
C24   N3    S    
O3    Zn1   S    
C23   O5    A    
C25   N1    A    
C10   C14   A    
O2    Zn2   S    
C47   H10   S    
C49   H17   S    
C16   C17   A    
C4    C44   T    
C5    C45   S    
C3    C45   S    
C50   H23   S    
C9    F12   S    
C49   H19   S    
C32   C34   A    
C37   C38   A    
C3    N10   S    
C1    O2    A    
C28   H3    S    
N6    C50   S    
C31   C32   A    
C23   O6    A    
C3    N9    S    
N7    H24   S    
C35   H4    S    
C31   C33   A    
C17   C18   A    
N4    H12   S    
N8    C52   S    
C40   F8    S    
C36   H5    S    
C2    H6    S    
C51   H26   S    
C21   F3    S    
C25   F5    S    
C22   C24   A    
C55   H43   S    
C54   H37   S    
C39   O7    A    
C38   N6    S    
C11   C17   A    
N11   C55   S    
C13   C20   A    
C48   H13   S    
N5    C49   S    
C2    H7    S    
C55   H42   S    
C47   H11   S    
C53   H34   S    
C39   C44   S    
C51   H27   S    
C39   O8    A    
C29   C35   A    
C33   C38   A    
C14   N11   S    
C30   C36   A    
O5    Zn1   S    
C28   C30   A    
C2    C3    S    
C42   F9    S    
C47   H9    S    
C29   C31   A    
O4    Zn2   S    
C30   C32   A    
C11   C13   A    
C48   H15   S    
C50   H22   S    
C42   F2    S    
N1    Zn1   S    
C43   F1    S    
C19   F4    S    
C50   H21   S    
C48   H14   S    
N8    H28   S    
C43   C46   S    
N10   C54   S    
C53   H35   S    
C10   C11   A    
O6    Zn2   S    
C7    C13   A    
C51   H25   S    
C41   C45   S    
C14   C15   A    
C52   H31   S    
C25   C33   A    
