data_mof_unit_29578.cif
_audit_creation_date              2012-12-11T16:17:43-0500
_audit_creation_method            fapswitch 2.2
_symmetry_space_group_name_H-M    P1
_symmetry_Int_Tables_number       1
_space_group_crystal_system       triclinic
_cell_length_a                    8.342522
_cell_length_b                    15.033977
_cell_length_c                    17.299414
_cell_angle_alpha                 95.917118
_cell_angle_beta                  95.780794
_cell_angle_gamma                 97.666802
_cell_volume                      2124.39127867

loop_
_atom_site_label
_atom_site_type_symbol
_atom_type_description
_atom_site_fract_x
_atom_site_fract_y
_atom_site_fract_z
_atom_type_partial_charge
Ba1   Ba    Ba6+2 0.159600 0.544390 0.464800 1.657336
Ba2   Ba    Ba6+2 0.650570 0.455600 0.535140 1.655238
C1    C     C_3   0.554636 0.820792 0.202174 0.358253
C2    C     C_R   0.098680 0.077419 0.545046 0.005029
C3    C     C_R   0.957573 0.891256 0.532912 -0.031475
C4    C     C_3   0.042421 0.779997 0.264554 0.382628
C5    C     C_R   0.112861 0.922716 0.573483 -0.044763
C6    C     C_R   0.182236 0.013167 0.578715 -0.030735
C7    C     C_R   0.890555 0.797830 0.523853 0.051122
C8    C     C_R   0.732434 0.771839 0.486949 -0.248912
C9    C     C_R   0.919095 0.205497 0.480817 0.040522
C10   C     C_R   0.854027 0.112203 0.470904 -0.061461
C11   C     C_R   0.940083 0.048287 0.505297 0.009529
C12   C     C_3   0.492917 0.761065 0.263339 0.244070
C13   C     C_R   0.702625 0.081821 0.428815 -0.061716
C14   C     C_R   0.622978 0.994719 0.429023 -0.042305
C15   C     C_R   0.704099 0.927679 0.463242 -0.000971
C16   C     C_3   0.104190 0.831098 0.198988 -0.393021
C17   C     C_R   0.867162 0.955461 0.500199 0.037156
C18   C     C_R   0.636559 0.834096 0.459150 0.037122
C19   C     C_R   0.072400 0.232977 0.522950 -0.296215
C20   C     C_R   0.603881 0.524075 0.279513 -0.333113
C21   C     C_R   0.447972 0.479633 0.253332 0.024800
C22   C     C_R   0.392391 0.465623 0.173179 -0.097859
C23   C     C_3   0.568669 0.732808 0.651887 0.306192
C24   C     C_R   0.493290 0.498810 0.119297 0.008388
C25   C     C_R   0.652458 0.541101 0.145962 -0.071541
C26   C     C_R   0.708058 0.551105 0.226199 0.043766
C27   C     C_R   0.410804 0.519461 0.836233 -0.132223
C28   C     C_3   0.758689 0.342094 0.294250 0.265378
C29   C     C_R   0.355145 0.514214 0.756861 0.033286
C30   C     C_R   0.090766 0.438248 0.780215 -0.034750
C31   C     C_R   0.144456 0.445170 0.861534 -0.044352
C32   C     C_R   0.308356 0.484164 0.888729 0.042007
C33   C     C_1   0.374902 0.489929 0.970073 0.131649
C34   C     C_3   0.596985 0.834751 0.674284 -0.389637
C35   C     C_1   0.430225 0.493697 0.037867 0.105206
C36   C     C_R   0.197481 0.472065 0.729213 -0.259035
C37   C     C_3   0.765773 0.320829 0.206390 -0.250731
C38   C     C_3   0.062542 0.656357 0.703911 0.309522
C39   C     C_3   0.089505 0.682038 0.792199 -0.388996
C40   C     C_3   0.235277 0.269349 0.363671 0.352862
C41   C     C_3   0.157844 0.171965 0.333236 -0.242442
C42   C     C_2   0.378639 0.679375 0.224733 0.465976
C43   C     C_2   0.621642 0.254524 0.169104 0.626387
C44   C     C_2   0.264448 0.119092 0.286984 0.562532
C45   C     C_3   0.916219 0.209940 0.715288 0.292501
C46   C     C_3   0.660529 0.810217 0.082003 0.291310
C47   C     C_3   0.535853 0.756334 0.017216 -0.185930
C48   C     C_3   0.560635 0.786996 0.937321 -0.507710
C49   C     C_2   0.301616 0.274633 0.759248 0.493181
C50   C     C_2   0.605752 0.266997 0.885575 0.521123
C51   C     C_2   0.452846 0.983849 0.394493 0.554415
C52   C     C_2   0.029776 0.411544 0.916138 0.530743
C53   C     C_2   0.998027 0.847419 0.325665 0.450109
C54   C     C_3   0.799417 0.131840 0.669299 -0.343455
C55   C     C_3   0.458334 0.240229 0.746528 0.272606
C56   C     C_3   0.523323 0.197949 0.819659 -0.168172
C57   C     C_R   0.166438 0.170379 0.551411 0.001498
H1    H     H_    0.767046 0.383257 0.177683 -0.006825
H2    H     H_    0.448057 0.842049 0.168528 0.001539
H3    H     H_    0.043085 0.173799 0.295229 0.076618
H4    H     H_    0.127182 0.134609 0.382849 0.022465
H5    H     H_    0.599752 0.737854 0.294857 0.025499
H6    H     H_    0.686165 0.710478 0.639946 0.018717
H7    H     H_    0.479650 0.717095 0.598336 0.055911
H8    H     H_    0.686426 0.852660 0.727499 0.127370
H9    H     H_    0.645123 0.869437 0.626126 0.050310
H10   H     H_    0.480554 0.858766 0.686114 0.120932
H11   H     H_    0.632469 0.882774 0.232528 0.069949
H12   H     H_    0.880907 0.293794 0.196719 0.134345
H13   H     H_    0.007938 0.867173 0.173014 0.118460
H14   H     H_    0.992247 0.240852 0.673499 -0.019220
H15   H     H_    0.993519 0.179757 0.758146 0.090681
H16   H     H_    0.733895 0.155684 0.618597 0.168459
H17   H     H_    0.869291 0.078378 0.648703 0.040570
H18   H     H_    0.712116 0.099667 0.705315 0.136738
H19   H     H_    0.546597 0.297886 0.736092 0.092239
H20   H     H_    0.423951 0.153428 0.841019 0.107115
H21   H     H_    0.138482 0.745937 0.291738 0.042932
H22   H     H_    0.613002 0.153408 0.804791 0.058463
H23   H     H_    0.175980 0.637734 0.683404 0.014021
H24   H     H_    0.184025 0.878120 0.602100 0.098142
H25   H     H_    0.303144 0.031377 0.609296 0.118634
H26   H     H_    0.638757 0.127122 0.397270 0.146008
H27   H     H_    0.681029 0.701134 0.481186 0.050549
H28   H     H_    0.123481 0.303746 0.529718 0.070462
H29   H     H_    0.533202 0.552538 0.857344 0.070548
H30   H     H_    0.731578 0.567264 0.105029 0.088757
H31   H     H_    0.270745 0.430709 0.153261 0.120617
H32   H     H_    0.646821 0.534608 0.341396 0.077769
H33   H     H_    0.155805 0.467391 0.667415 0.058814
H34   H     H_    0.962468 0.598566 0.689855 0.058826
H35   H     H_    0.211913 0.881958 0.221599 0.075209
H36   H     H_    0.136916 0.783314 0.151986 0.159684
H37   H     H_    0.636529 0.357332 0.305501 -0.005428
H38   H     H_    0.851912 0.401578 0.316007 0.053057
H39   H     H_    0.328699 0.631312 0.261158 0.045943
H40   H     H_    0.499829 0.272283 0.169721 0.008916
H41   H     H_    0.213278 0.053111 0.256632 -0.037735
H42   H     H_    0.784571 0.804505 0.065825 0.075316
H43   H     H_    0.648463 0.883591 0.086651 0.021521
H44   H     H_    0.548114 0.683456 0.014966 0.132570
H45   H     H_    0.190603 0.739138 0.807526 0.128239
H46   H     H_    0.410745 0.764796 0.030344 0.143899
H47   H     H_    0.545805 0.859336 0.937417 0.147695
H48   H     H_    0.468955 0.746056 0.891971 0.153181
H49   H     H_    0.683977 0.777458 0.922155 0.139800
H50   H     H_    0.242538 0.305731 0.713137 -0.133274
H51   H     H_    0.732708 0.266684 0.906330 0.032763
H52   H     H_    0.423836 0.972082 0.331540 0.004447
H53   H     H_    0.899920 0.408078 0.901169 -0.000170
H54   H     H_    0.092092 0.895239 0.361109 0.051445
H55   H     H_    0.120805 0.624316 0.822451 0.045252
H56   H     H_    0.976864 0.702661 0.813180 0.120758
H57   H     H_    0.141828 0.305076 0.389291 -0.028950
H58   H     H_    0.338311 0.268676 0.409321 0.071131
O1    O     O_2   0.167800 0.722260 0.545390 -0.469054
O2    O     O_2   0.753548 0.432805 0.769087 -0.507726
O3    O     O_3   0.832113 0.270822 0.757084 -0.621386
O4    O     O_3   0.895640 0.608830 0.542800 -0.491608
O5    O     O_3   0.421020 0.453750 0.407550 -0.484312
O6    O     O_2   0.649650 0.543880 0.686730 -0.456258
O7    O     O_3   0.508561 0.691484 0.714240 -0.645703
O8    O     O_2   0.488918 0.173019 0.534779 -0.460639
O9    O     O_3   0.437175 0.173661 0.681090 -0.656968
O10   O     O_3   0.383370 0.666730 0.405950 -0.500724
O11   O     O_2   0.295481 0.823043 0.449903 -0.468977
O12   O     O_3   0.290601 0.311245 0.300971 -0.619833
O13   O     O_3   0.022397 0.731523 0.669651 -0.645298
O14   O     O_3   0.407372 0.811773 0.313794 -0.711487
O15   O     O_2   0.160640 0.456070 0.313250 -0.478689
O16   O     O_3   0.956200 0.620970 0.366040 -0.491403
O17   O     O_2   0.043079 0.569850 0.222750 -0.492479
O18   O     O_2   0.337761 0.666926 0.154206 -0.605028
O19   O     O_2   0.640187 0.180723 0.137631 -0.554272
O20   O     O_2   0.407008 0.148080 0.283352 -0.577933
O21   O     O_3   0.646757 0.772266 0.152963 -0.622323
O22   O     O_2   0.241352 0.269393 0.820387 -0.582374
O23   O     O_3   0.905190 0.718283 0.232389 -0.563481
O24   O     O_2   0.531294 0.321962 0.917530 -0.558801
O25   O     O_2   0.346934 0.999706 0.435326 -0.594669
O26   O     O_2   0.077987 0.386467 0.978099 -0.565721
O27   O     O_2   0.856278 0.851265 0.334351 -0.632977
O28   O     O_2   0.642490 0.277680 0.454580 -0.455417
O29   O     O_3   0.914650 0.391160 0.457140 -0.497806
O30   O     O_3   0.426920 0.333260 0.593990 -0.487801
O31   O     O_3   0.789548 0.266362 0.330396 -0.622005
O32   O     O_3   0.389280 0.546240 0.592390 -0.477203
O33   O     O_3   0.854100 0.379030 0.633890 -0.466989
P1    P     P_3+3 0.994840 0.708040 0.567640 0.974567
P2    P     P_3+3 0.329360 0.428650 0.323990 0.989410
P3    P     P_3+3 0.908806 0.611113 0.263663 0.970602
P4    P     P_3+3 0.815450 0.291950 0.432300 0.994701
P5    P     P_3+3 0.885496 0.381985 0.735699 0.939568
P6    P     P_3+3 0.432250 0.783559 0.409884 0.905122
P7    P     P_3+3 0.476287 0.574047 0.689739 0.947809
P8    P     P_3+3 0.380291 0.214758 0.591469 0.931956

loop_
_geom_bond_atom_site_label_1
_geom_bond_atom_site_label_2
_ccdc_geom_bond_type
Ba2   O33   S    
C5    H24   S    
C21   P2    S    
C19   H28   S    
C54   H17   S    
C4    C53   S    
C2    C6    A    
Ba1   O15   S    
C34   H8    S    
C41   H4    S    
C5    C6    A    
Ba2   O6    S    
Ba2   O28   S    
C28   H38   S    
C24   C25   A    
O16   P3    S    
O14   P6    S    
C33   C35   T    
C22   C24   A    
C51   O25   D    
C39   H55   S    
C32   C33   S    
C57   P8    S    
O17   P3    D    
C46   H42   S    
C1    H2    S    
C13   C14   A    
C36   H33   S    
C15   C18   A    
Ba1   P2    S    
Ba1   Ba2   S    
C2    C11   A    
C14   C51   S    
C27   H29   S    
C28   H37   S    
C9    P4    S    
Ba1   O5    S    
C42   H39   S    
C7    P1    S    
C8    C18   A    
C14   C15   A    
C20   H32   S    
Ba1   O32   S    
C49   C55   S    
C30   C36   A    
C16   H35   S    
C7    C8    A    
C38   H34   S    
O23   P3    S    
C37   C43   S    
C51   H52   S    
Ba2   O32   S    
Ba2   O5    S    
C52   O26   D    
C46   H43   S    
C49   H50   S    
C54   H16   S    
C20   C26   A    
C48   H49   S    
C16   H36   S    
Ba1   O29   S    
O31   P4    S    
C39   H56   S    
Ba1   O16   S    
C23   O7    S    
C12   O14   S    
O9    P8    S    
C16   H13   S    
C4    C16   S    
C11   C17   A    
C38   H23   S    
C1    H11   S    
C23   H6    S    
C45   H14   S    
O12   P2    S    
C43   H40   S    
C56   H22   S    
C55   O9    S    
C3    C5    A    
O8    P8    D    
C47   H46   S    
C53   H54   S    
Ba2   O30   S    
C27   C32   A    
C9    C19   A    
O3    P5    S    
C54   H18   S    
O4    P1    S    
O5    P2    S    
C38   O13   S    
C3    C7    A    
C30   P5    S    
C4    H21   S    
O29   P4    S    
C10   C13   A    
C50   H51   S    
C21   C22   A    
C12   H5    S    
O7    P7    S    
C31   C32   A    
C52   H53   S    
C40   H58   S    
C1    O21   S    
C29   P7    S    
C1    C12   S    
C50   C56   S    
C56   H20   S    
C44   O20   D    
O28   P4    D    
C40   H57   S    
C38   C39   S    
C25   H30   S    
O33   P5    S    
C26   P3    S    
O15   P2    D    
C40   C41   S    
O13   P1    S    
C34   H10   S    
C12   C42   S    
Ba2   O4    S    
C31   C52   S    
C44   H41   S    
C8    H27   S    
C43   O19   D    
O2    P5    D    
C53   O27   D    
C18   P6    S    
C6    H25   S    
C55   H19   S    
C23   H7    S    
Ba1   O10   S    
C45   H15   S    
C22   H31   S    
O10   P6    S    
C47   H44   S    
C9    C10   A    
C34   H9    S    
C24   C35   S    
C28   O31   S    
C3    C17   A    
C46   O21   S    
Ba2   O29   S    
O6    P7    D    
C50   O24   D    
C39   H45   S    
C13   H26   S    
C30   C31   A    
C29   C36   A    
C27   C29   A    
C55   C56   S    
C48   H48   S    
C42   O18   D    
C46   C47   S    
C37   H1    S    
C2    C57   A    
C15   C17   A    
C28   C37   S    
Ba1   P1    S    
C40   O12   S    
Ba1   O1    S    
C4    O23   S    
O1    P1    D    
C41   C44   S    
Ba1   O4    S    
O11   P6    D    
C23   C34   S    
C19   C57   A    
C10   C11   A    
Ba2   P4    S    
C47   C48   S    
C25   C26   A    
C48   H47   S    
C45   O3    S    
C20   C21   A    
O30   P8    S    
O32   P7    S    
C41   H3    S    
C45   C54   S    
C37   H12   S    
C49   O22   D    
