data_mof_unit_54696.cif
_audit_creation_date              2012-12-11T15:31:53-0500
_audit_creation_method            fapswitch 2.2
_symmetry_space_group_name_H-M    P1
_symmetry_Int_Tables_number       1
_space_group_crystal_system       triclinic
_cell_length_a                    13.581048
_cell_length_b                    13.584793
_cell_length_c                    27.674985
_cell_angle_alpha                 90.357859
_cell_angle_beta                  90.107382
_cell_angle_gamma                 119.98011
_cell_volume                      4422.57952439

loop_
_atom_site_label
_atom_site_type_symbol
_atom_type_description
_atom_site_fract_x
_atom_site_fract_y
_atom_site_fract_z
_atom_type_partial_charge
C1    C     C_R   0.619491 0.898439 0.431261 0.546482
C2    C     C_R   0.653602 0.239988 0.209387 -0.109346
C3    C     C_R   0.644082 0.222705 0.259326 -0.102614
C4    C     C_R   0.669761 0.313518 0.291058 0.037859
C5    C     C_R   0.688774 0.348236 0.190997 0.032535
C6    C     C_1   0.694762 0.367028 0.139718 -0.069046
C7    C     C_1   0.652383 0.292406 0.342094 -0.057577
C8    C     C_1   0.701823 0.391666 0.097617 -0.018264
C9    C     C_1   0.230739 0.861594 0.383066 -0.013081
C10   C     C_R   0.172723 0.924235 0.264633 -0.114748
C11   C     C_R   0.157404 0.915512 0.214479 -0.121607
C12   C     C_R   0.599820 0.218602 0.431321 0.545605
C13   C     C_R   0.150626 0.732829 0.215011 0.013933
C14   C     C_R   0.165924 0.742702 0.265412 -0.099599
C15   C     C_R   0.176635 0.837708 0.290202 0.019345
C16   C     C_R   0.146802 0.820686 0.189361 0.039611
C17   C     C_1   0.124017 0.810509 0.138015 -0.067568
C18   C     C_1   0.201515 0.850074 0.341248 -0.059879
C19   C     C_1   0.096481 0.793616 0.095982 -0.021652
C20   C     C_1   0.634583 0.866073 0.383615 -0.013044
C21   C     C_R   0.595844 0.869600 0.258248 -0.107754
C22   C     C_R   0.603600 0.857910 0.208352 -0.110623
C23   C     C_R   0.279417 0.878787 0.430586 0.546544
C24   C     C_R   0.712809 0.763989 0.222786 -0.103914
C25   C     C_R   0.705086 0.775704 0.272678 -0.106498
C26   C     C_R   0.647028 0.829061 0.290523 0.037985
C27   C     C_R   0.662546 0.805473 0.190503 0.037854
C28   C     C_1   0.675486 0.796624 0.139286 -0.059957
C29   C     C_1   0.641996 0.846098 0.341678 -0.058168
C30   C     C_1   0.692838 0.786897 0.097283 -0.014941
C31   C     C_R   0.638679 0.274988 0.616138 0.024307
C32   C     C_R   0.717449 0.256548 0.641686 -0.125594
C33   C     C_R   0.728832 0.273159 0.691096 -0.124006
C34   C     C_R   0.618889 0.902072 0.569655 0.536831
C35   C     C_R   0.665016 0.312665 0.715429 0.037362
C36   C     C_R   0.595306 0.342541 0.689254 -0.124381
C37   C     C_R   0.580976 0.322451 0.639772 -0.132498
C38   C     C_R   0.573068 0.295213 0.794880 -0.126204
C39   C     C_R   0.582355 0.319798 0.843998 -0.134596
C40   C     C_R   0.784097 0.383365 0.840735 -0.126208
C41   C     C_R   0.775349 0.361584 0.791635 -0.123407
C42   C     C_R   0.670798 0.321910 0.768063 0.037802
C43   C     C_R   0.689167 0.369380 0.866557 0.024989
C44   C     C_R   0.227187 0.864941 0.615718 0.018518
C45   C     C_R   0.601422 0.222277 0.568688 0.540025
C46   C     C_R   0.247473 0.960480 0.643290 -0.128683
C47   C     C_R   0.224054 0.949910 0.692338 -0.124880
C48   C     C_R   0.177997 0.843371 0.714306 0.033383
C49   C     C_R   0.149874 0.746559 0.686041 -0.125008
C50   C     C_R   0.174956 0.757363 0.637041 -0.134982
C51   C     C_R   0.181651 0.758378 0.793247 -0.121625
C52   C     C_R   0.151814 0.738965 0.841712 -0.128421
C53   C     C_R   0.088449 0.877192 0.838539 -0.127859
C54   C     C_R   0.116623 0.895248 0.790026 -0.124006
C55   C     C_R   0.159845 0.833200 0.766655 0.036196
C56   C     C_R   0.280242 0.881751 0.568373 0.535565
C57   C     C_R   0.101156 0.795261 0.864145 0.023182
C58   C     C_R   0.626277 0.872042 0.619375 0.028459
C59   C     C_R   0.529477 0.835672 0.648419 -0.121265
C60   C     C_R   0.533946 0.816603 0.697174 -0.130671
C61   C     C_R   0.633968 0.829569 0.717263 0.021573
C62   C     C_R   0.731303 0.866083 0.688562 -0.123390
C63   C     C_R   0.727899 0.888718 0.639654 -0.136361
C64   C     C_R   0.714944 0.905378 0.796878 -0.133598
C65   C     C_R   0.733283 0.892122 0.844968 -0.135169
C66   C     C_R   0.594164 0.691203 0.839072 -0.110157
C67   C     C_1   0.632063 0.265518 0.383886 -0.012675
C68   C     C_R   0.573847 0.702841 0.790168 0.008316
C69   C     C_R   0.639072 0.811501 0.768977 0.030350
C70   C     C_R   0.676574 0.784288 0.865815 0.006355
C71   C     C_R   0.049101 0.760992 0.048279 0.545258
C72   C     C_R   0.714319 0.435919 0.049763 0.545163
C73   C     C_R   0.723514 0.770722 0.049537 0.545014
C74   C     C_R   0.044422 0.756207 0.910645 0.542833
C75   C     C_R   0.707782 0.428047 0.912723 0.542600
C76   C     C_R   0.717222 0.765461 0.911937 0.541411
C77   C     C_R   0.706665 0.422147 0.272679 -0.109933
C78   C     C_R   0.716240 0.439416 0.222748 -0.112997
Cr1   Cr    Cr6+3 0.417720 0.831920 0.499820 1.022744
Cr2   Cr    Cr6+3 0.668190 0.085770 0.500360 1.022383
Cr3   Cr    Cr6+3 0.414060 0.082260 0.499840 1.021826
Cr4   Cr    Cr6+3 0.908000 0.821090 0.979770 1.019991
Cr5   Cr    Cr6+3 0.912420 0.571130 0.979880 1.013427
Cr6   Cr    Cr6+3 0.657970 0.566940 0.980940 1.019701
H1    H     H_    0.726383 0.492854 0.296791 0.108369
H2    H     H_    0.564804 0.890672 0.183809 0.106644
H3    H     H_    0.759100 0.723754 0.209344 0.104330
H4    H     H_    0.745241 0.744349 0.297203 0.107488
H5    H     H_    0.763291 0.219822 0.624412 0.138515
H6    H     H_    0.490673 0.260364 0.777503 0.105269
H7    H     H_    0.507803 0.306974 0.863493 0.124166
H8    H     H_    0.783109 0.249374 0.710425 0.101666
H9    H     H_    0.852002 0.382826 0.771794 0.099807
H10   H     H_    0.867592 0.421020 0.857324 0.132986
H11   H     H_    0.549450 0.378031 0.707309 0.104531
H12   H     H_    0.743872 0.523599 0.208841 0.103589
H13   H     H_    0.520720 0.338292 0.620598 0.123061
H14   H     H_    0.288940 0.044780 0.627849 0.135171
H15   H     H_    0.218407 0.712300 0.776188 0.098004
H16   H     H_    0.163376 0.676198 0.860915 0.124253
H17   H     H_    0.246911 0.025878 0.713407 0.100921
H18   H     H_    0.098761 0.953193 0.770282 0.099583
H19   H     H_    0.049268 0.921707 0.854922 0.131780
H20   H     H_    0.110982 0.662942 0.702043 0.104525
H21   H     H_    0.158299 0.682563 0.616374 0.127181
H22   H     H_    0.451214 0.826529 0.633811 0.140588
H23   H     H_    0.632263 0.168967 0.185222 0.107352
H24   H     H_    0.763131 0.988708 0.780779 0.111901
H25   H     H_    0.796566 0.965278 0.865071 0.130213
H26   H     H_    0.460122 0.793990 0.719356 0.108124
H27   H     H_    0.551411 0.608914 0.856022 0.128573
H28   H     H_    0.809808 0.878262 0.704251 0.113556
H29   H     H_    0.803610 0.918978 0.617862 0.116715
H30   H     H_    0.615055 0.138190 0.273185 0.107821
H31   H     H_    0.182437 0.998833 0.283401 0.119274
H32   H     H_    0.153402 0.982675 0.195254 0.117222
H33   H     H_    0.170169 0.676475 0.285374 0.111078
H34   H     H_    0.550941 0.911304 0.271675 0.106880
O1    O     O_R   0.302900 0.805360 0.446400 -0.505745
O2    O     O_R   0.657980 0.180990 0.549630 -0.507414
O3    O     O_R   0.503420 0.197810 0.553190 -0.521034
O4    O     O_R   0.320350 0.978840 0.548910 -0.503638
O5    O     O_3   0.499990 0.999990 0.500010 -0.247681
O6    O     O_R   0.819150 0.845650 0.033320 -0.506876
O7    O     O_R   0.006060 0.815720 0.028680 -0.492580
O8    O     O_R   0.028100 0.664460 0.032550 -0.511771
O9    O     O_R   0.811290 0.477490 0.029660 -0.497811
O10   O     O_R   0.638120 0.455970 0.034270 -0.504289
O11   O     O_R   0.667540 0.672320 0.030160 -0.493792
O12   O     O_R   0.522090 0.841370 0.450730 -0.492683
O13   O     O_R   0.814460 0.840990 0.926980 -0.521077
O14   O     O_R   0.001710 0.811400 0.930110 -0.504379
O15   O     O_R   0.023410 0.659800 0.926210 -0.521243
O16   O     O_R   0.806940 0.473170 0.931090 -0.505562
O17   O     O_R   0.633420 0.451310 0.927930 -0.521965
O18   O     O_R   0.663190 0.668000 0.931580 -0.505022
O19   O     O_3   0.826130 0.653050 0.980200 -0.243255
O20   O     O_R   0.693280 0.995650 0.447220 -0.504914
O21   O     O_R   0.657260 0.178740 0.451050 -0.493532
O22   O     O_R   0.502640 0.195380 0.446850 -0.505093
O23   O     O_R   0.319630 0.976590 0.450330 -0.492924
O24   O     O_R   0.303680 0.807790 0.552740 -0.524177
O25   O     O_R   0.522820 0.843620 0.549310 -0.504602
O26   O     O_R   0.694060 0.998080 0.553560 -0.516829
C79   C     C_3   0.488345 0.601756 0.759652 -0.252729
C80   C     C_3   0.431059 0.485525 0.784632 -0.313248
C81   C     C_3   0.343834 0.392539 0.751363 -0.460635
H35   H     H_    0.272727 0.408460 0.743605 0.150725
H36   H     H_    0.383386 0.389675 0.716736 0.145491
H37   H     H_    0.308973 0.308760 0.769227 0.137013
H38   H     H_    0.496597 0.463299 0.794967 0.168306
H39   H     H_    0.385794 0.488504 0.817539 0.157849
H40   H     H_    0.420043 0.618510 0.747799 0.139890
H41   H     H_    0.532500 0.595483 0.726970 0.155508
C82   C     C_3   0.138336 0.628198 0.189694 -0.257712
C83   C     C_3   0.012696 0.538922 0.182330 -0.289073
C84   C     C_3   0.000102 0.434063 0.156104 -0.435958
H42   H     H_    0.038386 0.457236 0.119570 0.163219
H43   H     H_    0.042365 0.395842 0.177001 0.152249
H44   H     H_    0.908714 0.369757 0.152093 0.156394
H45   H     H_    0.970254 0.512974 0.218038 0.170637
H46   H     H_    0.969239 0.575002 0.160780 0.175943
H47   H     H_    0.182846 0.651844 0.154378 0.153617
H48   H     H_    0.180149 0.590631 0.211456 0.136404

loop_
_geom_bond_atom_site_label_1
_geom_bond_atom_site_label_2
_ccdc_geom_bond_type
Cr6   O10   S    
C48   C55   S    
C66   C68   A    
C21   C26   A    
Cr2   O2    S    
Cr6   O17   S    
C84   H42   S    
C47   H17   S    
C74   O14   A    
C15   C18   S    
C41   C42   A    
C2    H23   S    
C19   C71   S    
C81   H35   S    
C24   C27   A    
C49   H20   S    
C37   H13   S    
C79   C80   S    
C76   O18   A    
C75   O16   A    
C66   C70   A    
C77   C78   A    
C34   O26   A    
C62   C63   A    
C72   O10   A    
C27   C28   S    
C36   C37   A    
C81   H36   S    
C38   C42   A    
Cr4   O19   S    
C10   C15   A    
C23   O1    A    
C5    C6    S    
C76   O13   A    
C75   O17   A    
Cr1   O24   S    
C44   C50   A    
C65   C70   A    
C74   O15   A    
Cr6   O11   S    
C7    C67   T    
Cr4   O6    S    
C35   C42   S    
C13   C82   S    
Cr5   O16   S    
C33   C35   A    
C54   C55   A    
C40   C43   A    
C41   H9    S    
C35   C36   A    
C78   H12   S    
C16   C17   S    
Cr2   O26   S    
Cr1   O1    S    
C50   H21   S    
C12   O22   A    
C71   O8    A    
C66   H27   S    
Cr3   O22   S    
C56   O24   A    
C14   H33   S    
Cr3   O23   S    
C46   H14   S    
C83   H46   S    
C59   C60   A    
C84   H43   S    
C21   C22   A    
C43   C75   S    
C4    C7    S    
C39   H7    S    
C44   C46   A    
C64   H24   S    
C20   C29   T    
C51   H15   S    
C12   C67   S    
C73   O11   A    
C34   O25   A    
C8    C72   S    
C59   H22   S    
C72   O9    A    
C51   C52   A    
C1    O20   A    
C47   C48   A    
C81   H37   S    
C24   C25   A    
C1    O12   A    
C52   C57   A    
C33   H8    S    
C40   H10   S    
C30   C73   S    
C53   C57   A    
C68   C69   A    
C6    C8    T    
C82   H47   S    
C25   C26   A    
C53   C54   A    
Cr1   O12   S    
Cr1   O5    S    
C52   H16   S    
C25   H4    S    
C31   C37   A    
Cr3   O3    S    
C60   C61   A    
C56   O4    A    
C57   C74   S    
Cr4   O7    S    
C21   H34   S    
Cr1   O25   S    
C11   C16   A    
C44   C56   S    
C31   C32   A    
C73   O6    A    
C12   O21   A    
C64   C69   A    
C11   H32   S    
C65   H25   S    
C80   H39   S    
C79   H41   S    
C45   O2    A    
C40   C41   A    
Cr3   O5    S    
Cr6   O19   S    
C84   H44   S    
C22   C27   A    
C32   H5    S    
C70   C76   S    
C2    C5    A    
Cr5   O8    S    
Cr4   O14   S    
C3    C4    A    
Cr5   O19   S    
C80   C81   S    
C61   C69   S    
C58   C63   A    
C46   C47   A    
C48   C49   A    
C1    C20   S    
C83   C84   S    
C54   H18   S    
C9    C23   S    
Cr5   O9    S    
C3    H30   S    
C83   H45   S    
C39   C43   A    
C82   H48   S    
Cr2   O21   S    
C38   H6    S    
Cr3   O4    S    
C45   O3    A    
C64   C65   A    
C28   C30   T    
C2    C3    A    
C58   C59   A    
C79   H40   S    
C4    C77   A    
Cr4   O13   S    
C32   C33   A    
C36   H11   S    
C38   C39   A    
C53   H19   S    
Cr2   O20   S    
C17   C19   T    
C51   C55   A    
C22   H2    S    
C61   C62   A    
C24   H3    S    
Cr5   O15   S    
C60   H26   S    
C10   C11   A    
C68   C79   S    
C77   H1    S    
C80   H38   S    
C63   H29   S    
C9    C18   T    
C62   H28   S    
C26   C29   S    
C49   C50   A    
C31   C45   S    
C13   C16   A    
C23   O23   A    
C82   C83   S    
C34   C58   S    
C14   C15   A    
C71   O7    A    
C5    C78   A    
C13   C14   A    
C10   H31   S    
Cr6   O18   S    
Cr2   O5    S    
