data_mof_unit_20234.cif
_audit_creation_date              2012-12-10T17:42:43-0500
_audit_creation_method            fapswitch 2.2
_symmetry_space_group_name_H-M    P1
_symmetry_Int_Tables_number       1
_space_group_crystal_system       triclinic
_cell_length_a                    9.958527
_cell_length_b                    10.845906
_cell_length_c                    13.434091
_cell_angle_alpha                 95.001195
_cell_angle_beta                  70.450339
_cell_angle_gamma                 88.841598
_cell_volume                      1360.26613472

loop_
_atom_site_label
_atom_site_type_symbol
_atom_type_description
_atom_site_fract_x
_atom_site_fract_y
_atom_site_fract_z
_atom_type_partial_charge
C1    C     C_R   0.498171 0.740680 0.499538 0.909095
C2    C     C_R   0.371656 0.497594 0.818529 -0.280158
C3    C     C_R   0.286357 0.892897 0.428652 0.484814
C4    C     C_R   0.421435 0.494146 0.702477 1.023614
C5    C     C_R   0.235930 0.949094 0.356569 0.359067
C6    C     C_R   0.306502 0.047180 0.306350 0.591324
C7    C     C_R   0.405335 0.106114 0.344122 -0.275871
C8    C     C_R   0.443111 0.058469 0.425417 -0.081853
C9    C     C_R   0.406832 0.938667 0.451800 -0.145882
C10   C     C_R   0.493537 0.875321 0.499546 -0.179237
C11   C     C_R   0.590593 0.942224 0.537252 0.462202
C12   C     C_R   0.432818 0.501674 0.981318 -0.074609
C13   C     C_R   0.588474 0.069523 0.537854 -0.239829
C14   C     C_R   0.515605 0.127440 0.482014 -0.102654
C15   C     C_R   0.780625 0.650987 0.650501 -0.255823
C16   C     C_R   0.505117 0.260323 0.492809 0.907201
C17   C     C_R   0.793692 0.703390 0.743676 0.355364
C18   C     C_R   0.929112 0.710564 0.750706 0.290510
C19   C     C_R   0.051879 0.662004 0.662469 0.503408
C20   C     C_R   0.033420 0.579789 0.576798 -0.058579
C21   C     C_R   0.890618 0.578318 0.573792 -0.004243
C22   C     C_R   0.960169 0.418245 0.434860 -0.203727
C23   C     C_R   0.460843 0.456278 0.873156 -0.241322
C24   C     C_R   0.103499 0.417619 0.434948 0.552316
C25   C     C_R   0.578399 0.500591 0.296816 0.920101
C26   C     C_R   0.744668 0.340650 0.025608 0.688747
C27   C     C_R   0.623027 0.479833 0.181032 -0.258008
C28   C     C_R   0.245463 0.566610 0.874737 0.328950
C29   C     C_R   0.228567 0.625697 0.973215 0.337833
C30   C     C_R   0.301779 0.573861 0.033946 0.481527
C31   C     C_3   0.120375 0.795666 0.297417 -0.176963
C32   C     C_3   0.583786 0.823046 0.819956 -0.272069
C33   C     C_3   0.886617 0.876363 0.881055 -0.120969
C34   C     C_R   0.534937 0.469285 0.030616 -0.119252
C35   C     C_3   0.198677 0.808215 0.708343 -0.085105
C36   C     C_3   0.246889 0.349102 0.268648 -0.197364
C37   C     C_3   0.050634 0.471494 0.864324 -0.060040
C38   C     C_3   0.094544 0.529949 0.165317 -0.399468
C39   C     C_3   0.182309 0.831125 0.023581 -0.227552
C40   C     C_3   0.821218 0.894528 0.519395 -0.175970
C41   C     C_R   0.647374 0.378097 0.976676 -0.295866
C42   C     C_R   0.660350 0.324428 0.875251 0.584239
C43   C     C_R   0.569169 0.362664 0.824463 0.576210
C44   C     C_R   0.533978 0.526709 0.129544 0.654133
C45   C     C_R   0.730445 0.389778 0.127677 -0.427231
F1    F     F_    0.199887 0.813374 0.488380 -0.677174
F2    F     F_    0.271719 0.088614 0.225458 -0.667821
F3    F     F_    0.761721 0.233277 0.823899 -0.607092
F4    F     F_    0.850218 0.252009 0.977138 -0.646932
F5    F     F_    0.452645 0.631476 0.175910 -0.668823
F6    F     F_    0.579269 0.298057 0.730887 -0.660286
H1    H     H_    0.798721 0.352494 0.167153 0.198503
H2    H     H_    0.643798 0.902133 0.782708 0.216847
H3    H     H_    0.509925 0.860594 0.899234 0.179111
H4    H     H_    0.777848 0.877256 0.940499 0.219178
H5    H     H_    0.885497 0.930990 0.814716 0.140468
H6    H     H_    0.954307 0.924503 0.921402 0.175163
H7    H     H_    0.177475 0.808985 0.794399 0.192638
H8    H     H_    0.132482 0.880194 0.689184 0.151389
H9    H     H_    0.310132 0.834378 0.678894 0.111065
H10   H     H_    0.349839 0.298581 0.223989 0.198325
H11   H     H_    0.269578 0.447374 0.260526 0.224498
H12   H     H_    0.453301 0.188249 0.310794 0.178453
H13   H     H_    0.167929 0.317012 0.231591 0.189101
H14   H     H_    0.003557 0.473306 0.952182 0.154353
H15   H     H_    0.112696 0.382301 0.829580 0.155386
H16   H     H_    0.961151 0.476416 0.832848 0.175066
H17   H     H_    0.096326 0.439538 0.118620 0.162613
H18   H     H_    0.016375 0.596484 0.154301 0.238151
H19   H     H_    0.051027 0.517385 0.250582 0.168117
H20   H     H_    0.240587 0.858537 0.943239 0.122539
H21   H     H_    0.255898 0.829923 0.070107 0.182270
H22   H     H_    0.096089 0.903137 0.064253 0.211810
H23   H     H_    0.647177 0.122476 0.580117 0.238862
H24   H     H_    0.851976 0.992189 0.512392 0.193514
H25   H     H_    0.842020 0.844387 0.439505 0.189572
H26   H     H_    0.891736 0.851089 0.556484 0.189886
H27   H     H_    0.931593 0.350683 0.382220 0.157822
H28   H     H_    0.679771 0.664176 0.642962 0.262445
H29   H     H_    0.227796 0.771205 0.238160 0.247686
H30   H     H_    0.041172 0.785562 0.256124 0.188257
H31   H     H_    0.094450 0.730555 0.359757 0.200462
H32   H     H_    0.517035 0.784319 0.774313 0.158047
N1    N     N_R   0.856860 0.501200 0.500990 -0.103232
N2    N     N_R   0.142450 0.501280 0.501020 -0.111797
O1    O     O_R   0.385310 0.683220 0.500000 -0.495930
O2    O     O_3   0.674610 0.729903 0.834332 -0.583099
O3    O     O_3   0.942485 0.752673 0.847591 -0.548003
O4    O     O_3   0.187402 0.687496 0.662609 -0.505162
O5    O     O_3   0.201922 0.325135 0.375606 -0.596070
O6    O     O_3   0.135253 0.573952 0.835235 -0.537472
O7    O     O_3   0.233377 0.576239 0.142297 -0.600953
O8    O     O_3   0.120154 0.716362 0.017100 -0.580954
O9    O     O_3   0.677364 0.885558 0.583320 -0.665217
O10   O     O_R   0.614640 0.683250 0.500010 -0.628725
O11   O     O_R   0.328400 0.499950 0.653610 -0.549729
O12   O     O_R   0.557730 0.499970 0.653620 -0.603518
O13   O     O_R   0.385360 0.316750 0.499990 -0.582597
O14   O     O_R   0.614690 0.316780 0.500000 -0.595890
O15   O     O_R   0.442270 0.500030 0.346380 -0.591666
O16   O     O_R   0.671600 0.500050 0.346390 -0.640480
O17   O     O_3   0.109079 0.918897 0.342282 -0.616673
Zn1   Zn    Zn3+2 0.346880 0.499980 0.499990 1.071226
Zn2   Zn    Zn3+2 0.653120 0.500020 0.500010 0.971462

loop_
_geom_bond_atom_site_label_1
_geom_bond_atom_site_label_2
_ccdc_geom_bond_type
C33   H4    S    
C38   H19   S    
C41   C42   A    
C19   C20   A    
C43   F6    S    
C7    C8    A    
C12   C23   A    
C31   H31   S    
C35   H7    S    
C3    C9    A    
C28   C29   A    
C33   O3    S    
C5    C6    A    
C44   F5    S    
O13   Zn1   S    
C38   O7    S    
C23   C43   A    
C35   H8    S    
C18   C19   A    
C39   O8    S    
C26   C45   A    
C4    O11   A    
C27   C44   A    
C15   H28   S    
C8    C9    A    
C37   H14   S    
C8    C14   A    
C39   H21   S    
C13   C14   A    
C9    C10   A    
N2    Zn1   S    
C27   C45   A    
C33   H5    S    
O14   Zn2   S    
C38   H18   S    
C4    O12   A    
C20   N2    A    
C34   C41   A    
C36   H11   S    
O1    Zn1   S    
C32   H3    S    
C6    F2    S    
C37   O6    S    
C31   O17   S    
C31   H29   S    
C34   C44   A    
C22   H27   S    
C30   O7    S    
C26   F4    S    
C45   H1    S    
C32   O2    S    
O15   Zn1   S    
C18   O3    S    
C40   H25   S    
C35   H9    S    
C22   N1    A    
C2    C4    S    
C29   C30   A    
C19   O4    S    
C25   O15   A    
C21   N1    A    
C1    O10   A    
C37   H15   S    
C17   C18   A    
C42   F3    S    
C13   H23   S    
C7    H12   S    
C35   O4    S    
C11   O9    S    
C38   H17   S    
O16   Zn2   S    
N1    Zn2   S    
C14   C16   S    
C42   C43   A    
C12   C34   A    
C36   H10   S    
C32   H2    S    
O10   Zn2   S    
C24   N2    A    
C36   O5    S    
C1    O1    A    
C15   C17   A    
C32   H32   S    
C5    O17   S    
C33   H6    S    
C12   C30   A    
C17   O2    S    
C1    C10   S    
C40   O9    S    
C3    C5    A    
C24   O5    S    
C16   O14   A    
C6    C7    A    
C25   C27   S    
C3    F1    S    
C31   H30   S    
C40   H24   S    
C29   O8    S    
C11   C13   A    
C25   O16   A    
C37   H16   S    
C28   O6    S    
C22   C24   A    
C39   H22   S    
O12   Zn2   S    
C10   C11   A    
C16   O13   A    
C15   C21   A    
C20   C21   A    
O11   Zn1   S    
C2    C23   A    
C39   H20   S    
C40   H26   S    
C2    C28   A    
C36   H13   S    
C26   C41   A    
