data_mof_unit_6183.cif
_audit_creation_date              2012-12-10T20:31:48-0500
_audit_creation_method            fapswitch 2.2
_symmetry_space_group_name_H-M    P1
_symmetry_Int_Tables_number       1
_space_group_crystal_system       triclinic
_cell_length_a                    28.21155
_cell_length_b                    28.190026
_cell_length_c                    26.116558
_cell_angle_alpha                 89.916149
_cell_angle_beta                  89.783982
_cell_angle_gamma                 89.971818
_cell_volume                      20769.916961

loop_
_atom_site_label
_atom_site_type_symbol
_atom_type_description
_atom_site_fract_x
_atom_site_fract_y
_atom_site_fract_z
_atom_type_partial_charge
C1    C     C_R   0.807501 0.702826 0.737526 -0.218851
C2    C     C_R   0.193643 0.295881 0.260129 -0.245028
C3    C     C_R   0.692406 0.205324 0.766762 -0.231421
C4    C     C_R   0.309015 0.794762 0.230334 -0.241916
C5    C     C_R   0.191873 0.295579 0.735293 -0.233225
C6    C     C_R   0.801989 0.700078 0.252367 -0.264273
C7    C     C_R   0.306573 0.797247 0.760521 -0.234436
C8    C     C_R   0.696826 0.203014 0.253286 -0.237982
C9    C     C_R   0.801433 0.304784 0.257446 -0.219927
C10   C     C_R   0.205059 0.692720 0.763568 -0.237872
C11   C     C_R   0.698124 0.801954 0.250328 -0.229944
C12   C     C_R   0.292765 0.190162 0.730236 -0.263871
C13   C     C_R   0.198967 0.698358 0.240708 -0.233316
C14   C     C_R   0.791985 0.311704 0.772893 -0.241124
C15   C     C_R   0.298284 0.195009 0.257283 -0.229769
C16   C     C_R   0.706752 0.809421 0.733442 -0.261072
C17   C     C_R   0.889399 0.675726 0.733873 0.203227
C18   C     C_R   0.121161 0.326592 0.223142 0.286127
C19   C     C_R   0.669624 0.123490 0.781891 0.223254
C20   C     C_R   0.350078 0.863581 0.195795 0.276610
C21   C     C_R   0.111874 0.322133 0.755129 0.203046
C22   C     C_R   0.875800 0.669712 0.219014 0.325436
C23   C     C_R   0.326372 0.880796 0.767321 0.224723
C24   C     C_R   0.663202 0.134066 0.211497 0.287136
C25   C     C_R   0.882279 0.329589 0.275513 0.200502
C26   C     C_R   0.128463 0.663958 0.790978 0.278547
C27   C     C_R   0.675742 0.884631 0.241780 0.203907
C28   C     C_R   0.324982 0.120665 0.771804 0.333006
C29   C     C_R   0.115768 0.675530 0.235719 0.223686
C30   C     C_R   0.864763 0.347125 0.804306 0.266469
C31   C     C_R   0.324451 0.115713 0.235012 0.203280
C32   C     C_R   0.661204 0.864908 0.784067 0.307915
C33   C     C_R   0.379980 0.172744 0.272095 0.219964
C34   C     C_R   0.640746 0.852263 0.694630 0.304356
C35   C     C_R   0.175756 0.617312 0.260170 0.211098
C36   C     C_R   0.829911 0.373964 0.724173 0.312198
C37   C     C_R   0.615255 0.824029 0.257380 0.212927
C38   C     C_R   0.369183 0.160155 0.703902 0.303274
C39   C     C_R   0.827383 0.383503 0.231923 0.187267
C40   C     C_R   0.173227 0.621618 0.725291 0.304358
C41   C     C_R   0.387082 0.823008 0.742609 0.191940
C42   C     C_R   0.629386 0.163736 0.291174 0.300968
C43   C     C_R   0.173157 0.379583 0.731463 0.219111
C44   C     C_R   0.831194 0.624966 0.282853 0.330429
C45   C     C_R   0.617337 0.176499 0.734171 0.206068
C46   C     C_R   0.371771 0.831452 0.279112 0.296806
C47   C     C_R   0.825824 0.619551 0.753588 0.205136
C48   C     C_R   0.161019 0.369274 0.291958 0.272414
C49   C     C_R   0.874449 0.629379 0.746546 -0.320508
C50   C     C_R   0.124474 0.367946 0.254725 -0.385256
C51   C     C_R   0.626410 0.130552 0.754677 -0.344928
C52   C     C_R   0.376574 0.867809 0.241877 -0.377256
C53   C     C_R   0.125758 0.369861 0.746281 -0.344400
C54   C     C_R   0.871900 0.628759 0.250706 -0.386530
C55   C     C_R   0.373759 0.870619 0.752810 -0.344268
C56   C     C_R   0.628188 0.129900 0.250598 -0.353453
C57   C     C_R   0.872813 0.373252 0.251351 -0.310814
C58   C     C_R   0.131244 0.625536 0.755512 -0.381840
C59   C     C_R   0.627662 0.872185 0.249766 -0.339657
C60   C     C_R   0.367375 0.123987 0.742030 -0.391213
C61   C     C_R   0.127888 0.628221 0.248884 -0.346462
C62   C     C_R   0.867501 0.376553 0.759916 -0.369391
C63   C     C_R   0.370931 0.126839 0.252004 -0.351361
C64   C     C_R   0.631705 0.875461 0.742102 -0.374212
C65   C     C_1   0.772499 0.740956 0.734484 0.253250
C66   C     C_1   0.230490 0.260237 0.259986 0.257293
C67   C     C_1   0.727062 0.243216 0.771401 0.246248
C68   C     C_1   0.269782 0.761000 0.231590 0.243346
C69   C     C_1   0.226852 0.257765 0.731763 0.246171
C70   C     C_1   0.765670 0.736246 0.251787 0.252780
C71   C     C_1   0.271366 0.759755 0.762850 0.246135
C72   C     C_1   0.733393 0.239277 0.255974 0.255834
C73   C     C_1   0.764425 0.268905 0.257364 0.247624
C74   C     C_1   0.241691 0.728792 0.763729 0.251195
C75   C     C_1   0.734909 0.766055 0.251180 0.243359
C76   C     C_1   0.256372 0.226562 0.730236 0.258271
C77   C     C_1   0.237151 0.732988 0.234889 0.237778
C78   C     C_1   0.756164 0.274729 0.773223 0.254900
C79   C     C_1   0.261327 0.230558 0.259140 0.247405
C80   C     C_1   0.742908 0.772260 0.732959 0.267946
C81   C     C_R   0.451942 0.921339 0.545231 0.475647
C82   C     C_R   0.575760 0.040689 0.450025 0.480781
C83   C     C_R   0.940394 0.438086 0.546769 0.487967
C84   C     C_R   0.083908 0.540004 0.455187 0.473207
C85   C     C_R   0.544362 0.077286 0.543686 0.481560
C86   C     C_R   0.421973 0.956050 0.449956 0.503024
C87   C     C_R   0.054343 0.571937 0.551971 0.497185
C88   C     C_R   0.912186 0.483761 0.456878 0.501709
C89   C     C_R   0.077528 0.453118 0.054021 0.497640
C90   C     C_R   0.970263 0.583954 0.956274 0.491252
C91   C     C_R   0.430351 0.066960 0.050819 0.505062
C92   C     C_R   0.562764 0.944683 0.956331 0.489078
C93   C     C_R   0.932427 0.551859 0.049296 0.487365
C94   C     C_R   0.053510 0.422743 0.955014 0.467247
C95   C     C_R   0.589561 0.993703 0.044084 0.479640
C96   C     C_R   0.440674 0.071393 0.944045 0.499771
C97   C     C_R   0.412849 0.900935 0.520221 -0.307163
C98   C     C_R   0.602303 0.075475 0.474893 -0.120825
C99   C     C_R   0.897119 0.426211 0.524027 -0.192538
C100  C     C_R   0.109089 0.575816 0.480891 -0.299394
C101  C     C_R   0.584658 0.096267 0.519285 -0.341161
C102  C     C_R   0.395910 0.920491 0.475018 -0.206482
C103  C     C_R   0.092360 0.593870 0.526840 -0.205299
C104  C     C_R   0.881324 0.451806 0.481815 -0.291040
C105  C     C_R   0.104354 0.418075 0.029526 -0.194507
C106  C     C_R   0.934256 0.609808 0.981279 -0.303402
C107  C     C_R   0.396637 0.090481 0.020691 -0.267781
C108  C     C_R   0.607304 0.936418 0.978315 -0.196568
C109  C     C_R   0.913244 0.592055 0.025511 -0.169760
C110  C     C_R   0.090672 0.401175 0.982201 -0.290065
C111  C     C_R   0.622035 0.963723 0.019282 -0.282180
C112  C     C_R   0.402932 0.094306 0.968412 -0.209117
C113  C     C_R   0.499775 0.000198 0.890138 0.982780
C114  C     C_R   0.500490 0.004627 0.110033 0.916903
C115  C     C_R   0.002148 0.500003 0.890301 0.867524
C116  C     C_R   0.000586 0.499924 0.110374 1.004557
C117  C     C_R   0.000007 0.501945 0.390279 0.874000
C118  C     C_R   0.000107 0.499918 0.610290 0.995381
C119  C     C_R   0.499076 0.999832 0.389649 0.952747
C120  C     C_R   0.499278 0.999908 0.609696 0.857982
C121  C     C_R   0.031218 0.464435 0.975559 -0.028920
C122  C     C_R   0.971572 0.528670 0.026574 -0.063410
C123  C     C_R   0.468115 0.037848 0.971715 -0.056224
C124  C     C_R   0.542420 0.997355 0.025451 -0.053651
C125  C     C_R   0.982988 0.538036 0.975280 -0.034742
C126  C     C_R   0.037401 0.472490 0.028717 -0.055998
C127  C     C_R   0.534161 0.981773 0.975536 -0.068766
C128  C     C_R   0.466078 0.038643 0.026520 -0.036538
C129  C     C_R   0.463997 0.973279 0.472749 -0.050359
C130  C     C_R   0.524475 0.034412 0.524390 -0.019884
C131  C     C_R   0.959353 0.489083 0.475333 -0.033385
C132  C     C_R   0.031495 0.533020 0.528182 -0.052055
C133  C     C_R   0.533515 0.024225 0.472681 -0.081361
C134  C     C_R   0.472184 0.964059 0.525093 -0.036895
C135  C     C_R   0.039242 0.524909 0.475430 -0.029861
C136  C     C_R   0.967269 0.475811 0.526184 -0.067762
C137  C     C_R   0.409339 0.908985 0.750341 0.965514
C138  C     C_R   0.591232 0.091259 0.250170 0.964545
C139  C     C_R   0.909469 0.590846 0.749731 1.023462
C140  C     C_R   0.090176 0.408146 0.250950 0.953396
C141  C     C_R   0.590771 0.091421 0.750617 0.926903
C142  C     C_R   0.409862 0.908272 0.248727 0.994136
C143  C     C_R   0.090632 0.408823 0.749569 0.967154
C144  C     C_R   0.908897 0.591027 0.249946 0.945402
C145  C     C_R   0.409019 0.090758 0.250227 0.961128
C146  C     C_R   0.591797 0.909930 0.748185 1.010367
C147  C     C_R   0.909279 0.409715 0.249903 1.030381
C148  C     C_R   0.091584 0.590593 0.750837 0.953232
C149  C     C_R   0.590786 0.909203 0.249955 0.987657
C150  C     C_R   0.408073 0.090348 0.748733 0.943042
C151  C     C_R   0.090864 0.590924 0.249857 0.968784
C152  C     C_R   0.908106 0.409932 0.751939 0.993993
C153  C     C_R   0.005782 0.500532 0.947075 -0.085930
C154  C     C_R   0.002662 0.499665 0.054578 -0.087166
C155  C     C_R   0.499211 0.005154 0.946586 -0.096961
C156  C     C_R   0.503068 0.014907 0.053941 -0.077351
C157  C     C_R   0.498713 0.999168 0.445498 -0.071259
C158  C     C_R   0.498331 0.999558 0.553019 -0.084049
C159  C     C_R   0.999773 0.505585 0.446978 -0.098476
C160  C     C_R   0.000355 0.502143 0.554408 -0.091037
C161  C     C_R   0.856585 0.713303 0.738303 0.232237
C162  C     C_R   0.150489 0.287516 0.234798 0.243084
C163  C     C_R   0.696408 0.163576 0.796169 0.219342
C164  C     C_R   0.310405 0.833177 0.195412 0.258742
C165  C     C_R   0.147494 0.287176 0.758866 0.221055
C166  C     C_R   0.847181 0.708677 0.231288 0.250476
C167  C     C_R   0.296298 0.842739 0.780305 0.242524
C168  C     C_R   0.702326 0.164113 0.219864 0.267697
C169  C     C_R   0.848839 0.292802 0.270371 0.246739
C170  C     C_R   0.159947 0.702018 0.784522 0.258657
C171  C     C_R   0.708599 0.848087 0.232562 0.220660
C172  C     C_R   0.285270 0.146758 0.755648 0.250205
C173  C     C_R   0.152512 0.707438 0.222660 0.237843
C174  C     C_R   0.832826 0.308616 0.803903 0.257167
C175  C     C_R   0.291955 0.153132 0.228621 0.219491
C176  C     C_R   0.703491 0.839948 0.775918 0.262575
C177  C     C_R   0.341132 0.202126 0.283697 0.215387
C178  C     C_R   0.672366 0.813160 0.694130 0.323516
C179  C     C_R   0.208139 0.654875 0.265613 0.216183
C180  C     C_R   0.788536 0.349288 0.737575 0.249187
C181  C     C_R   0.651673 0.791116 0.267166 0.229448
C182  C     C_R   0.337636 0.198384 0.708192 0.323760
C183  C     C_R   0.790155 0.351874 0.243272 0.229083
C184  C     C_R   0.212832 0.648562 0.739803 0.242383
C185  C     C_R   0.351046 0.788834 0.737259 0.218306
C186  C     C_R   0.656356 0.205159 0.284679 0.262039
C187  C     C_R   0.202483 0.341467 0.716759 0.229004
C188  C     C_R   0.792702 0.654865 0.272953 0.324465
C189  C     C_R   0.654986 0.209230 0.731403 0.223339
C190  C     C_R   0.345598 0.790895 0.266722 0.240753
C191  C     C_R   0.792433 0.654946 0.740654 0.234182
C192  C     C_R   0.200206 0.339324 0.285483 0.252789
H1    H     H_    0.601977 0.127355 0.534432 0.184566
H2    H     H_    0.364091 0.905985 0.458316 0.200307
H3    H     H_    0.110682 0.623425 0.543846 0.215429
H4    H     H_    0.845284 0.447068 0.468754 0.189043
H5    H     H_    0.395912 0.869501 0.535600 0.179569
H6    H     H_    0.635304 0.087816 0.458947 0.227489
H7    H     H_    0.874654 0.399306 0.540706 0.193356
H8    H     H_    0.142095 0.589313 0.465555 0.183289
H9    H     H_    0.883795 0.610846 0.042282 0.225241
H10   H     H_    0.108929 0.370585 0.966756 0.181005
H11   H     H_    0.658463 0.961332 0.032096 0.200096
H12   H     H_    0.379833 0.117748 0.947667 0.223479
H13   H     H_    0.134480 0.402095 0.048265 0.194496
H14   H     H_    0.923139 0.644169 0.967096 0.188231
H15   H     H_    0.368120 0.110412 0.038335 0.176090
H16   H     H_    0.631252 0.910386 0.962671 0.197557
O1    O     O_3   0.500000 0.000000 0.750000 -0.587573
O2    O     O_3   0.500000 1.000000 0.250000 -0.581770
O3    O     O_3   0.000000 0.500000 0.750000 -0.585300
O4    O     O_3   0.000000 0.500000 0.250000 -0.583200
O5    O     O_R   0.539320 1.000000 0.865670 -0.602156
O6    O     O_R   0.460680 0.000000 0.134330 -0.559220
O7    O     O_R   0.000000 0.460680 0.865670 -0.555058
O8    O     O_R   1.000000 0.539320 0.134330 -0.628467
O9    O     O_R   0.460680 1.000000 0.865670 -0.598029
O10   O     O_R   0.539320 0.000000 0.134330 -0.613295
O11   O     O_R   0.000000 0.539320 0.865670 -0.584482
O12   O     O_R   1.000000 0.460680 0.134330 -0.591588
O13   O     O_R   0.039320 0.500000 0.365670 -0.568602
O14   O     O_R   0.960680 0.500000 0.634330 -0.604708
O15   O     O_R   0.500000 0.960680 0.365670 -0.599280
O16   O     O_R   0.500000 0.039320 0.634330 -0.570463
O17   O     O_R   0.960680 0.500000 0.365670 -0.582800
O18   O     O_R   0.039320 0.500000 0.634330 -0.609170
O19   O     O_R   0.500000 0.039320 0.365670 -0.636689
O20   O     O_R   0.500000 0.960680 0.634330 -0.564888
O21   O     O_R   0.405620 0.944810 0.780240 -0.592098
O22   O     O_R   0.594380 0.055190 0.219760 -0.558155
O23   O     O_R   0.944810 0.594380 0.780240 -0.605515
O24   O     O_R   0.055190 0.405620 0.219760 -0.564044
O25   O     O_R   0.594380 0.055190 0.780240 -0.589891
O26   O     O_R   0.405620 0.944810 0.219760 -0.570910
O27   O     O_R   0.055190 0.405620 0.780240 -0.590860
O28   O     O_R   0.944810 0.594380 0.219760 -0.584276
O29   O     O_R   0.405620 0.055190 0.219760 -0.577114
O30   O     O_R   0.594380 0.944810 0.780240 -0.573139
O31   O     O_R   0.944810 0.405620 0.219760 -0.596236
O32   O     O_R   0.055190 0.594380 0.780240 -0.562821
O33   O     O_R   0.594380 0.944810 0.219760 -0.607406
O34   O     O_R   0.405620 0.055190 0.780240 -0.571085
O35   O     O_R   0.055190 0.594380 0.219760 -0.592465
O36   O     O_R   0.944810 0.405620 0.780240 -0.565324
O37   O     O_R   0.905620 0.444810 0.280240 -0.606585
O38   O     O_R   0.094380 0.555190 0.719760 -0.571806
O39   O     O_R   0.444810 0.094380 0.280240 -0.584226
O40   O     O_R   0.555190 0.905620 0.719760 -0.563571
O41   O     O_R   0.094380 0.555190 0.280240 -0.592000
O42   O     O_R   0.905620 0.444810 0.719760 -0.574341
O43   O     O_R   0.555190 0.905620 0.280240 -0.594884
O44   O     O_R   0.444810 0.094380 0.719760 -0.559373
O45   O     O_R   0.905620 0.555190 0.719760 -0.602272
O46   O     O_R   0.094380 0.444810 0.280240 -0.561976
O47   O     O_R   0.444810 0.905620 0.719760 -0.592912
O48   O     O_R   0.555190 0.094380 0.280240 -0.591802
O49   O     O_R   0.094380 0.444810 0.719760 -0.595466
O50   O     O_R   0.905620 0.555190 0.280240 -0.563030
O51   O     O_R   0.555190 0.094380 0.719760 -0.579619
O52   O     O_R   0.444810 0.905620 0.280240 -0.564735
Zn1   Zn    Zn3+2 0.500000 0.943960 0.706520 1.142331
Zn2   Zn    Zn3+2 0.500000 0.056040 0.293480 1.116936
Zn3   Zn    Zn3+2 0.943960 0.500000 0.706520 1.147028
Zn4   Zn    Zn3+2 0.056040 0.500000 0.293480 1.137819
Zn5   Zn    Zn3+2 0.500000 0.056040 0.706520 1.134284
Zn6   Zn    Zn3+2 0.500000 0.943960 0.293480 1.140575
Zn7   Zn    Zn3+2 0.056040 0.500000 0.706520 1.134803
Zn8   Zn    Zn3+2 0.943960 0.500000 0.293480 1.131261
Zn9   Zn    Zn3+2 1.000000 0.443960 0.206520 1.152756
Zn10  Zn    Zn3+2 0.000000 0.556040 0.793480 1.129779
Zn11  Zn    Zn3+2 0.443960 1.000000 0.206520 1.154108
Zn12  Zn    Zn3+2 0.556040 1.000000 0.793480 1.137511
Zn13  Zn    Zn3+2 1.000000 0.556040 0.206520 1.116537
Zn14  Zn    Zn3+2 0.000000 0.443960 0.793480 1.144750
Zn15  Zn    Zn3+2 0.556040 1.000000 0.206520 1.116741
Zn16  Zn    Zn3+2 0.443960 1.000000 0.793480 1.127596
S1    S     S_3+6 0.875841 0.771734 0.752725 0.144462
O53   O     O_2   0.861813 0.804701 0.710170 -0.187841
O54   O     O_2   0.851526 0.786805 0.801235 -0.214351
O55   O     O_3   0.934555 0.776118 0.762468 -0.383226
H17   H     H_    0.939868 0.762597 0.796998 0.386203
S2    S     S_3+6 0.129037 0.228696 0.227103 0.174270
O56   O     O_2   0.145284 0.209132 0.176622 -0.091529
O57   O     O_2   0.147250 0.197509 0.269426 -0.249971
O58   O     O_3   0.069456 0.227887 0.228745 -0.417332
H18   H     H_    0.060877 0.240717 0.262859 0.378377
S3    S     S_3+6 0.728472 0.163459 0.854625 0.156201
O59   O     O_2   0.779397 0.150897 0.844954 -0.108541
O60   O     O_2   0.726071 0.211701 0.878912 -0.249631
O61   O     O_3   0.705431 0.123734 0.895893 -0.421476
H19   H     H_    0.674822 0.138061 0.907516 0.358330
S4    S     S_3+6 0.262005 0.845572 0.154597 0.170322
O62   O     O_2   0.260615 0.809314 0.112558 -0.142445
O63   O     O_2   0.217121 0.843122 0.185313 -0.216303
O64   O     O_3   0.265254 0.899992 0.128488 -0.405496
H20   H     H_    0.260565 0.922108 0.157553 0.390246
S5    S     S_3+6 0.138343 0.235244 0.796160 0.143089
O65   O     O_2   0.130166 0.193961 0.761071 -0.138813
O66   O     O_2   0.181748 0.226054 0.827852 -0.263191
O67   O     O_3   0.091787 0.240462 0.836161 -0.393375
H21   H     H_    0.101444 0.264521 0.861542 0.357785
S6    S     S_3+6 0.872019 0.766041 0.227235 0.171533
O68   O     O_2   0.855129 0.790892 0.179924 -0.085115
O69   O     O_2   0.857864 0.794489 0.273464 -0.255408
O70   O     O_3   0.931505 0.762141 0.224538 -0.397056
H22   H     H_    0.941223 0.752160 0.259344 0.377668
S7    S     S_3+6 0.250430 0.850895 0.826268 0.156259
O71   O     O_2   0.204482 0.861051 0.799722 -0.113637
O72   O     O_2   0.245213 0.806695 0.858060 -0.266469
O73   O     O_3   0.262709 0.896573 0.865441 -0.415404
H23   H     H_    0.275576 0.882106 0.897056 0.383555
S8    S     S_3+6 0.759537 0.148930 0.196309 0.174998
O74   O     O_2   0.776393 0.186838 0.160056 -0.168309
O75   O     O_2   0.792249 0.146394 0.241478 -0.204424
O76   O     O_3   0.761697 0.096133 0.166524 -0.391824
H24   H     H_    0.762112 0.072345 0.194533 0.400930
S9    S     S_3+6 0.866907 0.232388 0.271501 0.152336
O77   O     O_2   0.839246 0.206380 0.311960 -0.192446
O78   O     O_2   0.855756 0.211823 0.219992 -0.201945
O79   O     O_3   0.925107 0.223864 0.281804 -0.387653
H25   H     H_    0.940448 0.227916 0.247906 0.396755
S10   S     S_3+6 0.138651 0.760646 0.792834 0.172129
O80   O     O_2   0.154140 0.779494 0.843773 -0.097131
O81   O     O_2   0.157669 0.791764 0.750777 -0.257193
O82   O     O_3   0.079080 0.761904 0.790484 -0.410052
H26   H     H_    0.071027 0.750520 0.755725 0.383565
S11   S     S_3+6 0.759079 0.858560 0.193404 0.149419
O83   O     O_2   0.801865 0.864615 0.226742 -0.128901
O84   O     O_2   0.766379 0.816872 0.158424 -0.254923
O85   O     O_3   0.752654 0.907324 0.156951 -0.400795
H27   H     H_    0.727070 0.899374 0.132544 0.355816
S12   S     S_3+6 0.228685 0.119663 0.757706 0.172591
O86   O     O_2   0.201563 0.135206 0.804239 -0.077815
O87   O     O_2   0.200981 0.132841 0.710736 -0.256303
O88   O     O_3   0.235038 0.060398 0.760089 -0.403448
H28   H     H_    0.243511 0.050834 0.724661 0.375850
S13   S     S_3+6 0.140914 0.755935 0.181184 0.155213
O89   O     O_2   0.136036 0.800398 0.212418 -0.151123
O90   O     O_2   0.181429 0.761206 0.144247 -0.234431
O91   O     O_3   0.091037 0.748180 0.147174 -0.398532
H29   H     H_    0.101310 0.733136 0.114562 0.376937
S14   S     S_3+6 0.847313 0.255100 0.836195 0.172669
O92   O     O_2   0.816803 0.250158 0.883154 -0.112038
O93   O     O_2   0.838440 0.213947 0.800989 -0.253993
O94   O     O_3   0.904622 0.253656 0.853699 -0.398948
H30   H     H_    0.922712 0.253425 0.821068 0.388157
S15   S     S_3+6 0.246635 0.149100 0.181811 0.144583
O95   O     O_2   0.201143 0.134500 0.207279 -0.119963
O96   O     O_2   0.239950 0.196432 0.156267 -0.270282
O97   O     O_3   0.260379 0.109061 0.136437 -0.407288
H31   H     H_    0.289398 0.121518 0.119842 0.343554
S16   S     S_3+6 0.753037 0.851263 0.815308 0.157511
O98   O     O_2   0.762369 0.809105 0.848995 -0.170504
O99   O     O_2   0.795342 0.860213 0.781659 -0.201244
O100  O     O_3   0.744247 0.899497 0.851964 -0.430232
H32   H     H_    0.747634 0.926814 0.828396 0.392934
S17   S     S_3+6 0.344186 0.241953 0.336263 0.157234
O101  O     O_2   0.356856 0.290720 0.317663 -0.113690
O102  O     O_2   0.297059 0.243836 0.363225 -0.249889
O103  O     O_3   0.385339 0.224234 0.378523 -0.408681
H33   H     H_    0.371614 0.195549 0.395089 0.362736
S18   S     S_3+6 0.663408 0.764648 0.651895 0.154355
O104  O     O_2   0.707668 0.756173 0.621064 -0.216080
O105  O     O_2   0.653197 0.722016 0.684583 -0.195872
O106  O     O_3   0.617290 0.771885 0.612102 -0.441461
H34   H     H_    0.609484 0.739591 0.599953 0.408291
S19   S     S_3+6 0.254522 0.650346 0.311003 0.148454
O107  O     O_2   0.299840 0.637184 0.284344 -0.120044
O108  O     O_2   0.260448 0.697243 0.337470 -0.264436
O109  O     O_3   0.242491 0.609088 0.355729 -0.408033
H35   H     H_    0.214686 0.621628 0.374719 0.345072
S20   S     S_3+6 0.732970 0.372720 0.718369 0.175697
O110  O     O_2   0.718045 0.352113 0.668020 -0.083255
O111  O     O_2   0.695744 0.362074 0.758130 -0.243986
O112  O     O_3   0.737465 0.431894 0.711393 -0.422503
H36   H     H_    0.745309 0.443849 0.746017 0.385818
S21   S     S_3+6 0.640319 0.739785 0.304988 0.155803
O113  O     O_2   0.633608 0.697633 0.270636 -0.130371
O114  O     O_2   0.681646 0.731114 0.339999 -0.254839
O115  O     O_3   0.591430 0.746133 0.341428 -0.390320
H37   H     H_    0.600329 0.769447 0.368146 0.368870
S22   S     S_3+6 0.358731 0.256340 0.695446 0.152780
O116  O     O_2   0.341602 0.272809 0.644041 -0.141437
O117  O     O_2   0.341114 0.289172 0.736574 -0.258317
O118  O     O_3   0.418372 0.257014 0.695878 -0.442589
H38   H     H_    0.427172 0.290530 0.689550 0.416502
S23   S     S_3+6 0.730468 0.371889 0.247146 0.144392
O119  O     O_2   0.703121 0.353128 0.202333 -0.182033
O120  O     O_2   0.708903 0.353196 0.295808 -0.217166
O121  O     O_3   0.726020 0.431422 0.248523 -0.389374
H39   H     H_    0.739588 0.440930 0.281847 0.378191
S24   S     S_3+6 0.269885 0.622559 0.736184 0.174082
O122  O     O_2   0.295602 0.639398 0.689241 -0.081881
O123  O     O_2   0.298218 0.635550 0.782727 -0.248907
O124  O     O_3   0.264839 0.563167 0.733070 -0.395568
H40   H     H_    0.248928 0.553799 0.765417 0.369652
S25   S     S_3+6 0.359854 0.738235 0.697966 0.143360
O125  O     O_2   0.368289 0.695734 0.731407 -0.135427
O126  O     O_2   0.316295 0.730200 0.666204 -0.262639
O127  O     O_3   0.406212 0.744913 0.657953 -0.397630
H41   H     H_    0.396842 0.770764 0.634425 0.352762
S26   S     S_3+6 0.636537 0.258970 0.311947 0.173094
O128  O     O_2   0.670894 0.275055 0.352072 -0.157268
O129  O     O_2   0.633343 0.295756 0.270457 -0.197668
O130  O     O_3   0.582417 0.252207 0.338591 -0.401060
H42   H     H_    0.561136 0.244625 0.309767 0.387671
S27   S     S_3+6 0.247165 0.350190 0.669516 0.159625
O131  O     O_2   0.293633 0.360949 0.694654 -0.116683
O132  O     O_2   0.252244 0.306261 0.637445 -0.251856
O133  O     O_3   0.233268 0.395644 0.630651 -0.409961
H43   H     H_    0.209827 0.382533 0.606244 0.367808
S28   S     S_3+6 0.735129 0.630062 0.273383 0.163810
O134  O     O_2   0.710016 0.641718 0.322530 -0.144368
O135  O     O_2   0.707558 0.649134 0.228760 -0.235009
O136  O     O_3   0.739076 0.570717 0.267639 -0.447814
H44   H     H_    0.706221 0.558932 0.271968 0.412456
S29   S     S_3+6 0.657617 0.251257 0.680743 0.145011
O137  O     O_2   0.640360 0.298455 0.699767 -0.126468
O138  O     O_2   0.707929 0.256067 0.662307 -0.263375
O139  O     O_3   0.623970 0.234427 0.630947 -0.419229
H45   H     H_    0.641050 0.207257 0.615490 0.351564
S30   S     S_3+6 0.370647 0.734884 0.281298 0.182455
O140  O     O_2   0.352442 0.716741 0.331649 -0.085088
O141  O     O_2   0.359166 0.699994 0.239737 -0.239016
O142  O     O_3   0.429924 0.739933 0.285242 -0.393873
H46   H     H_    0.440177 0.751826 0.251249 0.380188
S31   S     S_3+6 0.734048 0.639822 0.721205 0.145724
O143  O     O_2   0.699071 0.658618 0.759660 -0.182378
O144  O     O_2   0.725264 0.663017 0.670339 -0.224204
O145  O     O_3   0.725340 0.581237 0.713893 -0.381425
H47   H     H_    0.740281 0.573293 0.680594 0.386683
S32   S     S_3+6 0.257156 0.359071 0.304367 0.162118
O146  O     O_2   0.270097 0.337198 0.354803 -0.096688
O147  O     O_2   0.293179 0.344936 0.264698 -0.269738
O148  O     O_3   0.258151 0.418456 0.310465 -0.401614
H48   H     H_    0.255047 0.430825 0.275075 0.380442
S33   S     S_3+6 0.946292 0.684791 0.705361 0.090922
O149  O     O_2   0.983009 0.688920 0.746579 -0.215352
O150  O     O_2   0.959062 0.643502 0.671645 -0.318082
O151  O     O_3   0.947034 0.734226 0.669237 -0.411367
H49   H     H_    0.922692 0.728830 0.642647 0.369057
S34   S     S_3+6 0.084232 0.323390 0.167644 0.109839
O152  O     O_2   0.033400 0.317312 0.183909 -0.205248
O153  O     O_2   0.089122 0.368302 0.137095 -0.320594
O154  O     O_3   0.099394 0.278281 0.128914 -0.444147
H50   H     H_    0.076617 0.279851 0.100193 0.399290
S35   S     S_3+6 0.694320 0.065776 0.791730 0.130454
O155  O     O_2   0.674211 0.044277 0.839817 -0.162946
O156  O     O_2   0.682757 0.034029 0.747273 -0.298445
O157  O     O_3   0.753596 0.068264 0.797100 -0.410774
H51   H     H_    0.764887 0.080282 0.763533 0.369058
S36   S     S_3+6 0.371979 0.887253 0.136733 0.109514
O158  O     O_2   0.355856 0.937771 0.130466 -0.207986
O159  O     O_2   0.425269 0.885830 0.136427 -0.307012
O160  O     O_3   0.352345 0.854902 0.087088 -0.450830
H52   H     H_    0.362055 0.872899 0.056196 0.394992
S37   S     S_3+6 0.050903 0.304932 0.753186 0.113628
O161  O     O_2   0.028754 0.311932 0.805022 -0.183934
O162  O     O_2   0.024459 0.334606 0.714830 -0.309067
O163  O     O_3   0.045126 0.247708 0.736261 -0.406515
H53   H     H_    0.057632 0.246023 0.700818 0.370912
S38   S     S_3+6 0.890608 0.664792 0.152933 0.084783
O164  O     O_2   0.940505 0.648278 0.143586 -0.230503
O165  O     O_2   0.856173 0.630023 0.130635 -0.346379
O166  O     O_3   0.883536 0.716669 0.122251 -0.425999
H54   H     H_    0.885811 0.708724 0.085358 0.386592
S39   S     S_3+6 0.303159 0.939732 0.763416 0.129922
O167  O     O_2   0.312520 0.965537 0.812624 -0.119028
O168  O     O_2   0.326528 0.966450 0.720321 -0.349838
O169  O     O_3   0.244472 0.939236 0.752791 -0.401641
H55   H     H_    0.240905 0.925002 0.718354 0.362233
S40   S     S_3+6 0.656365 0.108614 0.150341 0.120278
O170  O     O_2   0.675395 0.059052 0.152690 -0.228918
O171  O     O_2   0.604929 0.108160 0.135548 -0.256744
O172  O     O_3   0.686772 0.139895 0.106231 -0.445692
H56   H     H_    0.680886 0.123309 0.073433 0.406343
S41   S     S_3+6 0.932412 0.323833 0.316732 0.090047
O173  O     O_2   0.975115 0.309966 0.285627 -0.223041
O174  O     O_2   0.942863 0.369998 0.343166 -0.333173
O175  O     O_3   0.922404 0.282683 0.362217 -0.408102
H57   H     H_    0.893614 0.293744 0.380436 0.359845
S42   S     S_3+6 0.093216 0.662770 0.847814 0.123852
O176  O     O_2   0.043245 0.677316 0.835765 -0.208896
O177  O     O_2   0.093304 0.613627 0.870247 -0.265245
O178  O     O_3   0.115535 0.700094 0.891706 -0.456181
H58   H     H_    0.094228 0.697130 0.921755 0.398813
S43   S     S_3+6 0.695713 0.944254 0.249858 0.120912
O179  O     O_2   0.689547 0.970914 0.200484 -0.187643
O180  O     O_2   0.667308 0.968645 0.290969 -0.295822
O181  O     O_3   0.753206 0.945854 0.266561 -0.403491
H59   H     H_    0.754484 0.929851 0.300362 0.371942
S44   S     S_3+6 0.326766 0.108148 0.838446 0.094101
O182  O     O_2   0.344657 0.059216 0.850352 -0.202345
O183  O     O_2   0.359067 0.144590 0.861346 -0.369541
O184  O     O_3   0.273250 0.114212 0.866099 -0.423023
H60   H     H_    0.279300 0.112579 0.903401 0.392587
S45   S     S_3+6 0.056106 0.696242 0.242688 0.115915
O185  O     O_2   0.028886 0.686515 0.194485 -0.135735
O186  O     O_2   0.032060 0.670999 0.286389 -0.350801
O187  O     O_3   0.054449 0.754806 0.254589 -0.406510
H61   H     H_    0.069593 0.758475 0.288532 0.363733
S46   S     S_3+6 0.893005 0.362586 0.863002 0.128847
O188  O     O_2   0.943405 0.345306 0.862939 -0.175719
O189  O     O_2   0.892542 0.415606 0.869349 -0.293917
O190  O     O_3   0.864045 0.338294 0.912987 -0.446484
H62   H     H_    0.880916 0.349912 0.943745 0.400629
S47   S     S_3+6 0.304463 0.055684 0.229241 0.118347
O191  O     O_2   0.317643 0.036677 0.177367 -0.176948
O192  O     O_2   0.327181 0.025133 0.269537 -0.312153
O193  O     O_3   0.245412 0.051640 0.236634 -0.405598
H63   H     H_    0.239366 0.061334 0.272517 0.370541
S48   S     S_3+6 0.638355 0.868750 0.846767 0.084816
O194  O     O_2   0.642992 0.918844 0.865627 -0.256651
O195  O     O_2   0.587011 0.854763 0.844899 -0.271360
O196  O     O_3   0.666936 0.831297 0.886220 -0.458126
H64   H     H_    0.665915 0.846401 0.920365 0.377396
S49   S     S_3+6 0.438737 0.196253 0.276099 0.120672
O197  O     O_2   0.461093 0.181391 0.325739 -0.156571
O198  O     O_2   0.468575 0.177972 0.232546 -0.311476
O199  O     O_3   0.438427 0.255791 0.273003 -0.411162
H65   H     H_    0.423654 0.263304 0.239616 0.367087
S50   S     S_3+6 0.618695 0.875528 0.635889 0.126881
O200  O     O_2   0.569470 0.857099 0.626884 -0.171917
O201  O     O_2   0.617302 0.928774 0.638037 -0.322122
O202  O     O_3   0.654113 0.859489 0.586918 -0.456646
H66   H     H_    0.634933 0.864613 0.555662 0.398744
S51   S     S_3+6 0.196754 0.557607 0.262013 0.117144
O203  O     O_2   0.187340 0.537242 0.314183 -0.169219
O204  O     O_2   0.171646 0.527904 0.222767 -0.326547
O205  O     O_3   0.255258 0.554777 0.250024 -0.410956
H67   H     H_    0.258842 0.565938 0.214229 0.365700
S52   S     S_3+6 0.840102 0.385166 0.658247 0.095387
O206  O     O_2   0.835648 0.437330 0.646458 -0.214866
O207  O     O_2   0.889479 0.368335 0.646266 -0.320238
O208  O     O_3   0.801982 0.354282 0.621864 -0.453292
H68   H     H_    0.812732 0.360219 0.585644 0.373124
S53   S     S_3+6 0.555885 0.804002 0.247754 0.110193
O209  O     O_2   0.528676 0.808404 0.297029 -0.149670
O210  O     O_2   0.531767 0.833591 0.207504 -0.332052
O211  O     O_3   0.554790 0.747040 0.228715 -0.413501
H69   H     H_    0.570196 0.747105 0.194515 0.368544
S54   S     S_3+6 0.401937 0.154637 0.645751 0.140987
O212  O     O_2   0.452035 0.170614 0.653976 -0.134063
O213  O     O_2   0.401843 0.103857 0.628210 -0.290130
O214  O     O_3   0.377367 0.188188 0.599626 -0.468072
H70   H     H_    0.399649 0.186186 0.570297 0.404056
S55   S     S_3+6 0.818951 0.433761 0.191301 0.115559
O215  O     O_2   0.813148 0.477455 0.223565 -0.195679
O216  O     O_2   0.861373 0.440466 0.157049 -0.291371
O217  O     O_3   0.770904 0.427180 0.154032 -0.390971
H71   H     H_    0.778641 0.400404 0.130991 0.374341
S56   S     S_3+6 0.170757 0.604972 0.659769 0.106395
O218  O     O_2   0.158934 0.553490 0.652423 -0.179587
O219  O     O_2   0.133162 0.635175 0.635646 -0.362861
O220  O     O_3   0.222276 0.615908 0.629457 -0.431210
H72   H     H_    0.214707 0.614261 0.592458 0.390294
S57   S     S_3+6 0.447810 0.804776 0.744672 0.134936
O221  O     O_2   0.470762 0.813128 0.693429 -0.176089
O222  O     O_2   0.474152 0.832791 0.784408 -0.288456
O223  O     O_3   0.452608 0.746955 0.759648 -0.389562
H73   H     H_    0.439335 0.744276 0.794702 0.370446
S58   S     S_3+6 0.619079 0.145748 0.355222 0.064574
O224  O     O_2   0.567152 0.138761 0.365964 -0.252096
O225  O     O_2   0.645472 0.100070 0.362679 -0.321847
O226  O     O_3   0.640641 0.185367 0.397188 -0.445511
H74   H     H_    0.626256 0.176836 0.430612 0.383280
S59   S     S_3+6 0.197436 0.437857 0.736885 0.123050
O227  O     O_2   0.189305 0.464614 0.687960 -0.124212
O228  O     O_2   0.174052 0.464384 0.780033 -0.351274
O229  O     O_3   0.255944 0.435777 0.748351 -0.406320
H75   H     H_    0.258775 0.420622 0.782472 0.362248
S60   S     S_3+6 0.829748 0.590761 0.340029 0.110852
O230  O     O_2   0.821353 0.539429 0.327527 -0.222262
O231  O     O_2   0.876476 0.596331 0.366852 -0.266089
O232  O     O_3   0.786782 0.609711 0.379776 -0.467151
H76   H     H_    0.792281 0.592435 0.412268 0.393377
S61   S     S_3+6 0.559001 0.196279 0.718997 0.147463
O233  O     O_2   0.547170 0.180153 0.665867 -0.181470
O234  O     O_2   0.523393 0.176012 0.756019 -0.281054
O235  O     O_3   0.554609 0.255693 0.721318 -0.397671
H77   H     H_    0.559535 0.263882 0.757791 0.367608
S62   S     S_3+6 0.392114 0.837848 0.342792 0.106010
O236  O     O_2   0.444172 0.827487 0.345732 -0.166335
O237  O     O_2   0.383146 0.887773 0.359639 -0.344697
O238  O     O_3   0.362902 0.801201 0.382519 -0.466898
H78   H     H_    0.374464 0.809405 0.417188 0.385120
S63   S     S_3+6 0.808132 0.565262 0.783176 0.094465
O239  O     O_2   0.804501 0.527194 0.743186 -0.218692
O240  O     O_2   0.844191 0.550078 0.822154 -0.325397
O241  O     O_3   0.755589 0.571229 0.813085 -0.401479
H79   H     H_    0.760839 0.596111 0.839210 0.369020
S64   S     S_3+6 0.153110 0.396908 0.352801 0.144091
O242  O     O_2   0.169255 0.447564 0.350219 -0.169216
O243  O     O_2   0.101717 0.395403 0.368232 -0.259235
O244  O     O_3   0.184652 0.368233 0.397765 -0.454834
H80   H     H_    0.183011 0.388837 0.428425 0.402986
O245  O     O_3   0.475025 0.895564 0.582559 -0.660295
H81   H     H_    0.461210 0.863313 0.585029 0.358121
O246  O     O_3   0.593900 0.018309 0.407681 -0.726325
H82   H     H_    0.589587 0.040635 0.378970 0.372852
O247  O     O_3   0.959004 0.411077 0.585766 -0.728641
H83   H     H_    0.948062 0.378118 0.580339 0.379826
O248  O     O_3   0.106611 0.514827 0.417040 -0.653054
H84   H     H_    0.137658 0.529598 0.409119 0.369569
O249  O     O_3   0.519493 0.104412 0.578576 -0.653141
H85   H     H_    0.534741 0.135894 0.581537 0.376992
O250  O     O_3   0.405322 0.976549 0.405513 -0.755471
H86   H     H_    0.371801 0.967039 0.400612 0.370089
O251  O     O_3   0.036493 0.589909 0.597246 -0.732528
H87   H     H_    0.051421 0.620979 0.604116 0.385858
O252  O     O_3   0.894197 0.515403 0.421641 -0.658090
H88   H     H_    0.860991 0.506754 0.413636 0.365143
O253  O     O_3   0.091511 0.470853 0.100905 -0.769363
H89   H     H_    0.121557 0.455473 0.111355 0.357748
O254  O     O_3   0.998689 0.606848 0.920884 -0.657319
H90   H     H_    0.985142 0.638342 0.912642 0.361393
O255  O     O_3   0.431291 0.075910 0.102745 -0.740143
H91   H     H_    0.402668 0.093994 0.112977 0.341730
O256  O     O_3   0.545083 0.914610 0.919775 -0.716545
H92   H     H_    0.560314 0.883429 0.925381 0.382027
O257  O     O_3   0.912036 0.533111 0.092878 -0.720441
H93   H     H_    0.900862 0.559886 0.114221 0.386980
O258  O     O_3   0.035115 0.399258 0.913391 -0.667968
H94   H     H_    0.053849 0.370367 0.905859 0.352417
O259  O     O_3   0.605425 0.024327 0.081024 -0.643694
H95   H     H_    0.634595 0.010241 0.095668 0.378966
O260  O     O_3   0.454458 0.084916 0.895415 -0.763185
H96   H     H_    0.434693 0.111704 0.883707 0.381284

loop_
_geom_bond_atom_site_label_1
_geom_bond_atom_site_label_2
_ccdc_geom_bond_type
C95   C124  A    
O2    Zn2   S    
O9    Zn16  S    
S10   O81   D    
C105  C110  A    
C11   C171  A    
S17   O101  D    
O48   Zn2   S    
O22   Zn15  S    
C192  S32   S    
C10   C184  A    
O238  H78   S    
C91   O255  S    
C9    C169  A    
O184  H60   S    
C11   C181  A    
C116  O8    A    
S23   O121  S    
O175  H57   S    
O14   Zn3   S    
C81   C134  A    
C12   C172  A    
S57   O221  D    
O67   H21   S    
S53   O211  S    
C13   C173  A    
C66   C79   T    
S2    O56   D    
O253  H89   S    
C62   C152  S    
O139  H45   S    
C184  S24   S    
C2    C192  A    
C152  O36   A    
C3    C189  A    
S54   O212  D    
S38   O165  D    
C40   S56   S    
S10   O82   S    
C117  C159  S    
C6    C188  A    
S20   O110  D    
C38   S54   S    
S60   O231  D    
O205  H67   S    
C107  C112  A    
S27   O133  S    
C170  S10   S    
O35   Zn13  S    
S21   O115  S    
C8    C168  A    
C88   C104  A    
O73   H23   S    
C118  C160  S    
S56   O220  S    
C125  C153  A    
O235  H77   S    
C36   C180  A    
S3    O60   D    
S62   O236  D    
O17   Zn8   S    
C116  C154  S    
S1    O54   D    
C169  S9    S    
C48   C50   A    
C20   S36   S    
O2    Zn6   S    
C115  C153  S    
C120  C158  S    
C82   C98   A    
C26   S42   S    
C36   C62   A    
C183  S23   S    
C102  H2    S    
C114  C156  S    
S13   O89   D    
S6    O69   D    
C59   C149  S    
S46   O189  D    
C135  C159  A    
O85   H27   S    
O31   Zn9   S    
C84   C100  A    
C91   C107  A    
O91   H29   S    
S24   O123  D    
C111  H11   S    
S49   O198  D    
S14   O92   D    
C181  S21   S    
S33   O149  D    
O248  H84   S    
C16   C80   S    
S31   O143  D    
S9    O79   S    
S35   O156  D    
C31   C63   A    
S49   O199  S    
C92   O256  S    
O100  H32   S    
C43   C187  A    
S61   O235  S    
C37   C181  A    
S48   O194  D    
S62   O238  S    
C119  O15   A    
S58   O224  D    
C115  O7    A    
S43   O180  D    
O55   H17   S    
C23   C55   A    
C137  O47   A    
C124  C127  A    
C23   C167  A    
C126  C154  A    
S40   O172  S    
C43   S59   S    
O223  H73   S    
S39   O168  D    
S17   O103  S    
S42   O177  D    
C57   C147  S    
C45   S61   S    
S37   O163  S    
O181  H59   S    
C112  H12   S    
O52   Zn6   S    
S23   O119  D    
O16   Zn5   S    
S13   O91   S    
O20   Zn1   S    
S11   O84   D    
S33   O151  S    
C68   C77   T    
C64   C146  S    
C148  O32   A    
C72   C73   T    
S14   O94   S    
C106  H14   S    
O112  H36   S    
C108  C111  A    
C150  O44   A    
C24   C56   A    
S42   O178  S    
O255  H91   S    
C55   C137  S    
S20   O112  S    
C110  H10   S    
S25   O126  D    
S41   O174  D    
O257  H93   S    
O33   Zn15  S    
C189  S29   S    
S28   O135  D    
S19   O109  S    
C50   C140  S    
O154  H50   S    
S47   O192  D    
C128  C156  A    
C39   S55   S    
O88   H28   S    
C22   C166  A    
S52   O206  D    
C26   C170  A    
C141  O25   A    
S59   O229  S    
O27   Zn14  S    
O24   Zn9   S    
C139  O23   A    
C176  S16   S    
C53   C143  S    
O247  H83   S    
O106  H34   S    
C18   S34   S    
C14   C180  A    
O19   Zn2   S    
C93   O257  S    
O115  H37   S    
C24   S40   S    
S51   O205  S    
C84   C135  A    
O249  H85   S    
O7    Zn14  S    
C146  O40   A    
C118  O14   A    
C114  O6    A    
O250  H86   S    
O49   Zn7   S    
C108  H16   S    
O13   Zn4   S    
O50   Zn8   S    
C2    C162  A    
C152  O42   A    
O251  H87   S    
C22   C54   A    
O245  H81   S    
C118  O18   A    
S31   O144  D    
C27   S43   S    
S28   O134  D    
O61   H19   S    
C165  S5    S    
O217  H71   S    
C166  S6    S    
S18   O104  D    
O260  H96   S    
S16   O100  S    
C94   O258  S    
S8    O74   D    
C69   C76   T    
C92   C108  A    
C49   C139  S    
C15   C79   S    
O252  H88   S    
O166  H54   S    
S33   O150  D    
C167  S7    S    
C116  O12   A    
C119  C157  S    
O18   Zn7   S    
O45   Zn3   S    
S56   O219  D    
O46   Zn4   S    
C120  O16   A    
S1    O53   D    
O36   Zn14  S    
C182  S22   S    
O97   H31   S    
C23   S39   S    
C114  O10   A    
O3    Zn7   S    
O103  H33   S    
S29   O138  D    
C16   C178  A    
O214  H70   S    
C51   C141  S    
C35   C179  A    
C29   C61   A    
C145  O39   A    
C33   C177  A    
C97   H5    S    
C138  O22   A    
S55   O217  S    
S40   O170  D    
C32   C64   A    
C131  C136  A    
C17   C49   A    
C164  S4    S    
O169  H55   S    
C60   C150  S    
C8    C186  A    
C151  O35   A    
S48   O195  D    
S45   O186  D    
C186  S26   S    
O178  H58   S    
C187  S27   S    
O244  H80   S    
O43   Zn6   S    
S52   O208  S    
C185  S25   S    
C33   C63   A    
C34   C64   A    
C188  S28   S    
O133  H43   S    
C35   C61   A    
C19   C163  A    
C131  C159  A    
C61   C151  S    
O4    Zn8   S    
C83   C136  A    
C37   C59   A    
C17   C161  A    
C38   C60   A    
C100  H8    S    
C134  C158  A    
O70   H22   S    
C180  S20   S    
S30   O140  D    
O202  H66   S    
S13   O90   D    
O196  H64   S    
C86   C102  A    
C92   C127  A    
C33   S49   S    
S26   O128  D    
S37   O161  D    
C7    C167  A    
S54   O214  S    
C107  H15   S    
C7    C185  A    
S28   O136  S    
O127  H41   S    
S23   O120  D    
C171  S11   S    
O1    Zn1   S    
C147  O31   A    
S53   O210  D    
S2    O57   D    
C38   C182  A    
S8    O76   S    
S7    O73   S    
C122  C125  A    
C15   C177  A    
C11   C75   S    
S25   O125  D    
S15   O97   S    
S54   O213  D    
S38   O166  S    
S20   O111  D    
C99   C104  A    
C133  C157  A    
S27   O132  D    
S63   O241  S    
C81   O245  S    
S21   O114  D    
C88   O252  S    
S50   O200  D    
O232  H76   S    
C136  C160  A    
C44   C54   A    
O160  H52   S    
S30   O142  S    
S1    O55   S    
C89   C105  A    
S43   O179  D    
C30   C174  A    
S62   O237  D    
C88   C131  A    
C40   C184  A    
S34   O152  D    
C63   C145  S    
C93   C109  A    
C106  C109  A    
C54   C144  S    
C6    C166  A    
S22   O116  D    
O3    Zn14  S    
S55   O215  D    
C143  O49   A    
S12   O88   S    
O25   Zn12  S    
O26   Zn11  S    
O21   Zn16  S    
C123  C155  A    
O1    Zn5   S    
O10   Zn15  S    
C121  C153  A    
O211  H69   S    
C113  C155  S    
S64   O244  S    
S34   O154  S    
S49   O197  D    
S14   O93   D    
C20   C164  A    
O23   Zn10  S    
C37   S53   S    
C21   C165  A    
S44   O182  D    
O28   Zn13  S    
O151  H49   S    
C36   S52   S    
S9    O78   D    
C41   C55   A    
O15   Zn6   S    
C5    C69   S    
C42   C56   A    
C85   O249  S    
C43   C53   A    
O1    Zn12  S    
C12   C182  A    
S19   O107  D    
S61   O234  D    
S16   O99   D    
S58   O225  D    
O8    Zn13  S    
C96   O260  S    
C120  O20   A    
C97   C102  A    
C96   C123  A    
C3    C163  A    
C16   C176  A    
S32   O147  D    
S10   O80   D    
C1    C161  A    
O76   H24   S    
S17   O102  D    
O142  H46   S    
C83   C99   A    
S37   O162  D    
C32   S48   S    
C103  H3    S    
S36   O160  S    
C138  O48   A    
C190  S30   S    
C101  H1    S    
O109  H35   S    
C89   C126  A    
S57   O222  D    
C177  S17   S    
C83   O247  S    
C163  S3    S    
C8    C72   S    
S58   O226  S    
C91   C128  A    
C144  O28   A    
C119  O19   A    
S7    O71   D    
C40   C58   A    
C93   C122  A    
C90   C106  A    
C137  O21   A    
S25   O127  S    
C127  C155  A    
S15   O95   D    
C29   S45   S    
S38   O164  D    
S64   O242  D    
S47   O193  S    
S22   O118  S    
C2    C66   S    
O229  H75   S    
O226  H74   S    
C94   C110  A    
C100  C103  A    
S35   O155  D    
C19   S35   S    
S60   O230  D    
C168  S8    S    
S63   O239  D    
O58   H18   S    
C9    C183  A    
C85   C130  A    
C4    C190  A    
C32   C176  A    
S3    O59   D    
O1    Zn16  S    
C148  O38   A    
C4    C68   S    
C104  H4    S    
S3    O61   S    
S19   O108  D    
S5    O66   D    
O12   Zn9   S    
C26   C58   A    
C42   S58   S    
C1    C191  A    
S52   O207  D    
C140  O24   A    
C30   C62   A    
O4    Zn13  S    
C34   C178  A    
C130  C133  A    
C140  O46   A    
C5    C187  A    
O64   H20   S    
C18   C50   A    
C172  S12   S    
O259  H95   S    
S51   O204  D    
S46   O188  D    
C24   C168  A    
O118  H38   S    
S40   O171  D    
S24   O122  D    
C71   C74   T    
O124  H40   S    
C105  H13   S    
O121  H39   S    
C10   C170  A    
C98   C101  A    
O3    Zn3   S    
S44   O184  S    
C130  C158  A    
C48   S64   S    
C82   C133  A    
C109  H9    S    
S57   O223  S    
S35   O157  S    
O34   Zn16  S    
S11   O83   D    
C14   C174  A    
S59   O228  D    
C18   C162  A    
S18   O105  D    
C95   O259  S    
O5    Zn12  S    
C90   C125  A    
S8    O75   D    
O6    Zn11  S    
S43   O181  S    
C25   S41   S    
O41   Zn4   S    
C47   C191  A    
O82   H26   S    
O42   Zn3   S    
C48   C192  A    
O11   Zn10  S    
C129  C134  A    
C94   C121  A    
C21   S37   S    
C150  O34   A    
S39   O169  S    
O163  H53   S    
S42   O176  D    
C99   H7    S    
O254  H90   S    
C161  S1    S    
O187  H61   S    
C175  S15   S    
C39   C183  A    
C82   O246  S    
C87   O251  S    
S46   O190  S    
C149  O43   A    
S48   O196  S    
S5    O65   D    
C162  S2    S    
C117  O13   A    
O258  H94   S    
C27   C59   A    
C113  O5    A    
O220  H72   S    
C129  C157  A    
S29   O137  D    
C31   S47   S    
S47   O191  D    
C151  O41   A    
C31   C175  A    
S2    O58   S    
S36   O158  D    
C96   C112  A    
S6    O70   S    
C117  O17   A    
O190  H62   S    
C132  C160  A    
O208  H68   S    
C28   S44   S    
S60   O232  S    
S18   O106  S    
S4    O62   D    
C139  O45   A    
O246  H82   S    
S12   O87   D    
S41   O175  S    
C7    C71   S    
C58   C148  S    
C45   C51   A    
O32   Zn10  S    
S51   O203  D    
C39   C57   A    
C46   C52   A    
S45   O185  D    
C143  O27   A    
S12   O86   D    
C178  S18   S    
O145  H47   S    
C30   S46   S    
C35   S51   S    
O2    Zn11  S    
C174  S14   S    
C145  O29   A    
O3    Zn10  S    
O256  H92   S    
C4    C164  A    
C84   O248  S    
C5    C165  A    
S50   O202  S    
C144  O50   A    
C191  S31   S    
C42   C186  A    
O4    Zn4   S    
O157  H51   S    
C65   C80   T    
S16   O98   D    
S30   O141  D    
C122  C154  A    
C115  O11   A    
C67   C78   T    
C9    C73   S    
C46   C190  A    
S24   O124  S    
C113  O9    A    
C28   C172  A    
S26   O129  D    
S32   O148  S    
C141  O51   A    
S31   O145  S    
C13   C77   S    
C98   H6    S    
C25   C57   A    
S39   O167  D    
O47   Zn1   S    
S41   O173  D    
S64   O243  D    
O172  H56   S    
O241  H79   S    
O199  H65   S    
S53   O209  D    
C13   C179  A    
S4    O63   D    
C52   C142  S    
S7    O72   D    
C87   C132  A    
O193  H63   S    
O51   Zn5   S    
S15   O96   D    
S26   O130  S    
C56   C138  S    
C1    C65   S    
O136  H44   S    
S27   O131  D    
O2    Zn15  S    
C41   C185  A    
O29   Zn11  S    
C142  O52   A    
O30   Zn12  S    
S63   O240  D    
C17   S33   S    
S21   O113  D    
C28   C60   A    
S50   O201  D    
C44   C188  A    
C45   C189  A    
S56   O218  D    
C146  O30   A    
C124  C156  A    
S55   O216  D    
S5    O67   S    
C87   C103  A    
O37   Zn8   S    
C34   S50   S    
S34   O153  D    
O38   Zn7   S    
C27   C171  A    
C70   C75   T    
S29   O139  S    
C85   C101  A    
C22   S38   S    
C25   C169  A    
S6    O68   D    
S32   O146  D    
S22   O117  D    
C89   O253  S    
C6    C70   S    
S4    O64   S    
C3    C67   S    
C29   C173  A    
S59   O227  D    
S11   O85   S    
C86   C129  A    
C47   C49   A    
C15   C175  A    
S45   O187  S    
O79   H25   S    
S36   O159  D    
C12   C76   S    
C121  C126  A    
C20   C52   A    
C95   C111  A    
C21   C53   A    
C10   C74   S    
C123  C128  A    
C47   S63   S    
C81   C97   A    
O4    Zn9   S    
C44   S60   S    
C132  C135  A    
S44   O183  D    
O130  H42   S    
C14   C78   S    
S9    O77   D    
C90   O254  S    
C46   S62   S    
O39   Zn2   S    
C86   O250  S    
O148  H48   S    
C19   C51   A    
O44   Zn5   S    
C142  O26   A    
C147  O37   A    
C149  O33   A    
S61   O233  D    
C41   S57   S    
C179  S19   S    
O94   H30   S    
O40   Zn1   S    
C173  S13   S    
