data_mof_unit_12426.cif
_audit_creation_date              2012-12-10T16:55:44-0500
_audit_creation_method            fapswitch 2.2
_symmetry_space_group_name_H-M    P1
_symmetry_Int_Tables_number       1
_space_group_crystal_system       triclinic
_cell_length_a                    7.895818
_cell_length_b                    8.538926
_cell_length_c                    10.462821
_cell_angle_alpha                 92.474631
_cell_angle_beta                  85.243499
_cell_angle_gamma                 92.42606
_cell_volume                      701.805155052

loop_
_atom_site_label
_atom_site_type_symbol
_atom_type_description
_atom_site_fract_x
_atom_site_fract_y
_atom_site_fract_z
_atom_type_partial_charge
C1    C     C_R   0.543085 0.793769 0.495510 0.964090
C2    C     C_R   0.456917 0.206232 0.504489 0.964084
C3    C     C_R   0.501154 0.500470 0.742127 0.881468
C4    C     C_R   0.498846 0.499530 0.257873 0.881448
C5    C     C_3   0.439329 0.635595 0.965960 -0.161556
C6    C     C_3   0.560671 0.364405 0.034040 -0.161555
C7    C     C_3   0.597712 0.621535 0.041220 -0.160629
C8    C     C_3   0.402288 0.378465 0.958780 -0.160617
C9    C     C_3   0.497147 0.499898 0.122756 0.015946
C10   C     C_3   0.502853 0.500102 0.877244 0.015945
C11   C     C_3   0.338589 0.513961 0.050237 -0.149160
C12   C     C_3   0.661411 0.486039 0.949763 -0.149157
C13   C     C_2   0.556095 0.952601 0.468257 -0.002108
C14   C     C_2   0.443916 0.047402 0.531749 -0.002105
H1    H     H_    0.676876 0.720366 0.079689 0.184288
H2    H     H_    0.323123 0.279634 0.920311 0.184300
H3    H     H_    0.390447 0.745850 0.933223 0.178363
H4    H     H_    0.609553 0.254150 0.066777 0.178354
H5    H     H_    0.207054 0.525166 0.095293 0.160471
H6    H     H_    0.792946 0.474834 0.904707 0.160471
N1    N     N_2   0.950320 0.457950 0.465730 -0.021101
N2    N     N_2   0.049680 0.542050 0.534270 -0.021095
O1    O     O_R   0.389250 0.738570 0.508410 -0.593592
O2    O     O_R   0.610750 0.261430 0.491590 -0.593538
O3    O     O_R   0.678390 0.711620 0.486450 -0.624020
O4    O     O_R   0.321610 0.288380 0.513550 -0.623982
O5    O     O_R   0.355460 0.513510 0.697030 -0.602652
O6    O     O_R   0.644540 0.486490 0.302970 -0.602664
O7    O     O_R   0.644600 0.486560 0.675070 -0.643694
O8    O     O_R   0.355400 0.513440 0.324930 -0.643713
Zn1   Zn    Zn3+2 0.306940 0.517990 0.514670 0.976194
Zn2   Zn    Zn3+2 0.693060 0.482010 0.485330 0.976194
C15   C     C_3   0.009412 0.311382 0.409832 -0.435359
H7    H     H_    0.914843 0.263336 0.344970 0.216273
H8    H     H_    0.128836 0.327207 0.348885 0.201833
H9    H     H_    0.018844 0.226094 0.485761 0.215902
C16   C     C_3   0.990577 0.688641 0.590114 -0.435369
H10   H     H_    0.085278 0.736853 0.654852 0.216386
H11   H     H_    0.980916 0.773835 0.514106 0.215954
H12   H     H_    0.871233 0.672771 0.651197 0.201801
Br1   Br    Br    0.686744 0.000739 0.309214 -0.601042
Br2   Br    Br    0.313321 0.999281 0.690821 -0.601055

loop_
_geom_bond_atom_site_label_1
_geom_bond_atom_site_label_2
_ccdc_geom_bond_type
C16   H11   S    
O2    Zn2   S    
C1    O1    A    
C16   H10   S    
O7    Zn2   S    
C14   Br2   S    
C12   H6    S    
C6    C9    S    
C3    O5    A    
C15   H7    S    
C5    C10   S    
C2    O4    A    
C3    C10   S    
C13   C14   D    
C5    H3    S    
C1    O3    A    
C9    C11   S    
C11   H5    S    
C7    C12   S    
C10   C12   S    
O3    Zn2   S    
C8    C11   S    
C2    C14   S    
C6    C12   S    
C13   Br1   S    
C15   H8    S    
C5    C11   S    
C16   H12   S    
C5    C7    S    
C2    O2    A    
O8    Zn1   S    
C6    H4    S    
N1    Zn2   S    
C1    C13   S    
N2    Zn1   S    
O5    Zn1   S    
O6    Zn2   S    
C15   H9    S    
N1    C15   S    
C8    C10   S    
C8    H2    S    
C7    C9    S    
C3    O7    A    
C6    C8    S    
C7    H1    S    
C4    O6    A    
C4    C9    S    
N1    N2    D    
N2    C16   S    
O4    Zn1   S    
C4    O8    A    
O1    Zn1   S    
