data_mof_unit_32032.cif
_audit_creation_date              2012-12-10T19:10:28-0500
_audit_creation_method            fapswitch 2.2
_symmetry_space_group_name_H-M    P1
_symmetry_Int_Tables_number       1
_space_group_crystal_system       triclinic
_cell_length_a                    10.752236
_cell_length_b                    9.788144
_cell_length_c                    15.752993
_cell_angle_alpha                 90.376023
_cell_angle_beta                  90.69803
_cell_angle_gamma                 90.377517
_cell_volume                      1657.71922993

loop_
_atom_site_label
_atom_site_type_symbol
_atom_type_description
_atom_site_fract_x
_atom_site_fract_y
_atom_site_fract_z
_atom_type_partial_charge
C1    C     C_R   0.258105 0.499689 0.493167 0.937976
C2    C     C_3   0.926526 0.353805 0.467839 0.286248
C3    C     C_3   0.066521 0.611702 0.425241 1.019380
C4    C     C_3   0.120733 0.500128 0.489256 -0.262700
C5    C     C_3   0.877595 0.499206 0.496594 -0.285925
C6    C     C_R   0.503426 0.499758 0.338456 0.845301
C7    C     C_3   0.923052 0.609925 0.434533 -0.523252
C8    C     C_3   0.376413 0.079821 0.475101 -0.318237
C9    C     C_3   0.378005 0.918508 0.470796 -0.264325
C10   C     C_3   0.595218 0.079892 0.439668 0.464074
C11   C     C_3   0.597503 0.916748 0.440573 0.441720
C12   C     C_3   0.625727 0.580719 0.953063 0.909217
C13   C     C_3   0.528930 0.082103 0.583870 -0.397605
C14   C     C_3   0.525269 0.920424 0.584277 -0.383927
C15   C     C_R   0.742031 0.499990 0.500253 0.991860
C16   C     C_R   0.501914 0.500294 0.661453 0.899523
C17   C     C_3   0.374925 0.570870 0.046164 0.322762
C18   C     C_3   0.520948 0.352816 0.047962 0.366014
C19   C     C_3   0.511332 0.349175 0.949794 0.253305
C20   C     C_3   0.389000 0.582070 0.948142 0.294270
C21   C     C_1   0.506023 0.500514 0.750077 -0.182181
C22   C     C_3   0.495560 0.500794 0.082872 -0.050318
C23   C     C_3   0.607855 0.590978 0.053379 -0.796655
C24   C     C_3   0.506609 0.501096 0.916755 -0.130559
C25   C     C_3   0.223331 0.451994 0.882001 -0.190319
C26   C     C_3   0.443194 0.138190 0.895717 -0.338936
C27   C     C_3   0.889737 0.766636 0.612291 -0.176329
C28   C     C_3   0.840431 0.352117 0.325963 -0.147016
C29   C     C_3   0.068972 0.847010 0.390291 -0.446422
C30   C     C_3   0.215081 0.592381 0.314293 -0.237184
C31   C     C_3   0.508483 0.107966 0.297174 -0.165182
C32   C     C_3   0.697109 0.852608 0.315385 -0.343108
C33   C     C_3   0.162273 0.593268 0.074735 -0.350231
C34   C     C_1   0.508041 0.500169 0.825228 0.146268
C35   C     C_3   0.343545 0.237825 0.106060 -0.162152
C36   C     C_3   0.669705 0.824608 0.954558 -0.409336
C37   C     C_3   0.846226 0.567961 0.942665 -0.262669
C38   C     C_3   0.163432 0.645804 0.700387 -0.190654
C39   C     C_3   0.111704 0.182812 0.359769 -0.270307
C40   C     C_1   0.496234 0.500618 0.174392 0.059724
C41   C     C_1   0.499942 0.499747 0.249613 -0.217534
C42   C     C_3   0.078923 0.529291 0.583146 0.203742
C43   C     C_3   0.070119 0.355077 0.460693 0.218667
C44   C     C_3   0.934481 0.527628 0.587319 0.268718
H1    H     H_    0.888132 0.710903 0.453790 0.177483
H2    H     H_    0.376479 0.676886 0.073359 0.052637
H3    H     H_    0.591712 0.696050 0.077004 0.193139
H4    H     H_    0.694200 0.557650 0.086640 0.212529
H5    H     H_    0.113725 0.440911 0.621488 0.009074
H6    H     H_    0.108002 0.279960 0.507312 0.048285
H7    H     H_    0.215490 0.388903 0.939413 0.236347
H8    H     H_    0.271150 0.398773 0.829506 0.190426
H9    H     H_    0.126571 0.468126 0.859501 0.116346
H10   H     H_    0.357999 0.077523 0.881182 0.186159
H11   H     H_    0.495106 0.085182 0.947120 0.193185
H12   H     H_    0.878702 0.597387 0.371638 0.149056
H13   H     H_    0.499560 0.142479 0.837044 0.163062
H14   H     H_    0.969987 0.789218 0.571872 0.222166
H15   H     H_    0.899353 0.832620 0.669522 0.152230
H16   H     H_    0.804161 0.798018 0.578950 0.138662
H17   H     H_    0.924747 0.403853 0.302389 0.214052
H18   H     H_    0.760962 0.422675 0.332260 0.139458
H19   H     H_    0.812650 0.276753 0.276270 0.166066
H20   H     H_    0.007759 0.810090 0.337341 0.187402
H21   H     H_    0.149574 0.898221 0.360962 0.171792
H22   H     H_    0.015321 0.922665 0.427296 0.173305
H23   H     H_    0.343383 0.124423 0.415148 0.166515
H24   H     H_    0.262651 0.493947 0.323531 0.186654
H25   H     H_    0.265926 0.677137 0.346313 0.188280
H26   H     H_    0.217946 0.613784 0.245841 0.177635
H27   H     H_    0.444915 0.024364 0.314138 0.139398
H28   H     H_    0.556236 0.077419 0.238073 0.190648
H29   H     H_    0.450347 0.197159 0.281203 0.175157
H30   H     H_    0.748551 0.761543 0.336154 0.165969
H31   H     H_    0.755589 0.945923 0.324663 0.167705
H32   H     H_    0.677716 0.840840 0.246389 0.179539
H33   H     H_    0.621897 0.119105 0.606119 0.153487
H34   H     H_    0.354608 0.882009 0.405857 0.172362
H35   H     H_    0.614289 0.880923 0.610026 0.164852
H36   H     H_    0.461507 0.121432 0.630999 0.199587
H37   H     H_    0.452525 0.885390 0.628999 0.203930
H38   H     H_    0.084045 0.539396 0.105675 0.188897
H39   H     H_    0.129462 0.623630 0.010736 0.209008
H40   H     H_    0.183067 0.686704 0.112882 0.142042
H41   H     H_    0.287431 0.257873 0.048464 0.230870
H42   H     H_    0.321470 0.308174 0.159075 0.191700
H43   H     H_    0.315842 0.134424 0.127493 0.117657
H44   H     H_    0.599596 0.304158 0.925398 0.110284
H45   H     H_    0.306630 0.112253 0.522686 0.168805
H46   H     H_    0.416421 0.690957 0.940425 0.113464
H47   H     H_    0.587990 0.869195 0.986661 0.162866
H48   H     H_    0.704328 0.902568 0.909693 0.198473
H49   H     H_    0.746011 0.805082 0.000767 0.165987
H50   H     H_    0.860854 0.611478 0.007214 0.127369
H51   H     H_    0.856410 0.647209 0.893037 0.216373
H52   H     H_    0.921625 0.493046 0.932735 0.163175
H53   H     H_    0.240967 0.572991 0.710242 0.149755
H54   H     H_    0.081702 0.616373 0.738928 0.177714
H55   H     H_    0.195897 0.747831 0.722652 0.175920
H56   H     H_    0.303582 0.878552 0.512380 0.231609
H57   H     H_    0.022839 0.149143 0.329895 0.199890
H58   H     H_    0.131045 0.119922 0.416492 0.128507
H59   H     H_    0.185432 0.162504 0.312778 0.138041
H60   H     H_    0.912857 0.434050 0.624271 0.051429
H61   H     H_    0.909260 0.286113 0.523061 0.047804
H62   H     H_    0.687184 0.108948 0.467875 0.079311
H63   H     H_    0.689145 0.884871 0.467774 -0.000831
H64   H     H_    0.622312 0.338530 0.060540 0.096568
N1    N     N_3   0.499750 0.138610 0.498180 -0.082700
N2    N     N_3   0.499750 0.861390 0.498180 -0.084814
O1    O     O_R   0.314910 0.616040 0.499980 -0.566741
O2    O     O_3   0.407838 0.270719 0.921266 -0.619808
O3    O     O_3   0.877840 0.629808 0.639085 -0.581621
O4    O     O_3   0.861305 0.280581 0.402049 -0.582044
O5    O     O_3   0.112643 0.744643 0.446596 -0.607434
O6    O     O_3   0.089839 0.578956 0.338177 -0.647417
O7    O     O_3   0.599975 0.145367 0.358853 -0.576470
O8    O     O_3   0.582734 0.859239 0.358278 -0.584318
O9    O     O_3   0.264430 0.502814 0.070469 -0.617526
O10   O     O_3   0.472035 0.236127 0.090478 -0.638390
O11   O     O_3   0.633227 0.707561 0.907308 -0.608031
O12   O     O_R   0.314910 0.383960 0.499980 -0.641769
O13   O     O_3   0.731324 0.498259 0.934328 -0.653479
O14   O     O_3   0.131757 0.654096 0.613507 -0.560435
O15   O     O_3   0.110425 0.324362 0.377166 -0.552809
O16   O     O_R   0.500120 0.616090 0.377110 -0.575131
O17   O     O_R   0.500120 0.383910 0.377110 -0.570291
O18   O     O_R   0.685320 0.616040 0.499960 -0.623531
O19   O     O_R   0.685320 0.383960 0.499960 -0.599613
O20   O     O_R   0.500110 0.615990 0.622830 -0.605272
O21   O     O_R   0.500110 0.384010 0.622830 -0.639443
O22   O     O_3   0.277614 0.580946 0.897777 -0.638735
Zn1   Zn    Zn3+2 0.500150 0.654960 0.499960 0.970587
Zn2   Zn    Zn3+2 0.500150 0.345040 0.499960 0.954265

loop_
_geom_bond_atom_site_label_1
_geom_bond_atom_site_label_2
_ccdc_geom_bond_type
C16   C21   S    
C39   O15   S    
C18   O10   S    
C2    O4    S    
O17   Zn2   S    
C38   H54   S    
O21   Zn2   S    
C26   H11   S    
C43   O15   S    
C32   H31   S    
C44   H60   S    
C42   O14   S    
C30   O6    S    
C19   O2    S    
C12   C23   S    
C7    H1    S    
C25   H9    S    
C6    O17   A    
C25   O22   S    
C3    C7    S    
C3    O6    S    
C32   H30   S    
C35   H42   S    
C31   H29   S    
C17   C20   S    
C37   H51   S    
C10   N1    S    
C18   C19   S    
C16   O21   A    
C1    O12   A    
C31   O7    S    
C13   N1    S    
C37   O13   S    
C35   H43   S    
C36   H49   S    
O12   Zn2   S    
C12   O11   S    
C20   C24   S    
O16   Zn1   S    
C8    C9    S    
C6    C41   S    
C16   O20   A    
C33   H38   S    
C28   H17   S    
C36   H48   S    
C31   H27   S    
C29   O5    S    
C29   H20   S    
C13   C14   S    
C11   N2    S    
C35   O10   S    
C42   C44   S    
C7    H12   S    
C20   O22   S    
C38   H53   S    
C26   H10   S    
C30   H26   S    
C39   H57   S    
C13   H33   S    
C23   H3    S    
C17   H2    S    
C6    O16   A    
C19   H44   S    
C5    C7    S    
O1    Zn1   S    
C21   C34   T    
C20   H46   S    
C24   C34   S    
C29   H22   S    
C37   H52   S    
C25   H7    S    
C15   O19   A    
C2    C43   S    
C5    C15   S    
C22   C40   S    
C14   H35   S    
C33   H39   S    
C28   O4    S    
C29   H21   S    
C27   O3    S    
C36   H47   S    
C31   H28   S    
C5    C44   S    
C44   O3    S    
C33   O9    S    
C9    H56   S    
C15   O18   A    
C11   H63   S    
C10   H62   S    
O20   Zn1   S    
C3    C4    S    
C26   O2    S    
C30   H25   S    
C39   H58   S    
C9    N2    S    
C14   N2    S    
C40   C41   T    
C23   H4    S    
N1    Zn2   S    
C18   C22   S    
C32   O8    S    
C38   H55   S    
C27   H14   S    
C32   H32   S    
C43   H6    S    
C39   H59   S    
C30   H24   S    
C4    C43   S    
C12   C24   S    
C2    H61   S    
C17   C22   S    
C27   H16   S    
C1    C4    S    
C36   O11   S    
C25   H8    S    
C10   O7    S    
C3    O5    S    
O18   Zn1   S    
C1    O1    A    
C35   H41   S    
C12   O13   S    
C4    C42   S    
C37   H50   S    
C19   C24   S    
C9    H34   S    
C26   H13   S    
C18   H64   S    
C13   H36   S    
C10   C11   S    
C17   O9    S    
C42   H5    S    
O19   Zn2   S    
C2    C5    S    
C28   H19   S    
C33   H40   S    
C8    H23   S    
C22   C23   S    
N2    Zn1   S    
C27   H15   S    
C8    H45   S    
C14   H37   S    
C8    N1    S    
C11   O8    S    
C38   O14   S    
C28   H18   S    
