data_mof_unit_43010.cif
_audit_creation_date              2012-12-10T16:48:47-0500
_audit_creation_method            fapswitch 2.2
_symmetry_space_group_name_H-M    P1
_symmetry_Int_Tables_number       1
_space_group_crystal_system       triclinic
_cell_length_a                    17.206402
_cell_length_b                    8.731493
_cell_length_c                    7.409205
_cell_angle_alpha                 102.459103
_cell_angle_beta                  89.5483
_cell_angle_gamma                 92.436112
_cell_volume                      1085.94355923

loop_
_atom_site_label
_atom_site_type_symbol
_atom_type_description
_atom_site_fract_x
_atom_site_fract_y
_atom_site_fract_z
_atom_type_partial_charge
C1    C     C_R   0.500599 0.200478 0.454440 0.841346
C2    C     C_R   0.499390 0.799058 0.545503 0.879372
C3    C     C_2   0.511172 0.035360 0.432873 0.003960
C4    C     C_2   0.486568 0.962311 0.567457 0.013604
C5    C     C_R   0.350892 0.501830 0.527706 0.806940
C6    C     C_R   0.649162 0.506266 0.473506 0.817608
C7    C     C_R   0.266424 0.510686 0.551220 -0.117102
C8    C     C_R   0.733615 0.533803 0.455924 -0.089037
C9    C     C_R   0.215663 0.417072 0.418298 0.086040
C10   C     C_R   0.775103 0.633725 0.603191 0.100966
C11   C     C_R   0.136229 0.439749 0.430812 -0.127971
C12   C     C_R   0.855709 0.654056 0.590415 -0.192971
C13   C     C_R   0.106125 0.554365 0.572863 0.085404
C14   C     C_R   0.895532 0.577300 0.433727 0.116733
C15   C     C_R   0.155124 0.639698 0.710884 -0.236156
C16   C     C_R   0.853964 0.491061 0.281820 -0.244653
C17   C     C_R   0.235192 0.618587 0.702350 0.207240
C18   C     C_R   0.773360 0.467531 0.291295 0.212687
C19   C     C_2   0.022797 0.582073 0.582469 -0.200794
C20   C     C_2   0.980783 0.576011 0.429163 -0.200091
Cu1   Cu    Cu3+1 0.508700 0.517250 0.683000 0.954089
Cu2   Cu    Cu3+1 0.491300 0.482750 0.317000 0.943389
H1    H     H_    0.009054 0.553770 0.294835 0.143116
H2    H     H_    0.995964 0.603815 0.718153 0.146567
H3    H     H_    0.131350 0.725321 0.823662 0.139430
H4    H     H_    0.884655 0.434312 0.158728 0.134242
H5    H     H_    0.887182 0.729877 0.703534 0.128552
H6    H     H_    0.097902 0.366670 0.329151 0.150812
H7    H     H_    0.436486 0.387374 0.960552 0.216265
H8    H     H_    0.564011 0.610952 0.039480 0.246338
N1    N     N_2   0.478180 0.456750 0.041980 -0.226892
N2    N     N_2   0.521820 0.543250 0.958020 -0.205678
O1    O     O_R   0.505650 0.286040 0.618880 -0.604673
O2    O     O_R   0.494350 0.713960 0.381120 -0.570182
O3    O     O_R   0.490960 0.256910 0.309800 -0.583875
O4    O     O_R   0.509040 0.743090 0.690200 -0.588130
O5    O     O_R   0.394600 0.516230 0.672450 -0.557733
O6    O     O_R   0.605400 0.483770 0.327550 -0.559943
O7    O     O_R   0.379910 0.487100 0.363380 -0.604786
O8    O     O_R   0.620090 0.512900 0.636620 -0.560645
N3    N     N_3   0.242562 0.294853 0.272429 -0.602784
H9    H     H_    0.273853 0.345058 0.177038 0.235263
H10   H     H_    0.278826 0.223891 0.328419 0.212917
N4    N     N_3   0.735148 0.716409 0.764082 -0.569407
H11   H     H_    0.774636 0.775498 0.864473 0.206711
H12   H     H_    0.703059 0.802358 0.723487 0.200885
N5    N     N_2   0.733395 0.372811 0.136735 -0.398863
H13   H     H_    0.755005 0.388114 0.011204 0.259232
C21   C     C_3   0.725444 0.208843 0.143872 -0.686233
H14   H     H_    0.783588 0.157169 0.138174 0.212985
H15   H     H_    0.690560 0.144212 0.023925 0.223010
H16   H     H_    0.695472 0.195600 0.273038 0.222128
N6    N     N_2   0.284164 0.712067 0.841060 -0.413176
H17   H     H_    0.270311 0.828599 0.872507 0.246644
C22   C     C_3   0.290445 0.650095 0.006190 -0.598352
H18   H     H_    0.233693 0.654503 0.079518 0.200887
H19   H     H_    0.334732 0.721389 0.100120 0.230509
H20   H     H_    0.308773 0.526835 0.970776 0.227742
N7    N     N_2   0.561746 0.958948 0.290179 -0.456566
H21   H     H_    0.619959 0.982781 0.319630 0.225337
C23   C     C_3   0.541010 0.956557 0.100810 -0.587089
H22   H     H_    0.577821 0.873077 0.007174 0.220074
H23   H     H_    0.552650 0.073159 0.067675 0.225590
H24   H     H_    0.478897 0.918458 0.074904 0.255416
N8    N     N_2   0.439830 0.032461 0.720972 -0.437132
H25   H     H_    0.466548 0.120305 0.818562 0.269899
C24   C     C_3   0.359823 0.056628 0.679546 -0.688390
H26   H     H_    0.327226 0.093288 0.810606 0.219449
H27   H     H_    0.331989 0.945887 0.599239 0.231149
H28   H     H_    0.356512 0.150016 0.599676 0.208774

loop_
_geom_bond_atom_site_label_1
_geom_bond_atom_site_label_2
_ccdc_geom_bond_type
C23   H24   S    
C2    C4    S    
C22   H18   S    
C6    O6    A    
C15   C17   A    
C5    O5    A    
C9    C11   A    
N3    H9    S    
C19   C20   D    
C9    N3    S    
N5    H13   S    
C20   H1    S    
H7    N1    S    
C24   H28   S    
C18   N5    S    
C2    O2    A    
C21   H15   S    
N6    C22   S    
C19   H2    S    
C1    O1    A    
N7    H21   S    
N5    C21   S    
Cu1   O4    S    
C23   H23   S    
N6    H17   S    
H8    N2    S    
Cu2   O3    S    
N3    H10   S    
C4    N8    S    
Cu1   O8    S    
C10   C12   A    
C11   H6    S    
Cu2   O7    S    
C8    C10   A    
Cu1   O5    S    
C12   C14   A    
N8    H25   S    
C14   C16   A    
C22   H19   S    
C13   C15   A    
C16   H4    S    
C23   H22   S    
Cu2   O2    S    
Cu1   N2    S    
C6    O8    A    
N7    C23   S    
C15   H3    S    
Cu2   N1    S    
C13   C19   S    
C12   H5    S    
C10   N4    S    
C24   H26   S    
Cu2   O6    S    
C17   N6    S    
C11   C13   A    
Cu1   O1    S    
N4    H11   S    
C1    O3    A    
C14   C20   S    
C7    C9    A    
C21   H14   S    
C22   H20   S    
C2    O4    A    
C1    C3    S    
C5    C7    S    
C5    O7    A    
C6    C8    S    
C24   H27   S    
Cu1   Cu2   S    
C16   C18   A    
C8    C18   A    
C3    C4    D    
N1    N2    D    
C21   H16   S    
N4    H12   S    
N8    C24   S    
C7    C17   A    
C3    N7    S    
