data_mof_unit_33472.cif
_audit_creation_date              2012-12-10T21:26:06-0500
_audit_creation_method            fapswitch 2.2
_symmetry_space_group_name_H-M    P1
_symmetry_Int_Tables_number       1
_space_group_crystal_system       triclinic
_cell_length_a                    8.629399
_cell_length_b                    16.121977
_cell_length_c                    16.685474
_cell_angle_alpha                 86.710747
_cell_angle_beta                  92.068815
_cell_angle_gamma                 100.409675
_cell_volume                      2278.5817872

loop_
_atom_site_label
_atom_site_type_symbol
_atom_type_description
_atom_site_fract_x
_atom_site_fract_y
_atom_site_fract_z
_atom_type_partial_charge
C1    C     C_R   0.493946 0.487648 0.653917 0.860485
C2    C     C_R   0.504240 0.512257 0.346748 0.863476
C3    C     C_R   0.410100 0.752834 0.464457 -0.106625
C4    C     C_R   0.611217 0.250263 0.516935 -0.107999
C5    C     C_R   0.398105 0.839060 0.467597 0.020883
C6    C     C_R   0.624843 0.165140 0.507554 0.020282
C7    C     C_R   0.509797 0.891826 0.515818 0.253970
C8    C     C_R   0.494020 0.109533 0.476003 0.249676
C9    C     C_R   0.621995 0.855038 0.560316 -0.336533
C10   C     C_R   0.361745 0.142606 0.449418 -0.321768
C11   C     C_R   0.627926 0.768798 0.556244 0.321870
C12   C     C_R   0.356919 0.228841 0.455094 0.314006
C13   C     C_R   0.799897 0.521100 0.502140 0.962596
C14   C     C_R   0.199958 0.478982 0.500275 0.955819
C15   C     C_2   0.961546 0.531708 0.489192 -0.011126
C16   C     C_2   0.040015 0.470545 0.518624 0.002500
C17   C     C_R   0.492098 0.479608 0.742538 -0.122697
C18   C     C_R   0.533572 0.525346 0.261041 -0.089703
C19   C     C_R   0.454565 0.547080 0.784895 0.141470
C20   C     C_R   0.660582 0.493908 0.229102 0.129568
C21   C     C_R   0.491195 0.550844 0.866283 -0.172496
C22   C     C_R   0.694367 0.510922 0.148241 -0.167542
C23   C     C_R   0.559869 0.487868 0.907382 0.240657
C24   C     C_R   0.605838 0.559440 0.099961 0.233183
C25   C     C_R   0.576240 0.416088 0.868655 -0.206638
C26   C     C_R   0.487207 0.594132 0.132011 -0.194549
C27   C     C_R   0.537184 0.408600 0.786626 0.031830
C28   C     C_R   0.445011 0.575895 0.212107 0.039843
H1    H     H_    0.786283 0.484555 0.121686 0.152815
H2    H     H_    0.463709 0.602853 0.898183 0.153368
H3    H     H_    0.619092 0.366232 0.904035 0.143038
H4    H     H_    0.421762 0.630458 0.091388 0.136865
H5    H     H_    0.708831 0.292611 0.542170 0.160165
H6    H     H_    0.330497 0.712394 0.426063 0.141954
H7    H     H_    0.707112 0.894642 0.597518 0.159339
H8    H     H_    0.263201 0.100964 0.422602 0.161002
N1    N     N_2   0.589360 0.489126 0.990985 -0.181049
N2    N     N_2   0.612353 0.561677 0.016163 -0.197490
N3    N     N_R   0.519180 0.718290 0.509780 -0.092799
N4    N     N_R   0.480820 0.281710 0.490220 -0.095939
N5    N     N_2   0.508287 0.979304 0.526601 -0.182571
N6    N     N_2   0.496565 0.022893 0.463041 -0.190938
O1    O     O_R   0.493140 0.422050 0.612640 -0.635289
O2    O     O_R   0.506860 0.577950 0.387360 -0.625623
O3    O     O_R   0.505450 0.562230 0.618920 -0.608339
O4    O     O_R   0.494550 0.437770 0.381080 -0.609636
O5    O     O_R   0.723530 0.446300 0.497600 -0.626559
O6    O     O_R   0.276470 0.553700 0.502400 -0.618677
O7    O     O_R   0.735850 0.586490 0.503880 -0.615393
O8    O     O_R   0.264150 0.413510 0.496120 -0.622025
Zn1   Zn    Zn3+2 0.491780 0.406400 0.495810 0.919108
Zn2   Zn    Zn3+2 0.508220 0.593600 0.504190 0.926279
C29   C     C_3   0.025923 0.604718 0.430803 -0.965689
H9    H     H_    0.930341 0.627214 0.393972 0.247779
H10   H     H_    0.085821 0.658431 0.465510 0.263318
H11   H     H_    0.106077 0.585913 0.387713 0.243621
C30   C     C_3   0.983584 0.403974 0.584571 -0.950682
H12   H     H_    0.074561 0.406868 0.633728 0.233237
H13   H     H_    0.874504 0.412822 0.613463 0.241823
H14   H     H_    0.968335 0.340375 0.560266 0.244585
C31   C     C_3   0.761992 0.442935 0.279714 -0.880627
H15   H     H_    0.812031 0.478379 0.332431 0.241301
H16   H     H_    0.691049 0.381418 0.300123 0.266032
H17   H     H_    0.862306 0.429605 0.245698 0.224203
C32   C     C_3   0.369102 0.614017 0.746575 -0.854418
H18   H     H_    0.275106 0.585446 0.704052 0.245192
H19   H     H_    0.310295 0.644321 0.792154 0.218999
H20   H     H_    0.453497 0.664432 0.715108 0.258034
C33   C     C_3   0.537621 0.325407 0.747201 -0.362787
C34   C     C_3   0.547523 0.248176 0.804526 -0.388966
C35   C     C_3   0.511099 0.166533 0.759923 -0.880352
H21   H     H_    0.386179 0.154975 0.738241 0.262799
H22   H     H_    0.588254 0.170590 0.707723 0.259561
H23   H     H_    0.531102 0.112514 0.800875 0.251972
H24   H     H_    0.668144 0.254078 0.831889 0.222806
H25   H     H_    0.460580 0.243804 0.852864 0.231899
H26   H     H_    0.424442 0.309825 0.712646 0.231363
H27   H     H_    0.637160 0.333809 0.705273 0.204544
C36   C     C_3   0.302411 0.605351 0.245209 -0.404408
C37   C     C_3   0.197407 0.645039 0.183077 -0.361408
C38   C     C_3   0.052632 0.666153 0.221642 -0.889409
H28   H     H_    0.979109 0.607819 0.247456 0.275732
H29   H     H_    0.088701 0.711251 0.269638 0.258858
H30   H     H_    0.980608 0.695478 0.175479 0.257761
H31   H     H_    0.265209 0.704507 0.155764 0.221916
H32   H     H_    0.156767 0.600253 0.135212 0.228100
H33   H     H_    0.227870 0.549401 0.274952 0.185293
H34   H     H_    0.344082 0.652298 0.290921 0.217034
C39   C     C_3   0.784286 0.139203 0.521026 -0.412537
C40   C     C_3   0.830856 0.132473 0.610218 -0.357493
C41   C     C_3   0.993535 0.108164 0.621793 -0.878593
H35   H     H_    0.994073 0.046030 0.596335 0.260918
H36   H     H_    0.084143 0.156734 0.591952 0.267015
H37   H     H_    0.024380 0.103566 0.686879 0.249180
H38   H     H_    0.833636 0.194076 0.637413 0.218214
H39   H     H_    0.743083 0.083572 0.641637 0.235031
H40   H     H_    0.786629 0.077980 0.494194 0.225343
H41   H     H_    0.873751 0.186783 0.489215 0.193759
C42   C     C_3   0.261115 0.869820 0.423205 -0.406670
C43   C     C_3   0.141337 0.889764 0.481872 -0.328378
C44   C     C_3   0.998508 0.915481 0.437239 -0.889978
H42   H     H_    0.035855 0.971474 0.395919 0.257294
H43   H     H_    0.934950 0.862506 0.402331 0.268721
H44   H     H_    0.916750 0.931978 0.481098 0.252617
H45   H     H_    0.100690 0.833085 0.521963 0.219549
H46   H     H_    0.196494 0.942052 0.519810 0.238765
H47   H     H_    0.304072 0.925676 0.382830 0.217936
H48   H     H_    0.199223 0.820439 0.383558 0.187390
C45   C     C_3   0.759877 0.735259 0.600827 -0.842801
H49   H     H_    0.826637 0.782490 0.641043 0.198455
H50   H     H_    0.715044 0.678532 0.639127 0.260318
H51   H     H_    0.844887 0.721407 0.557500 0.250646
C46   C     C_3   0.215015 0.260790 0.420087 -0.840909
H52   H     H_    0.141086 0.213559 0.382315 0.197422
H53   H     H_    0.140112 0.272677 0.469164 0.240175
H54   H     H_    0.251308 0.318355 0.380887 0.263548

loop_
_geom_bond_atom_site_label_1
_geom_bond_atom_site_label_2
_ccdc_geom_bond_type
C25   H3    S    
C26   H4    S    
C44   H42   S    
C22   H1    S    
C11   C45   S    
N5    N6    D    
C33   H26   S    
O1    Zn1   S    
C36   H33   S    
C38   H28   S    
C30   H12   S    
C40   H38   S    
C29   H9    S    
C2    O4    A    
C42   H48   S    
C43   H45   S    
N1    N2    D    
C6    C8    A    
C15   C29   S    
C19   C21   A    
C24   C26   A    
C46   H52   S    
C45   H50   S    
C30   H13   S    
C2    C18   S    
C15   C16   D    
C20   C31   S    
C31   H16   S    
C28   C36   S    
C37   H32   S    
C1    O1    A    
C5    C42   S    
C2    O2    A    
C32   H19   S    
C24   N2    S    
C34   C35   S    
C18   C20   A    
C27   C33   S    
C46   H54   S    
O2    Zn2   S    
C23   C25   A    
N3    Zn2   S    
C3    N3    A    
C44   H43   S    
C33   H27   S    
C31   H15   S    
C36   H34   S    
C38   H29   S    
C29   H10   S    
C17   C27   A    
C4    N4    A    
C18   C28   A    
C4    C6    A    
C45   H51   S    
C41   H35   S    
C5    C7    A    
C30   H14   S    
O5    Zn1   S    
C3    H6    S    
C23   N1    S    
O4    Zn1   S    
C39   H40   S    
C12   N4    A    
C31   H17   S    
C37   H31   S    
C41   H36   S    
C42   C43   S    
C32   H20   S    
O8    Zn1   S    
C11   N3    A    
C9    C11   A    
C10   C12   A    
C13   O7    A    
C20   C22   A    
C44   H44   S    
C13   C15   S    
C34   H25   S    
C22   C24   A    
C6    C39   S    
C38   H30   S    
C13   O5    A    
C12   C46   S    
C29   H11   S    
C7    C9    A    
C4    H5    S    
C43   H46   S    
O7    Zn2   S    
C8    N6    S    
C37   C38   S    
C3    C5    A    
C35   H23   S    
C14   O6    A    
C40   H39   S    
C25   C27   A    
N4    Zn1   S    
C42   H47   S    
C21   H2    S    
C26   C28   A    
O3    Zn2   S    
C39   H41   S    
C21   C23   A    
C35   H21   S    
C45   H49   S    
C41   H37   S    
C1    O3    A    
C40   C41   S    
C14   O8    A    
C43   C44   S    
C17   C19   A    
C19   C32   S    
C14   C16   S    
C16   C30   S    
C7    N5    S    
C33   C34   S    
C36   C37   S    
O6    Zn2   S    
C1    C17   S    
C8    C10   A    
C32   H18   S    
C35   H22   S    
C34   H24   S    
C9    H7    S    
C10   H8    S    
C39   C40   S    
C46   H53   S    
