data_mof_unit_31834.cif
_audit_creation_date              2012-12-11T14:44:30-0500
_audit_creation_method            fapswitch 2.2
_symmetry_space_group_name_H-M    P1
_symmetry_Int_Tables_number       1
_space_group_crystal_system       triclinic
_cell_length_a                    25.134455
_cell_length_b                    16.821054
_cell_length_c                    15.773623
_cell_angle_alpha                 90.099873
_cell_angle_beta                  48.959919
_cell_angle_gamma                 89.930476
_cell_volume                      5029.9878013

loop_
_atom_site_label
_atom_site_type_symbol
_atom_type_description
_atom_site_fract_x
_atom_site_fract_y
_atom_site_fract_z
_atom_type_partial_charge
C1    C     C_R   0.355165 0.149581 0.750385 -0.133405
C2    C     C_R   0.666988 0.891486 0.194030 -0.109003
C3    C     C_R   0.644851 0.149257 0.249444 -0.133545
C4    C     C_R   0.333582 0.889668 0.804704 -0.108485
C5    C     C_R   0.855121 0.649550 0.750495 -0.133422
C6    C     C_R   0.166937 0.391238 0.194181 -0.107990
C7    C     C_R   0.144845 0.649276 0.250150 -0.136785
C8    C     C_R   0.833116 0.391609 0.805701 -0.108118
C9    C     C_3   0.248246 0.204084 0.396603 -0.232921
C10   C     C_3   0.701518 0.712463 0.607155 -0.230403
C11   C     C_3   0.753035 0.203615 0.601893 -0.233645
C12   C     C_3   0.268823 0.730112 0.424427 -0.226721
C13   C     C_3   0.747480 0.703183 0.397199 -0.233859
C14   C     C_3   0.201118 0.211651 0.607393 -0.230743
C15   C     C_3   0.280306 0.680854 0.573991 -0.220507
C16   C     C_3   0.797649 0.213008 0.392899 -0.230021
C17   C     C_2   0.635798 0.268416 0.161688 -0.208870
C18   C     C_2   0.303296 0.851009 0.987156 -0.219597
C19   C     C_2   0.364429 0.269292 0.837530 -0.208182
C20   C     C_2   0.697710 0.853667 0.010752 -0.219210
C21   C     C_2   0.135961 0.768565 0.162320 -0.207677
C22   C     C_2   0.802481 0.353274 0.988544 -0.219566
C23   C     C_2   0.864345 0.769227 0.837724 -0.210638
C24   C     C_2   0.197626 0.353303 0.010968 -0.218976
C25   C     C_2   0.685959 0.309775 0.149667 -0.111961
C26   C     C_2   0.233347 0.859294 0.050723 -0.111431
C27   C     C_2   0.314526 0.310972 0.848990 -0.112146
C28   C     C_2   0.767617 0.861553 0.947581 -0.112112
C29   C     C_2   0.186539 0.809456 0.149598 -0.111885
C30   C     C_2   0.732481 0.360263 0.051411 -0.111386
C31   C     C_2   0.814544 0.810996 0.848998 -0.110963
C32   C     C_2   0.267526 0.361372 0.947730 -0.111527
C33   C     C_R   0.615760 0.106754 0.589753 -0.213603
C34   C     C_R   0.409677 0.855030 0.405800 -0.204744
C35   C     C_R   0.384149 0.106432 0.410306 -0.210979
C36   C     C_R   0.588777 0.851632 0.591065 -0.204313
C37   C     C_R   0.114350 0.602665 0.593088 -0.220930
C38   C     C_R   0.911085 0.351901 0.408403 -0.204069
C39   C     C_R   0.884204 0.606612 0.410289 -0.213384
C40   C     C_R   0.088976 0.351724 0.590960 -0.204232
C41   C     C_R   0.690316 0.105745 0.403126 0.313468
C42   C     C_R   0.329170 0.859209 0.593550 0.343108
C43   C     C_R   0.309540 0.105634 0.596918 0.312724
C44   C     C_R   0.669072 0.857223 0.403666 0.344295
C45   C     C_R   0.190888 0.600636 0.407185 0.314040
C46   C     C_R   0.830900 0.357578 0.595907 0.344442
C47   C     C_R   0.809586 0.605824 0.596904 0.312943
C48   C     C_R   0.169427 0.357607 0.403499 0.344940
C49   C     C_R   0.557261 0.145144 0.246375 -0.138403
C50   C     C_R   0.422139 0.891997 0.803179 -0.144831
C51   C     C_R   0.442734 0.145385 0.753480 -0.138439
C52   C     C_R   0.578289 0.892691 0.196037 -0.143708
C53   C     C_R   0.057312 0.645372 0.246687 -0.137645
C54   C     C_R   0.921814 0.392717 0.803747 -0.144949
C55   C     C_R   0.942669 0.645340 0.753624 -0.137216
C56   C     C_R   0.078218 0.392520 0.196169 -0.144073
C57   C     C_R   0.387886 0.192172 0.780017 0.139552
C58   C     C_R   0.648772 0.874323 0.130607 0.136261
C59   C     C_R   0.612174 0.191707 0.219625 0.140100
C60   C     C_R   0.352022 0.872470 0.867811 0.136667
C61   C     C_R   0.887805 0.692110 0.780206 0.139668
C62   C     C_R   0.148691 0.374036 0.130792 0.135664
C63   C     C_R   0.112222 0.691885 0.220291 0.142057
C64   C     C_R   0.851383 0.374362 0.868998 0.136523
C65   C     C_R   0.683084 0.125207 0.494348 0.040067
C66   C     C_R   0.354835 0.814346 0.499263 0.018842
C67   C     C_R   0.316695 0.124736 0.505746 0.040121
C68   C     C_R   0.642700 0.809959 0.495494 0.020103
C69   C     C_R   0.182725 0.616541 0.500806 0.041948
C70   C     C_R   0.857190 0.310435 0.503711 0.020374
C71   C     C_R   0.816786 0.625095 0.505728 0.040134
C72   C     C_R   0.143136 0.310315 0.495244 0.020273
C73   C     C_3   0.289588 0.236509 0.429703 0.373888
C74   C     C_3   0.659070 0.680146 0.575909 0.364765
C75   C     C_3   0.710167 0.236421 0.571734 0.373529
C76   C     C_3   0.337312 0.703518 0.396045 0.383055
C77   C     C_3   0.789493 0.736100 0.428852 0.372941
C78   C     C_3   0.159335 0.179829 0.574679 0.365281
C79   C     C_3   0.211539 0.707407 0.602304 0.393751
C80   C     C_3   0.840931 0.180778 0.422648 0.365347
C81   C     C_3   0.725966 0.783296 0.527538 -0.239779
C82   C     C_3   0.224095 0.131733 0.475435 -0.241120
C83   C     C_3   0.247996 0.779376 0.524334 -0.236193
C84   C     C_3   0.777185 0.131933 0.521527 -0.240144
C85   C     C_3   0.225672 0.283109 0.528662 -0.240652
C86   C     C_3   0.723434 0.631449 0.476934 -0.240052
C87   C     C_3   0.773110 0.283799 0.473140 -0.240287
C88   C     C_3   0.300344 0.630375 0.473435 -0.233530
C89   C     C_3   0.683376 0.750349 0.497025 0.122784
C90   C     C_3   0.265683 0.165270 0.507273 0.114031
C91   C     C_3   0.316697 0.752754 0.495475 0.108817
C92   C     C_3   0.734084 0.165845 0.492679 0.114282
C93   C     C_3   0.183757 0.250639 0.496688 0.123175
C94   C     C_3   0.765683 0.665476 0.507301 0.114268
C95   C     C_3   0.816541 0.250939 0.502127 0.122468
C96   C     C_3   0.231742 0.658179 0.503015 0.101219
H1    H     H_    0.310424 0.167579 0.760115 0.118050
H2    H     H_    0.720005 0.899029 0.160102 0.104857
H3    H     H_    0.689606 0.167092 0.239635 0.118040
H4    H     H_    0.280495 0.894597 0.838303 0.104264
H5    H     H_    0.810378 0.667569 0.760254 0.118248
H6    H     H_    0.219962 0.398472 0.160354 0.105191
H7    H     H_    0.189478 0.666750 0.241257 0.116827
H8    H     H_    0.780099 0.399216 0.839574 0.104595
H9    H     H_    0.595335 0.105157 0.675088 0.124204
H10   H     H_    0.438536 0.841429 0.318603 0.136254
H11   H     H_    0.404672 0.104738 0.324901 0.123591
H12   H     H_    0.560768 0.835805 0.677497 0.125489
H13   H     H_    0.091710 0.596960 0.679027 0.134387
H14   H     H_    0.939084 0.336124 0.321832 0.125180
H15   H     H_    0.904715 0.604863 0.324895 0.124547
H16   H     H_    0.060899 0.335789 0.677390 0.125332
H17   H     H_    0.520955 0.160701 0.234217 0.105626
H18   H     H_    0.450383 0.896732 0.832997 0.093108
H19   H     H_    0.479047 0.160986 0.765569 0.106026
H20   H     H_    0.550030 0.897578 0.166264 0.093821
H21   H     H_    0.021071 0.661129 0.234462 0.106296
H22   H     H_    0.950177 0.397305 0.833371 0.092817
H23   H     H_    0.978949 0.660945 0.765781 0.104154
H24   H     H_    0.049848 0.397219 0.166567 0.092866
H25   H     H_    0.727145 0.846404 0.547210 0.139871
H26   H     H_    0.224034 0.068482 0.455299 0.136371
H27   H     H_    0.227061 0.840988 0.542080 0.137001
H28   H     H_    0.778234 0.068508 0.539736 0.136693
H29   H     H_    0.226462 0.346034 0.549389 0.140254
H30   H     H_    0.723000 0.568015 0.457865 0.136544
H31   H     H_    0.771348 0.346911 0.454355 0.139798
H32   H     H_    0.320458 0.568326 0.452478 0.137912
H33   H     H_    0.267414 0.198802 0.310362 0.145930
H34   H     H_    0.680649 0.719394 0.694082 0.140065
H35   H     H_    0.734975 0.197683 0.687333 0.145964
H36   H     H_    0.263596 0.751839 0.363774 0.131008
H37   H     H_    0.766112 0.697259 0.311351 0.146236
H38   H     H_    0.179706 0.217786 0.694721 0.140084
H39   H     H_    0.286077 0.662250 0.635093 0.139974
H40   H     H_    0.817919 0.220081 0.306389 0.139275
H41   H     H_    0.211027 0.889951 0.019900 0.129499
H42   H     H_    0.702622 0.293928 0.195822 0.126821
H43   H     H_    0.789732 0.891875 0.978952 0.129446
H44   H     H_    0.298149 0.295064 0.802414 0.127070
H45   H     H_    0.710103 0.390103 0.020192 0.129154
H46   H     H_    0.203378 0.793365 0.195431 0.126285
H47   H     H_    0.289617 0.391791 0.979081 0.129382
H48   H     H_    0.798201 0.795110 0.802367 0.127017
H49   H     H_    0.324652 0.820120 0.019643 0.132722
H50   H     H_    0.619973 0.284586 0.114283 0.134734
H51   H     H_    0.676599 0.822970 0.977729 0.132619
H52   H     H_    0.379955 0.285469 0.885381 0.134876
H53   H     H_    0.823833 0.323066 0.021465 0.131381
H54   H     H_    0.120026 0.784895 0.115115 0.135184
H55   H     H_    0.176532 0.322524 0.977971 0.131562
H56   H     H_    0.879829 0.785382 0.885640 0.134146
N1    N     N_R   0.389620 0.081040 0.705440 -0.046229
N2    N     N_R   0.610380 0.918960 0.294560 -0.046179
N3    N     N_R   0.610380 0.081040 0.294560 -0.046177
N4    N     N_R   0.389620 0.918960 0.705440 -0.046374
N5    N     N_R   0.889620 0.581040 0.705440 -0.046312
N6    N     N_R   0.110380 0.418960 0.294560 -0.045880
N7    N     N_R   0.110380 0.581040 0.294560 -0.046446
N8    N     N_R   0.889620 0.418960 0.705440 -0.045953
N9    N     N_R   0.582320 0.079840 0.556630 -0.052098
N10   N     N_R   0.417680 0.920160 0.443370 -0.054345
N11   N     N_R   0.417680 0.079840 0.443370 -0.052194
N12   N     N_R   0.582320 0.920160 0.556630 -0.053927
N13   N     N_R   0.082320 0.579840 0.556630 -0.053008
N14   N     N_R   0.917680 0.420160 0.443370 -0.053919
N15   N     N_R   0.917680 0.579840 0.443370 -0.052194
N16   N     N_R   0.082320 0.420160 0.556630 -0.054054
N17   N     N_R   0.627920 0.078930 0.443400 -0.056233
N18   N     N_R   0.372080 0.921070 0.556600 -0.055578
N19   N     N_R   0.372080 0.078930 0.556600 -0.056363
N20   N     N_R   0.627920 0.921070 0.443400 -0.055152
N21   N     N_R   0.127920 0.578930 0.443400 -0.056891
N22   N     N_R   0.872080 0.421070 0.556600 -0.055190
N23   N     N_R   0.872080 0.578930 0.556600 -0.056317
N24   N     N_R   0.127920 0.421070 0.443400 -0.054943
N25   N     N_R   0.555090 0.077730 0.294590 -0.039928
N26   N     N_R   0.444910 0.922270 0.705410 -0.039099
N27   N     N_R   0.444910 0.077730 0.705410 -0.039964
N28   N     N_R   0.555090 0.922270 0.294590 -0.040156
N29   N     N_R   0.055090 0.577730 0.294590 -0.039896
N30   N     N_R   0.944910 0.422270 0.705410 -0.039083
N31   N     N_R   0.944910 0.577730 0.705410 -0.039834
N32   N     N_R   0.055090 0.422270 0.294590 -0.039287
Ni1   Ni    Ni4+2 0.382970 0.000000 0.629840 0.206035
Ni2   Ni    Ni4+2 0.617030 0.000000 0.370160 0.206081
Ni3   Ni    Ni4+2 0.882970 0.500000 0.629840 0.206379
Ni4   Ni    Ni4+2 0.117030 0.500000 0.370160 0.206197
Ni5   Ni    Ni4+2 0.514540 0.000000 0.629840 0.200442
Ni6   Ni    Ni4+2 0.485460 0.000000 0.370160 0.200296
Ni7   Ni    Ni4+2 0.014540 0.500000 0.629840 0.200098
Ni8   Ni    Ni4+2 0.985460 0.500000 0.370160 0.200841
C97   C     C_3   0.757999 0.088133 0.286789 -1.085008
H57   H     H_    0.781934 0.143723 0.237939 0.240426
H58   H     H_    0.795518 0.057370 0.290568 0.266957
H59   H     H_    0.747792 0.049296 0.241983 0.252870
C98   C     C_3   0.256508 0.856759 0.706152 -1.080302
H60   H     H_    0.216938 0.855033 0.696574 0.260744
H61   H     H_    0.250493 0.804658 0.754853 0.257372
H62   H     H_    0.244461 0.913015 0.751813 0.249462
C99   C     C_3   0.241942 0.088287 0.713166 -1.084159
H63   H     H_    0.217855 0.144032 0.762230 0.240239
H64   H     H_    0.204517 0.057532 0.709265 0.266739
H65   H     H_    0.252296 0.049505 0.757738 0.253545
C100  C     C_3   0.742084 0.855075 0.291312 -1.085812
H66   H     H_    0.781078 0.845138 0.301137 0.267781
H67   H     H_    0.746714 0.807411 0.238093 0.251881
H68   H     H_    0.756090 0.913597 0.249986 0.252939
C101  C     C_3   0.259392 0.585778 0.290812 -1.084076
H69   H     H_    0.286888 0.642660 0.249888 0.251761
H70   H     H_    0.293611 0.547029 0.294517 0.264208
H71   H     H_    0.250021 0.555635 0.239063 0.251351
C102  C     C_3   0.757922 0.355840 0.708300 -1.086196
H72   H     H_    0.718917 0.346163 0.698477 0.267829
H73   H     H_    0.753364 0.308166 0.761225 0.251775
H74   H     H_    0.743889 0.414425 0.749948 0.253053
C103  C     C_3   0.741942 0.588718 0.713213 -1.084510
H75   H     H_    0.717868 0.644561 0.762004 0.240817
H76   H     H_    0.704527 0.557836 0.709392 0.266982
H77   H     H_    0.752228 0.550169 0.758058 0.252888
C104  C     C_3   0.242610 0.356338 0.291436 -1.089112
H78   H     H_    0.281474 0.347149 0.301754 0.267288
H79   H     H_    0.247969 0.308549 0.237705 0.252025
H80   H     H_    0.255944 0.415002 0.250455 0.255161
C105  C     C_3   0.363308 0.272829 0.349358 -1.060517
H81   H     H_    0.385134 0.277519 0.391622 0.261613
H82   H     H_    0.398609 0.235485 0.272774 0.248450
H83   H     H_    0.361106 0.333403 0.324321 0.253319
C106  C     C_3   0.584317 0.648087 0.658674 -1.031399
H84   H     H_    0.565861 0.632288 0.613371 0.257573
H85   H     H_    0.583432 0.594315 0.700244 0.256283
H86   H     H_    0.548632 0.693672 0.723550 0.247054
C107  C     C_3   0.636024 0.272017 0.654399 -1.059807
H87   H     H_    0.613119 0.276607 0.613801 0.261736
H88   H     H_    0.601854 0.234259 0.730378 0.248142
H89   H     H_    0.637780 0.332590 0.680122 0.254221
C108  C     C_3   0.408206 0.698091 0.277068 -1.065460
H90   H     H_    0.450739 0.688193 0.279755 0.258792
H91   H     H_    0.407494 0.647631 0.232399 0.264758
H92   H     H_    0.418342 0.753504 0.230539 0.244749
C109  C     C_3   0.863347 0.772022 0.347382 -1.058669
H93   H     H_    0.885732 0.776769 0.388779 0.261523
H94   H     H_    0.898162 0.734396 0.270988 0.248690
H95   H     H_    0.861217 0.832558 0.322177 0.254147
C110  C     C_3   0.084645 0.147470 0.656232 -1.033887
H96   H     H_    0.066765 0.132062 0.609985 0.257906
H97   H     H_    0.083582 0.093413 0.697547 0.255746
H98   H     H_    0.048613 0.192749 0.721399 0.247381
C111  C     C_3   0.141375 0.711022 0.723100 -1.083401
H99   H     H_    0.098988 0.732194 0.724465 0.256336
H100  H     H_    0.128440 0.651468 0.762235 0.248271
H101  H     H_    0.144572 0.751930 0.774499 0.266384
C112  C     C_3   0.915868 0.148861 0.338676 -1.032423
H102  H     H_    0.935013 0.133222 0.382991 0.257938
H103  H     H_    0.916772 0.095012 0.296994 0.256246
H104  H     H_    0.950981 0.194455 0.274002 0.246632

loop_
_geom_bond_atom_site_label_1
_geom_bond_atom_site_label_2
_ccdc_geom_bond_type
C65   C92   S    
C49   H17   S    
C23   H56   S    
C88   C96   S    
N21   Ni4   S    
C21   C29   D    
N2    N28   A    
C50   C60   A    
C36   H12   S    
C10   C81   S    
C56   H24   S    
C99   H63   S    
C85   H29   S    
C16   C80   S    
C18   C26   D    
C80   C84   S    
C26   H41   S    
C34   C66   A    
C87   H31   S    
C99   H64   S    
C33   C65   A    
C40   H16   S    
C71   C94   S    
C55   H23   S    
C100  H66   S    
C19   C57   S    
C103  H77   S    
N15   Ni8   S    
N2    Ni2   S    
C111  H99   S    
C104  H78   S    
C30   H45   S    
C9    C73   S    
C77   C109  S    
C74   C89   S    
C50   N26   A    
C86   C94   S    
N17   Ni2   S    
C104  H80   S    
C53   N29   A    
C112  H102  S    
C75   C87   S    
N29   Ni8   S    
C53   H21   S    
C100  H68   S    
C7    N7    A    
C48   C104  S    
C10   C94   S    
C78   C93   S    
N13   N21   A    
C78   C110  S    
C108  H91   S    
C12   H36   S    
C77   C94   S    
C105  H83   S    
C38   N14   A    
C109  H93   S    
C31   H48   S    
C98   H61   S    
C1    C57   A    
C14   C90   S    
C32   H47   S    
C41   C97   S    
C42   N18   A    
N13   Ni7   S    
C85   C93   S    
C15   C79   S    
C23   C61   S    
N20   Ni2   S    
C97   H58   S    
C87   C95   S    
C13   C86   S    
C43   C99   S    
C16   C87   S    
C54   N30   A    
C75   C107  S    
C84   H28   S    
C51   C57   A    
C35   C67   A    
C38   H14   S    
C19   C27   D    
C107  H87   S    
C76   C88   S    
C37   H13   S    
C9    C82   S    
C19   H52   S    
C81   C89   S    
C69   C96   S    
C39   H15   S    
C22   H53   S    
C53   C63   A    
C2    N2    A    
C7    H7    S    
C108  H90   S    
C8    H8    S    
C79   C111  S    
C28   H43   S    
N4    N26   A    
C48   C72   A    
C74   C106  S    
C51   N27   A    
N8    N30   A    
C6    N6    A    
C101  H71   S    
N24   Ni4   S    
C49   N25   A    
C52   H20   S    
C105  H82   S    
C35   N11   A    
C5    H5    S    
C111  H100  S    
C21   C63   S    
C80   C112  S    
N19   Ni1   S    
C45   C69   A    
C14   C78   S    
C34   H10   S    
C35   H11   S    
C47   N23   A    
C28   C31   S    
C33   H9    S    
N9    Ni5   S    
C108  H92   S    
C1    H1    S    
C112  H103  S    
N26   Ni5   S    
C43   N19   A    
C41   C65   A    
C14   H38   S    
C103  H75   S    
N4    Ni1   S    
C22   C64   S    
C82   C90   S    
C67   C90   S    
C45   C101  S    
C12   C83   S    
C81   H25   S    
C76   C108  S    
C50   H18   S    
C23   C31   D    
N7    Ni4   S    
C98   H62   S    
C33   N9    A    
C44   N20   A    
C43   C67   A    
C106  H84   S    
C24   H55   S    
C45   N21   A    
N22   Ni3   S    
C47   C103  S    
C37   C69   A    
C78   C82   S    
N16   Ni7   S    
C101  H69   S    
N27   Ni5   S    
C70   C95   S    
C77   C81   S    
C46   C102  S    
C47   C71   A    
C4    C60   A    
N32   Ni8   S    
C105  H81   S    
C20   H51   S    
C5    C61   A    
C21   H54   S    
C74   C86   S    
C80   C95   S    
C1    N1    A    
C107  H88   S    
C7    C63   A    
C52   C58   A    
C75   C92   S    
C8    C64   A    
C72   C93   S    
C11   H35   S    
C18   C60   S    
C38   C70   A    
C4    N4    A    
C17   C59   S    
C16   C92   S    
C5    N5    A    
C110  H97   S    
C13   C77   S    
C10   H34   S    
C99   H65   S    
C56   C62   A    
C44   C68   A    
C109  H94   S    
C103  H76   S    
C3    N3    A    
C17   H50   S    
C20   C58   S    
N12   Ni5   S    
C8    N8    A    
C56   N32   A    
C9    C93   S    
C12   C76   S    
N10   Ni6   S    
C46   C70   A    
N11   N19   A    
N15   N23   A    
C73   C85   S    
C102  H74   S    
C11   C95   S    
C25   C30   S    
N16   N24   A    
C3    C59   A    
C111  H101  S    
C24   C62   S    
N25   Ni6   S    
C40   C72   A    
C13   C89   S    
C27   C32   S    
C18   H49   S    
C13   H37   S    
C42   C98   S    
C42   C66   A    
N5    Ni3   S    
C14   C85   S    
N1    N27   A    
C34   N10   A    
N3    Ni2   S    
N6    Ni4   S    
C73   C90   S    
C112  H104  S    
C37   N13   A    
C2    C58   A    
C66   C91   S    
N31   Ni7   S    
C73   C105  S    
C9    H33   S    
C11   C84   S    
C106  H86   S    
C20   C28   D    
N14   N22   A    
C27   H44   S    
C49   C59   A    
C4    H4    S    
C104  H79   S    
C109  H95   S    
C17   C25   D    
C86   H30   S    
C6    C62   A    
N23   Ni3   S    
C54   H22   S    
C52   N28   A    
C102  H73   S    
N9    N17   A    
N10   N18   A    
C88   H32   S    
N28   Ni6   S    
C97   H59   S    
C79   C83   S    
C10   C74   S    
C24   C32   D    
N1    Ni1   S    
C2    H2    S    
C102  H72   S    
C29   H46   S    
C55   C61   A    
N18   Ni1   S    
C44   C100  S    
C101  H70   S    
C25   H42   S    
N11   Ni6   S    
N14   Ni8   S    
C6    H6    S    
C83   C91   S    
C39   N15   A    
C98   H60   S    
C22   C30   D    
C107  H89   S    
C51   H19   S    
C40   N16   A    
N12   N20   A    
C76   C91   S    
C15   C91   S    
N7    N29   A    
C3    H3    S    
C79   C96   S    
C15   H39   S    
C54   C64   A    
C26   C29   S    
C106  H85   S    
C97   H57   S    
N30   Ni7   S    
C110  H98   S    
C46   N22   A    
C36   N12   A    
C55   N31   A    
C12   C96   S    
C11   C75   S    
C84   C92   S    
N8    Ni3   S    
C68   C89   S    
C41   N17   A    
C110  H96   S    
C100  H67   S    
N6    N32   A    
C36   C68   A    
C82   H26   S    
C83   H27   S    
N3    N25   A    
N5    N31   A    
C15   C88   S    
C48   N24   A    
C39   C71   A    
C16   H40   S    
