data_mof_unit_27863.cif
_audit_creation_date              2012-12-10T18:10:53-0500
_audit_creation_method            fapswitch 2.2
_symmetry_space_group_name_H-M    P1
_symmetry_Int_Tables_number       1
_space_group_crystal_system       triclinic
_cell_length_a                    12.611821
_cell_length_b                    13.11196
_cell_length_c                    15.744768
_cell_angle_alpha                 91.096269
_cell_angle_beta                  102.989117
_cell_angle_gamma                 81.499888
_cell_volume                      2508.88845261

loop_
_atom_site_label
_atom_site_type_symbol
_atom_type_description
_atom_site_fract_x
_atom_site_fract_y
_atom_site_fract_z
_atom_type_partial_charge
C1    C     C_R   0.437295 0.692046 0.486502 0.850455
C2    C     C_R   0.601021 0.196725 0.509344 -0.190241
C3    C     C_R   0.286716 0.846581 0.481760 0.163286
C4    C     C_R   0.501145 0.500712 0.661487 0.907535
C5    C     C_R   0.260777 0.954383 0.482782 -0.132272
C6    C     C_R   0.339021 0.017080 0.480062 -0.270709
C7    C     C_R   0.444993 0.974964 0.470490 0.109152
C8    C     C_R   0.466028 0.869345 0.453024 0.068655
C9    C     C_R   0.530788 0.034777 0.477094 0.092669
C10   C     C_R   0.629029 0.993663 0.451715 0.074244
C11   C     C_R   0.640048 0.894205 0.418870 -0.225811
C12   C     C_3   0.478292 0.620807 0.046522 0.026769
C13   C     C_R   0.559084 0.832913 0.418773 -0.158157
C14   C     C_R   0.522100 0.133702 0.510723 -0.308606
C15   C     C_R   0.703260 0.153139 0.491197 0.415598
C16   C     C_R   0.562358 0.307945 0.510498 0.861591
C17   C     C_R   0.394183 0.803198 0.471010 -0.203848
C18   C     C_R   0.091124 0.345616 0.377729 -0.320022
C19   C     C_R   0.800071 0.628251 0.604749 0.631681
C20   C     C_R   0.906095 0.654467 0.627020 -0.364815
C21   C     C_R   0.986528 0.605220 0.586954 -0.249926
C22   C     C_R   0.962100 0.529465 0.523297 0.022196
C23   C     C_3   0.501365 0.507433 0.083359 0.243008
C24   C     C_R   0.854310 0.504708 0.503354 0.064799
C25   C     C_R   0.040702 0.476592 0.480158 -0.011598
C26   C     C_R   0.010483 0.399718 0.417407 0.096955
C27   C     C_R   0.901268 0.378166 0.396084 0.138592
C28   C     C_R   0.498512 0.500286 0.338482 0.884695
C29   C     C_R   0.826840 0.428658 0.442288 -0.146873
C30   C     C_R   0.149446 0.497373 0.497035 -0.040269
C31   C     C_R   0.196712 0.369860 0.397827 0.023869
C32   C     C_3   0.489873 0.618371 0.950310 -0.395503
C33   C     C_3   0.613632 0.440764 0.972681 0.006260
C34   C     C_3   0.410015 0.448765 0.030537 -0.562997
C35   C     C_3   0.615008 0.450538 0.071882 0.278662
C36   C     C_1   0.495226 0.502375 0.249055 -0.194489
C37   C     C_3   0.505953 0.505450 0.918249 0.258714
C38   C     C_3   0.547650 0.697728 0.101517 -0.323182
C39   C     C_3   0.498937 0.809867 0.076786 -0.966001
C40   C     C_3   0.201125 0.779115 0.492040 -0.369411
C41   C     C_3   0.087588 0.835319 0.497988 -0.939777
C42   C     C_3   0.865851 0.301245 0.324674 -0.366150
C43   C     C_3   0.741908 0.302289 0.291836 -0.883484
C44   C     C_3   0.724581 0.449015 0.947009 -0.355842
C45   C     C_3   0.407080 0.455120 0.932171 -0.484913
C46   C     C_3   0.753861 0.557322 0.941404 -0.797957
C47   C     C_1   0.496335 0.504752 0.173989 -0.081407
C48   C     C_1   0.505060 0.504431 0.826477 -0.079249
C49   C     C_1   0.503649 0.502833 0.750877 -0.190610
C50   C     C_R   0.715000 0.052423 0.460288 -0.201705
H1    H     H_    0.413924 0.662156 0.909075 0.151354
H2    H     H_    0.569907 0.757003 0.391041 0.162712
H3    H     H_    0.259102 0.329093 0.367349 0.135485
H4    H     H_    0.074714 0.284269 0.332023 0.135272
H5    H     H_    0.179638 0.554436 0.542243 0.120256
H6    H     H_    0.066698 0.628207 0.607846 0.158934
H7    H     H_    0.926642 0.712365 0.675503 0.149207
H8    H     H_    0.747569 0.406343 0.431464 0.239994
H9    H     H_    0.604201 0.358609 0.957622 0.067012
H10   H     H_    0.626147 0.370890 0.099969 0.047309
H11   H     H_    0.328189 0.501266 0.897890 0.199170
H12   H     H_    0.390634 0.650192 0.046472 0.149458
H13   H     H_    0.409354 0.376279 0.904404 0.187199
H14   H     H_    0.328070 0.482093 0.042104 0.200960
H15   H     H_    0.496864 0.825707 0.007375 0.266851
H16   H     H_    0.414191 0.826853 0.087821 0.264524
H17   H     H_    0.550386 0.862034 0.117898 0.263384
H18   H     H_    0.550966 0.687780 0.171957 0.220413
H19   H     H_    0.633368 0.685114 0.092801 0.258581
H20   H     H_    0.792151 0.250142 0.553157 0.346661
H21   H     H_    0.093681 0.882825 0.557585 0.266167
H22   H     H_    0.049971 0.884190 0.438966 0.262844
H23   H     H_    0.425667 0.366409 0.052002 0.190405
H24   H     H_    0.032307 0.777942 0.501617 0.265012
H25   H     H_    0.187010 0.728195 0.434619 0.232057
H26   H     H_    0.233784 0.731043 0.552183 0.211554
H27   H     H_    0.704987 0.273013 0.342304 0.283583
H28   H     H_    0.701361 0.381583 0.271440 0.274653
H29   H     H_    0.726719 0.251480 0.234480 0.235097
H30   H     H_    0.896117 0.319474 0.266472 0.186652
H31   H     H_    0.904571 0.222065 0.347948 0.226426
H32   H     H_    0.748025 0.725949 0.686181 0.302413
H33   H     H_    0.700964 0.599214 0.882880 0.248142
H34   H     H_    0.712440 0.862810 0.395363 0.147419
H35   H     H_    0.747450 0.601864 0.000898 0.282259
H36   H     H_    0.840183 0.551035 0.934246 0.231743
H37   H     H_    0.792514 0.402088 0.993912 0.190951
H38   H     H_    0.723606 0.412610 0.882499 0.194305
H39   H     H_    0.766460 0.448551 0.136548 0.332547
H40   H     H_    0.791757 0.019945 0.443586 0.158498
H41   H     H_    0.452133 0.165026 0.536697 0.175333
H42   H     H_    0.312665 0.099048 0.482239 0.148142
H43   H     H_    0.180926 0.992342 0.489047 0.163679
H44   H     H_    0.557658 0.659077 0.942015 0.189291
N1    N     N_R   0.222200 0.444690 0.455710 -0.104868
N2    N     N_R   0.776960 0.554780 0.543830 -0.140809
O1    O     O_R   0.366740 0.627160 0.478850 -0.637782
O2    O     O_3   0.718216 0.674612 0.643846 -0.734840
O3    O     O_3   0.700853 0.501554 0.117166 -0.787282
O4    O     O_R   0.544830 0.662520 0.507140 -0.550103
O5    O     O_R   0.410920 0.482310 0.608710 -0.620945
O6    O     O_R   0.589010 0.517670 0.637000 -0.556468
O7    O     O_R   0.455170 0.337480 0.492860 -0.610629
O8    O     O_R   0.633260 0.372840 0.521150 -0.642423
O9    O     O_R   0.410990 0.482330 0.363000 -0.609309
O10   O     O_R   0.589080 0.517690 0.391290 -0.643207
O11   O     O_3   0.792364 0.205201 0.501974 -0.787508
Zn1   Zn    Zn3+2 0.381090 0.476390 0.481110 0.927520
Zn2   Zn    Zn3+2 0.618910 0.523610 0.518890 0.971179

loop_
_geom_bond_atom_site_label_1
_geom_bond_atom_site_label_2
_ccdc_geom_bond_type
C32   H44   S    
C42   H30   S    
C8    C13   A    
C27   C29   A    
H32   O2    S    
C19   C20   A    
C18   C26   A    
C7    C8    A    
C43   H28   S    
C12   C23   S    
C26   C27   A    
H39   O3    S    
H20   O11   S    
C24   N2    A    
C5    C6    A    
C6    H42   S    
C43   H29   S    
C36   C47   T    
C15   C50   A    
C15   O11   S    
C24   C29   A    
C41   H24   S    
O1    Zn1   S    
C16   O8    A    
C28   O10   A    
C22   C25   A    
C50   H40   S    
O7    Zn1   S    
C44   H37   S    
C2    C16   S    
C9    C10   A    
C41   H21   S    
C46   H35   S    
O5    Zn1   S    
C38   H19   S    
O4    Zn2   S    
C33   H9    S    
C21   C22   A    
C12   C32   S    
C39   H15   S    
C42   H31   S    
C35   O3    S    
C1    O4    A    
C19   O2    S    
C44   C46   S    
C38   C39   S    
O9    Zn1   S    
C23   C47   S    
N1    Zn1   S    
C1    O1    A    
C25   C26   A    
C45   H13   S    
C33   C37   S    
C40   H26   S    
C4    O6    A    
C35   H10   S    
C9    C14   A    
C32   H1    S    
C30   N1    A    
C13   H2    S    
C12   H12   S    
C16   O7    A    
C28   O9    A    
C23   C34   S    
C4    O5    A    
C20   C21   A    
C34   H14   S    
C34   C45   S    
C32   C37   S    
C31   H3    S    
C37   C48   S    
C2    C15   A    
C41   H22   S    
C48   C49   T    
C38   H18   S    
C3    C40   S    
C23   C35   S    
C39   H16   S    
C22   C24   A    
C42   C43   S    
C37   C45   S    
C10   C50   A    
N2    Zn2   S    
C25   C30   A    
C7    C9    A    
C40   C41   S    
C33   C44   S    
C39   H17   S    
C3    C5    A    
C21   H6    S    
C5    H43   S    
C6    C7    A    
C11   H34   S    
C43   H27   S    
C30   H5    S    
C1    C17   S    
C8    C17   A    
C40   H25   S    
C4    C49   S    
C11   C13   A    
C27   C42   S    
O8    Zn2   S    
C31   N1    A    
C45   H11   S    
C33   C35   S    
C3    C17   A    
C12   C38   S    
C2    C14   A    
C14   H41   S    
C10   C11   A    
C18   H4    S    
C34   H23   S    
C46   H33   S    
C29   H8    S    
C28   C36   S    
O6    Zn2   S    
C18   C31   A    
C20   H7    S    
C44   H38   S    
C19   N2    A    
C46   H36   S    
O10   Zn2   S    
