data_mof_unit_30683.cif
_audit_creation_date              2012-12-10T17:52:40-0500
_audit_creation_method            fapswitch 2.2
_symmetry_space_group_name_H-M    P1
_symmetry_Int_Tables_number       1
_space_group_crystal_system       triclinic
_cell_length_a                    14.672466
_cell_length_b                    14.587044
_cell_length_c                    23.532565
_cell_angle_alpha                 76.70496
_cell_angle_beta                  102.63283
_cell_angle_gamma                 114.462111
_cell_volume                      4418.08848232

loop_
_atom_site_label
_atom_site_type_symbol
_atom_type_description
_atom_site_fract_x
_atom_site_fract_y
_atom_site_fract_z
_atom_type_partial_charge
C1    C     C_R   0.880765 0.311355 0.507992 0.791117
C2    C     C_R   0.119442 0.688606 0.492649 0.794969
C3    C     C_R   0.070648 0.478671 0.774195 -0.110548
C4    C     C_R   0.928981 0.519864 0.225934 -0.109974
C5    C     C_R   0.071993 0.478946 0.715146 -0.221322
C6    C     C_R   0.928227 0.520896 0.284868 -0.223347
C7    C     C_R   0.998272 0.500392 0.671320 -0.040643
C8    C     C_R   0.000675 0.497552 0.328875 -0.041256
C9    C     C_R   0.923374 0.521834 0.687671 -0.230778
C10   C     C_R   0.073422 0.472422 0.312876 -0.234117
C11   C     C_R   0.922219 0.521493 0.746829 -0.109377
C12   C     C_R   0.074067 0.471575 0.253822 -0.110535
C13   C     C_R   0.995747 0.499741 0.790255 0.373181
C14   C     C_R   0.002053 0.495625 0.210156 0.372945
C15   C     C_R   0.814762 0.201632 0.510022 -0.081436
C16   C     C_R   0.186969 0.797995 0.491011 -0.086109
C17   C     C_R   0.783001 0.021222 0.524396 -0.242161
C18   C     C_R   0.222302 0.978862 0.478360 -0.240188
C19   C     C_R   0.851112 0.123012 0.515640 0.098638
C20   C     C_R   0.153363 0.877751 0.487609 0.098405
C21   C     C_R   0.710540 0.175584 0.504931 -0.279867
C22   C     C_R   0.290903 0.822802 0.493955 -0.274076
C23   C     C_R   0.999489 0.500110 0.608979 0.800109
C24   C     C_R   0.000219 0.499360 0.391071 0.795001
C25   C     C_R   0.640953 0.074276 0.505514 0.077340
C26   C     C_R   0.361823 0.923821 0.492515 0.076354
C27   C     C_R   0.678597 0.995427 0.521930 0.093451
C28   C     C_R   0.325264 0.003334 0.477548 0.088980
C29   C     C_R   0.535092 0.050059 0.492666 0.037685
C30   C     C_R   0.467714 0.947472 0.504004 0.036545
C31   C     C_R   0.507755 0.871877 0.529245 -0.250677
C32   C     C_R   0.495103 0.125566 0.466848 -0.250162
C33   C     C_R   0.611818 0.893255 0.536806 0.082878
C34   C     C_R   0.391572 0.104934 0.461118 0.082583
C35   C     C_R   0.711295 0.662285 0.397630 -0.339563
C36   C     C_R   0.280044 0.324308 0.594413 -0.337646
C37   C     C_R   0.792113 0.631060 0.413177 0.095067
C38   C     C_R   0.201730 0.359001 0.581478 0.067381
C39   C     C_R   0.716416 0.512647 0.493129 -0.009836
C40   C     C_R   0.285382 0.490618 0.508562 -0.009593
C41   C     C_R   0.628325 0.536371 0.477388 -0.043312
C42   C     C_R   0.370254 0.461744 0.520985 -0.044359
C43   C     C_R   0.630352 0.618888 0.431114 0.115072
C44   C     C_R   0.364772 0.373685 0.563805 0.116683
C45   C     C_R   0.029241 0.588365 0.112077 0.514945
C46   C     C_R   0.969181 0.406873 0.888375 0.515235
C47   C     C_R   0.539956 0.481992 0.506237 0.043391
C48   C     C_R   0.458332 0.515827 0.491706 0.040160
C49   C     C_R   0.467920 0.604013 0.449246 -0.249093
C50   C     C_R   0.529203 0.391761 0.546877 -0.245857
C51   C     C_R   0.552731 0.657074 0.419537 0.101864
C52   C     C_R   0.442482 0.335548 0.574615 0.098821
C53   C     C_R   0.978465 0.407597 0.129713 0.531675
C54   C     C_R   0.019117 0.587544 0.870688 0.532242
C55   C     C_R   0.976876 0.406583 0.070137 -0.040834
C56   C     C_R   0.020887 0.588560 0.930277 -0.041253
C57   C     C_R   0.000566 0.498685 0.030322 -0.034198
C58   C     C_R   0.997346 0.496467 0.970100 -0.034164
C59   C     C_R   0.027391 0.592512 0.050822 -0.052794
C60   C     C_R   0.970673 0.402661 0.949605 -0.052947
C61   C     C_R   0.951128 0.314432 0.050333 -0.171832
C62   C     C_R   0.046567 0.680700 0.950069 -0.171659
C63   C     C_R   0.947176 0.309637 0.990839 0.070796
C64   C     C_R   0.050644 0.685511 0.009568 0.070890
Cu1   Cu    Cu3+1 0.081740 0.475680 0.515360 0.925625
Cu2   Cu    Cu3+1 0.918260 0.524320 0.484640 0.924611
H1    H     H_    0.458031 0.795679 0.544014 0.142028
H2    H     H_    0.544516 0.201263 0.450868 0.142420
H3    H     H_    0.136773 0.319933 0.604808 0.122327
H4    H     H_    0.853690 0.664603 0.387198 0.121761
H5    H     H_    0.713622 0.720676 0.359538 0.138954
H6    H     H_    0.272746 0.258669 0.628384 0.137323
H7    H     H_    0.409515 0.633277 0.438668 0.126085
H8    H     H_    0.587036 0.361785 0.555678 0.125680
H9    H     H_    0.865562 0.538567 0.654871 0.155213
H10   H     H_    0.129988 0.453777 0.345868 0.158829
H11   H     H_    0.863941 0.537559 0.759021 0.136192
H12   H     H_    0.130916 0.452999 0.241892 0.136876
H13   H     H_    0.315506 0.762188 0.495073 0.150444
H14   H     H_    0.684581 0.235668 0.502693 0.151742
N1    N     N_R   0.003831 0.497182 0.149187 -0.458076
N2    N     N_R   0.994082 0.498019 0.851244 -0.458402
N3    N     N_R   0.795430 0.560810 0.461550 -0.174660
N4    N     N_R   0.204570 0.439190 0.538450 -0.173682
O1    O     O_R   0.977900 0.338110 0.520250 -0.584784
O2    O     O_R   0.022100 0.661890 0.479750 -0.585309
O3    O     O_R   0.839850 0.379180 0.494310 -0.583893
O4    O     O_R   0.160150 0.620820 0.505690 -0.584449
O5    O     O_R   0.069020 0.479430 0.595090 -0.581740
O6    O     O_R   0.930980 0.520570 0.404910 -0.586235
O7    O     O_R   0.930970 0.520500 0.569150 -0.589974
O8    O     O_R   0.069030 0.479500 0.430850 -0.584661
O9    O     O_2   0.056644 0.673783 0.135281 -0.576202
O10   O     O_2   0.942756 0.321594 0.865230 -0.575580
O11   O     O_2   0.953755 0.319395 0.168057 -0.558004
O12   O     O_2   0.043310 0.675693 0.832286 -0.556331
H15   H     H_    0.934002 0.245712 0.082365 0.183170
H16   H     H_    0.063573 0.749406 0.918027 0.183344
H17   H     H_    0.812374 0.962036 0.532010 0.126326
H18   H     H_    0.194445 0.038506 0.473236 0.125371
C65   C     C_3   0.564169 0.757125 0.377368 -0.413290
C66   C     C_3   0.487570 0.804265 0.377083 -0.361715
C67   C     C_3   0.517048 0.911434 0.341485 -0.812525
H19   H     H_    0.591529 0.962763 0.361434 0.254128
H20   H     H_    0.520999 0.909547 0.295191 0.254063
H21   H     H_    0.459566 0.942483 0.341540 0.246473
H22   H     H_    0.411243 0.755958 0.357345 0.219097
H23   H     H_    0.484539 0.809652 0.422847 0.232367
H24   H     H_    0.640622 0.814290 0.390180 0.204513
H25   H     H_    0.559831 0.744774 0.331808 0.195171
C68   C     C_3   0.429515 0.232718 0.614081 -0.411459
C69   C     C_3   0.510856 0.190320 0.616838 -0.363255
C70   C     C_3   0.481845 0.081812 0.650582 -0.810011
H26   H     H_    0.472010 0.079897 0.696373 0.253740
H27   H     H_    0.410475 0.030023 0.628033 0.255090
H28   H     H_    0.542532 0.054087 0.652256 0.246447
H29   H     H_    0.520063 0.188543 0.571640 0.231711
H30   H     H_    0.584208 0.239504 0.639182 0.219595
H31   H     H_    0.426647 0.239420 0.659710 0.197339
H32   H     H_    0.355741 0.175559 0.597403 0.200137
H33   H     H_    0.279617 0.551914 0.474528 0.125769
H34   H     H_    0.725518 0.458004 0.530992 0.124569
C71   C     C_3   0.918239 0.206357 0.971765 -0.328079
C72   C     C_3   0.896192 0.111756 0.020043 -0.422941
C73   C     C_3   0.867155 0.015079 0.993960 -0.825027
H35   H     H_    0.795883 0.001570 0.962665 0.258788
H36   H     H_    0.927962 0.021840 0.970352 0.258993
H37   H     H_    0.855488 0.948580 0.029869 0.245704
H38   H     H_    0.964566 0.120000 0.053412 0.229171
H39   H     H_    0.832278 0.102741 0.041809 0.231464
H40   H     H_    0.848944 0.192808 0.938723 0.239748
H41   H     H_    0.981607 0.210589 0.951264 0.235119
C74   C     C_3   0.079253 0.788756 0.028603 -0.328520
C75   C     C_3   0.100225 0.883205 0.980224 -0.422434
C76   C     C_3   0.128621 0.979807 0.006244 -0.825137
H42   H     H_    0.067799 0.972489 0.030028 0.258715
H43   H     H_    0.200130 0.993953 0.037368 0.258678
H44   H     H_    0.139571 0.046172 0.970279 0.246128
H45   H     H_    0.164131 0.892833 0.958248 0.231487
H46   H     H_    0.031531 0.874294 0.947041 0.229497
H47   H     H_    0.016038 0.784095 0.049418 0.234788
H48   H     H_    0.148916 0.802824 0.061373 0.239907
H49   H     H_    0.127763 0.461967 0.807609 0.135292
H50   H     H_    0.872991 0.538300 0.192362 0.135256
H51   H     H_    0.130625 0.462221 0.703895 0.158363
H52   H     H_    0.871175 0.540311 0.295876 0.155257
C77   C     C_3   0.653400 0.809601 0.562752 -0.410248
C78   C     C_3   0.579394 0.707395 0.591039 -0.347158
C79   C     C_3   0.632367 0.633864 0.619233 -0.826731
H53   H     H_    0.669870 0.623248 0.586470 0.255911
H54   H     H_    0.690115 0.663802 0.656799 0.248559
H55   H     H_    0.576008 0.558636 0.635850 0.248740
H56   H     H_    0.547207 0.720235 0.625712 0.222400
H57   H     H_    0.516924 0.671512 0.557109 0.226953
H58   H     H_    0.683011 0.795480 0.527332 0.200781
H59   H     H_    0.717351 0.838222 0.597994 0.203099
C80   C     C_3   0.349866 0.188670 0.435980 -0.413495
C81   C     C_3   0.422224 0.289852 0.405697 -0.342708
C82   C     C_3   0.368455 0.362961 0.378333 -0.828508
H60   H     H_    0.308474 0.331849 0.341901 0.246992
H61   H     H_    0.333472 0.374757 0.411949 0.259297
H62   H     H_    0.423777 0.437774 0.360336 0.248648
H63   H     H_    0.486890 0.326892 0.438286 0.226154
H64   H     H_    0.451419 0.275396 0.370248 0.221504
H65   H     H_    0.283374 0.159141 0.402261 0.203607
H66   H     H_    0.323734 0.204512 0.472262 0.202201
C83   C     C_3   0.047462 0.862144 0.494625 -0.392146
C84   C     C_3   0.986517 0.881239 0.434515 -0.312353
C85   C     C_3   0.884775 0.879266 0.441443 -0.881812
H67   H     H_    0.842820 0.807989 0.469673 0.264389
H68   H     H_    0.896559 0.945208 0.461792 0.249839
H69   H     H_    0.839012 0.884811 0.397454 0.239932
H70   H     H_    0.028952 0.957027 0.409992 0.216040
H71   H     H_    0.974487 0.822461 0.407974 0.220524
H72   H     H_    0.007099 0.786234 0.519280 0.216558
H73   H     H_    0.053051 0.917038 0.522439 0.183094
C86   C     C_3   0.959752 0.142809 0.511303 -0.398605
C87   C     C_3   0.983762 0.188209 0.447962 -0.293885
C88   C     C_3   0.095022 0.217355 0.444167 -0.848019
H74   H     H_    0.143526 0.278455 0.470782 0.269613
H75   H     H_    0.115700 0.150047 0.460538 0.236894
H76   H     H_    0.108992 0.245769 0.397612 0.241125
H77   H     H_    0.936800 0.131089 0.418363 0.211751
H78   H     H_    0.965319 0.257019 0.431434 0.225615
H79   H     H_    0.013150 0.191160 0.543776 0.213735
H80   H     H_    0.973299 0.070788 0.523903 0.172315

loop_
_geom_bond_atom_site_label_1
_geom_bond_atom_site_label_2
_ccdc_geom_bond_type
C1    O3    A    
Cu1   O8    S    
C42   C44   A    
C18   C28   A    
C65   C66   S    
C71   H41   S    
C53   O11   S    
C85   H68   S    
C85   H67   S    
C40   N4    A    
C77   C78   S    
C45   O9    S    
C45   N1    A    
C87   C88   S    
C76   H42   S    
C39   C41   A    
C27   C33   A    
C84   H71   S    
C40   H33   S    
C59   C64   A    
C80   C81   S    
C39   H34   S    
C78   H57   S    
C60   C63   A    
C53   N1    A    
C35   C37   A    
C22   H13   S    
C15   C19   A    
C29   C32   A    
C50   H8    S    
C75   H46   S    
C69   H29   S    
C6    H52   S    
C57   C59   A    
C58   C60   A    
C86   H79   S    
C18   C20   A    
C68   H31   S    
C11   H11   S    
Cu2   O7    S    
C61   C63   A    
C62   C64   A    
C33   C77   S    
C17   C19   A    
Cu2   N3    S    
C46   N2    A    
C10   H10   S    
C74   H48   S    
C68   C69   S    
C49   C51   A    
C12   H12   S    
C73   H37   S    
C50   C52   A    
C82   H61   S    
C2    O4    A    
C1    C15   S    
C35   C43   A    
C19   C86   S    
C54   O12   S    
C87   H77   S    
C3    C13   A    
C81   H64   S    
C32   H2    S    
C88   H76   S    
C46   C60   A    
C44   C52   A    
C40   C42   A    
C38   H3    S    
C35   H5    S    
C83   C84   S    
C62   H16   S    
C37   H4    S    
C25   C29   A    
C41   C43   A    
C18   H18   S    
C24   O8    A    
C69   C70   S    
C47   C50   A    
C53   C55   A    
C1    O1    A    
C84   H70   S    
C54   C56   A    
C72   C73   S    
C5    H51   S    
C17   C27   A    
C47   C48   A    
C84   C85   S    
C71   C72   S    
C3    H49   S    
C78   C79   S    
C4    C6    A    
C79   H55   S    
C80   H65   S    
C75   H45   S    
C5    C7    A    
Cu1   N4    S    
C6    C8    A    
C52   C68   S    
C65   H25   S    
C71   H40   S    
C13   N2    S    
C86   H80   S    
C68   H32   S    
C32   C34   A    
C81   C82   S    
C31   H1    S    
Cu2   O2    S    
C29   C30   A    
C74   C75   S    
C17   H17   S    
C82   H60   S    
C46   O10   S    
C16   C20   A    
C31   C33   A    
C23   O5    A    
C41   C47   A    
C82   H62   S    
C72   H39   S    
C66   H22   S    
C67   H20   S    
C42   C48   A    
C66   H23   S    
C77   H59   S    
C9    C11   A    
C56   C62   A    
C76   H44   S    
C10   C12   A    
C81   H63   S    
C48   C49   A    
Cu2   O6    S    
C12   C14   A    
Cu1   Cu2   S    
C55   C57   A    
C73   H35   S    
C85   H69   S    
C23   O7    A    
C36   C44   A    
C51   C65   S    
C78   H56   S    
C54   N2    A    
C77   H58   S    
Cu1   O4    S    
C83   H72   S    
C70   H26   S    
C76   H43   S    
C20   C83   S    
C21   C25   A    
C64   C74   S    
C45   C59   A    
C16   C22   A    
C38   N4    A    
C74   H47   S    
C61   H15   S    
C3    C5    A    
C24   O6    A    
C80   H66   S    
C4    H50   S    
C63   C71   S    
Cu1   O1    S    
C75   C76   S    
C2    C16   S    
C25   C27   A    
Cu1   O5    S    
C26   C28   A    
C70   H28   S    
C79   H54   S    
C39   N3    A    
C79   H53   S    
C69   H30   S    
C11   C13   A    
C43   C51   A    
C57   C58   A    
C30   C31   A    
Cu2   O3    S    
C7    C23   S    
C55   C61   A    
C21   H14   S    
C36   C38   A    
C8    C24   S    
C56   C58   A    
C72   H38   S    
C2    O2    A    
C67   H21   S    
C49   H7    S    
C4    C14   A    
C66   C67   S    
C28   C34   A    
C88   H74   S    
C34   C80   S    
C7    C9    A    
C15   C21   A    
C8    C10   A    
C86   C87   S    
C22   C26   A    
C67   H19   S    
C73   H36   S    
C37   N3    A    
C9    H9    S    
C14   N1    S    
C88   H75   S    
C65   H24   S    
C87   H78   S    
C36   H6    S    
C83   H73   S    
C70   H27   S    
C26   C30   A    
