data_mof_unit_5763.cif
_audit_creation_date              2012-12-10T17:19:55-0500
_audit_creation_method            fapswitch 2.2
_symmetry_space_group_name_H-M    P1
_symmetry_Int_Tables_number       1
_space_group_crystal_system       triclinic
_cell_length_a                    9.649189
_cell_length_b                    10.76151
_cell_length_c                    15.514153
_cell_angle_alpha                 86.879007
_cell_angle_beta                  73.856694
_cell_angle_gamma                 90.903828
_cell_volume                      1544.36693438

loop_
_atom_site_label
_atom_site_type_symbol
_atom_type_description
_atom_site_fract_x
_atom_site_fract_y
_atom_site_fract_z
_atom_type_partial_charge
C1    C     C_R   0.997668 0.262650 0.503374 0.859627
C2    C     C_R   0.673978 0.469722 0.909835 0.089312
C3    C     C_R   0.774748 0.496979 0.958193 0.167677
C4    C     C_R   0.525353 0.446497 0.957042 0.069111
C5    C     C_R   0.479036 0.461027 0.051223 0.063426
C6    C     C_R   0.584403 0.480033 0.097191 -0.221855
C7    C     C_R   0.728936 0.499422 0.051335 -0.235754
C8    C     C_R   0.421640 0.408217 0.913906 -0.221451
C9    C     C_R   0.276474 0.391649 0.960736 -0.238724
C10   C     C_R   0.228427 0.416613 0.051199 0.165809
C11   C     C_R   0.328827 0.454157 0.096796 0.098070
C12   C     C_R   0.917729 0.498912 0.671960 0.754824
C13   C     C_R   0.080656 0.404868 0.096714 -0.218506
C14   C     C_R   0.030559 0.434506 0.186323 -0.153061
C15   C     C_R   0.275086 0.487105 0.186044 -0.260283
C16   C     C_R   0.078148 0.119914 0.646879 -0.146082
C17   C     C_R   0.121135 0.050748 0.713060 -0.134718
C18   C     C_R   0.123404 0.921588 0.712589 -0.134705
C19   C     C_R   0.082515 0.860785 0.646011 -0.151918
C20   C     C_R   0.040577 0.929095 0.577404 0.090841
C21   C     C_R   0.038724 0.060457 0.577612 0.021823
C22   C     C_R   0.993029 0.128127 0.510026 -0.239415
C23   C     C_R   0.998890 0.736699 0.503634 0.829329
C24   C     C_R   0.943592 0.066747 0.446633 0.603407
C25   C     C_R   0.944477 0.938636 0.447064 -0.291850
C26   C     C_R   0.995706 0.869978 0.510075 -0.194391
C27   C     C_R   0.712070 0.636387 0.364491 -0.128580
C28   C     C_R   0.686110 0.672566 0.283979 -0.253659
C29   C     C_R   0.546972 0.667674 0.277967 -0.285735
C30   C     C_R   0.433171 0.639457 0.355703 0.281343
C31   C     C_R   0.459228 0.568557 0.431238 0.171710
C32   C     C_R   0.607718 0.567474 0.432779 0.172862
C33   C     C_R   0.543628 0.435073 0.564089 -0.039467
C34   C     C_R   0.081981 0.495801 0.328273 0.798536
C35   C     C_R   0.396139 0.435327 0.564223 -0.066143
C36   C     C_R   0.871056 0.496193 0.770567 -0.038957
C37   C     C_R   0.127996 0.475971 0.231461 -0.052743
C38   C     C_R   0.920931 0.521416 0.912892 -0.213648
C39   C     C_R   0.969056 0.520062 0.819715 -0.210836
C40   C     C_R   0.725087 0.471270 0.815612 -0.243248
Cu1   Cu    Cu3+1 0.140660 0.499990 0.500010 0.951105
Cu2   Cu    Cu3+1 0.859340 0.500010 0.499990 0.961758
H1    H     H_    0.805060 0.517613 0.089286 0.147140
H2    H     H_    0.004073 0.371679 0.063074 0.142283
H3    H     H_    0.073561 0.219636 0.651904 0.132309
H4    H     H_    0.151058 0.097526 0.765597 0.129359
H5    H     H_    0.155114 0.868102 0.764740 0.135348
H6    H     H_    0.081720 0.760232 0.650131 0.145556
H7    H     H_    0.908838 0.892667 0.396128 0.167332
H8    H     H_    0.573589 0.381261 0.616696 0.125837
H9    H     H_    0.814411 0.665648 0.370723 0.194024
H10   H     H_    0.771507 0.715718 0.229170 0.167287
H11   H     H_    0.345901 0.523916 0.221458 0.145176
H12   H     H_    0.525896 0.712639 0.218852 0.163259
H13   H     H_    0.316917 0.381861 0.616873 0.127392
H14   H     H_    0.916475 0.422791 0.220592 0.175085
H15   H     H_    0.200825 0.361555 0.925269 0.144321
H16   H     H_    0.997952 0.543128 0.949495 0.140323
H17   H     H_    0.082166 0.540100 0.786124 0.151614
H18   H     H_    0.652683 0.456194 0.775299 0.145988
H19   H     H_    0.558849 0.476618 0.169355 0.164422
H20   H     H_    0.449280 0.386962 0.844261 0.134741
N1    N     N_R   0.648320 0.501210 0.499140 -0.189810
N2    N     N_R   0.352470 0.501290 0.499110 -0.190967
O1    O     O_R   0.118810 0.319640 0.500010 -0.584878
O2    O     O_R   0.881240 0.319660 0.500000 -0.531404
O3    O     O_R   0.055570 0.499980 0.629840 -0.605414
O4    O     O_R   0.818000 0.500010 0.629830 -0.588831
O5    O     O_R   0.118760 0.680340 0.500000 -0.543797
O6    O     O_R   0.881190 0.680360 0.499990 -0.599866
O7    O     O_R   0.182000 0.499990 0.370170 -0.574016
O8    O     O_R   0.944430 0.500020 0.370160 -0.590782
F1    F     F_    0.899126 0.131468 0.382019 -0.659640
N3    N     N_2   0.315658 0.719052 0.364031 -0.370838
H21   H     H_    0.276561 0.722799 0.308419 0.224895
C41   C     C_3   0.345601 0.843420 0.387909 -0.630203
H22   H     H_    0.253457 0.903566 0.388191 0.219481
H23   H     H_    0.442068 0.887434 0.338010 0.221472
H24   H     H_    0.363399 0.839583 0.455755 0.240960

loop_
_geom_bond_atom_site_label_1
_geom_bond_atom_site_label_2
_ccdc_geom_bond_type
C14   H14   S    
C16   C21   A    
C40   H18   S    
C34   C37   S    
Cu1   Cu2   S    
C23   O5    A    
C19   C20   A    
C41   H24   S    
C4    C8    A    
C18   H5    S    
Cu1   O3    S    
C12   O4    A    
N3    C41   S    
C15   H11   S    
C6    H19   S    
C28   C29   A    
C41   H23   S    
C5    C11   A    
C3    C7    A    
C5    C6    A    
C30   N3    S    
C24   F1    S    
C29   H12   S    
Cu2   O6    S    
C18   C19   A    
C23   C26   S    
C15   C37   A    
C38   H16   S    
C11   C15   A    
C3    C38   A    
C8    C9    A    
C1    O1    A    
C35   N2    A    
C7    H1    S    
C12   C36   S    
C9    C10   A    
Cu1   O7    S    
C1    C22   S    
C21   C22   A    
Cu2   O4    S    
C23   O6    A    
C27   H9    S    
C17   C18   A    
C41   H22   S    
C38   C39   A    
C12   O3    A    
N3    H21   S    
C35   H13   S    
C36   C40   A    
C24   C25   A    
C19   H6    S    
C16   C17   A    
Cu1   O1    S    
C25   C26   A    
C2    C4    A    
C29   C30   A    
C31   C32   A    
C33   N1    A    
C39   H17   S    
Cu2   O8    S    
C1    O2    A    
C17   H4    S    
C22   C24   A    
C34   O8    A    
Cu1   O5    S    
C27   C32   A    
C31   N2    A    
C36   C39   A    
C32   N1    A    
C4    C5    A    
C10   C13   A    
C16   H3    S    
C6    C7    A    
C2    C3    A    
C33   H8    S    
C14   C37   A    
C28   H10   S    
C30   C31   A    
C20   C26   A    
C34   O7    A    
C33   C35   A    
C9    H15   S    
C25   H7    S    
C10   C11   A    
C2    C40   A    
C20   C21   A    
C27   C28   A    
Cu2   O2    S    
Cu1   N2    S    
C13   C14   A    
Cu2   N1    S    
C13   H2    S    
C8    H20   S    
