data_mof_unit_43782.cif
_audit_creation_date              2012-12-10T18:33:34-0500
_audit_creation_method            fapswitch 2.2
_symmetry_space_group_name_H-M    P1
_symmetry_Int_Tables_number       1
_space_group_crystal_system       triclinic
_cell_length_a                    8.730881
_cell_length_b                    15.116135
_cell_length_c                    13.873144
_cell_angle_alpha                 89.367906
_cell_angle_beta                  97.928409
_cell_angle_gamma                 90.314239
_cell_volume                      1813.31190829

loop_
_atom_site_label
_atom_site_type_symbol
_atom_type_description
_atom_site_fract_x
_atom_site_fract_y
_atom_site_fract_z
_atom_type_partial_charge
C1    C     C_R   0.498349 0.329767 0.500412 0.805894
C2    C     C_R   0.497996 0.670106 0.499187 0.805368
C3    C     C_R   0.627027 0.532395 0.118473 -0.271686
C4    C     C_R   0.406799 0.440823 0.884492 -0.269934
C5    C     C_R   0.624172 0.532543 0.219597 0.081463
C6    C     C_R   0.407356 0.442561 0.783176 0.077717
C7    C     C_R   0.375464 0.467852 0.198902 0.089117
C8    C     C_R   0.591047 0.558395 0.797603 0.099031
C9    C     C_R   0.372164 0.468312 0.097239 -0.270704
C10   C     C_R   0.591550 0.560240 0.899013 -0.269960
C11   C     C_R   0.499515 0.500392 0.054526 0.133317
C12   C     C_R   0.499416 0.500424 0.945098 0.126632
C13   C     C_R   0.203708 0.499933 0.475112 0.882025
C14   C     C_R   0.796301 0.499982 0.524885 0.885710
C15   C     C_2   0.037916 0.499924 0.461373 -0.369545
C16   C     C_2   0.962115 0.499852 0.538612 -0.361830
C17   C     C_R   0.428497 0.089888 0.561410 -0.145121
C18   C     C_R   0.425385 0.908565 0.424001 -0.148004
C19   C     C_R   0.419423 0.181919 0.563711 0.174850
C20   C     C_R   0.415263 0.816433 0.421909 0.162255
C21   C     C_R   0.501483 0.232831 0.501483 -0.083646
C22   C     C_R   0.500642 0.766841 0.497851 -0.080303
C23   C     C_R   0.589194 0.190572 0.438150 -0.200703
C24   C     C_R   0.592470 0.810122 0.574117 -0.204477
C25   C     C_R   0.599387 0.098257 0.436594 0.018154
C26   C     C_R   0.603468 0.902457 0.575737 0.022098
C27   C     C_R   0.517837 0.048189 0.499267 -0.059321
C28   C     C_R   0.518614 0.951417 0.499518 -0.059156
Cu1   Cu    Cu3+1 0.500000 0.499990 0.596430 0.944209
Cu2   Cu    Cu3+1 0.500000 0.500010 0.403570 0.941581
H1    H     H_    0.978018 0.500019 0.387269 0.168141
H2    H     H_    0.022061 0.499704 0.612715 0.176215
H3    H     H_    0.365620 0.049874 0.608306 0.153357
H4    H     H_    0.359444 0.947724 0.366938 0.155146
H5    H     H_    0.652265 0.230157 0.391041 0.195527
H6    H     H_    0.658003 0.771300 0.631614 0.184841
H7    H     H_    0.730078 0.556398 0.091432 0.129424
H8    H     H_    0.334948 0.392132 0.914455 0.134094
H9    H     H_    0.722600 0.558675 0.266630 0.121899
H10   H     H_    0.332889 0.397859 0.737893 0.120274
H11   H     H_    0.277048 0.441860 0.229616 0.128277
H12   H     H_    0.663007 0.604524 0.763787 0.126498
H13   H     H_    0.268870 0.444515 0.052983 0.130670
H14   H     H_    0.662472 0.609382 0.940195 0.137221
N1    N     N_R   0.500000 0.500020 0.258690 -0.175356
N2    N     N_R   0.500000 0.499980 0.741310 -0.175713
O1    O     O_R   0.500010 0.371450 0.581430 -0.581536
O2    O     O_R   0.499990 0.628550 0.418570 -0.578825
O3    O     O_R   0.500010 0.371460 0.418560 -0.580438
O4    O     O_R   0.499990 0.628540 0.581440 -0.589768
O5    O     O_R   0.274840 0.499990 0.562640 -0.580030
O6    O     O_R   0.725160 0.500010 0.437360 -0.589158
O7    O     O_R   0.274840 0.500000 0.399770 -0.601182
O8    O     O_R   0.725160 0.500000 0.600230 -0.590416
C29   C     C_3   0.319949 0.223342 0.631307 -0.847099
H15   H     H_    0.395125 0.255462 0.691980 0.239397
H16   H     H_    0.240594 0.272629 0.591290 0.228408
H17   H     H_    0.247860 0.173284 0.663577 0.226634
C30   C     C_3   0.309206 0.773308 0.340586 -0.824247
H18   H     H_    0.228428 0.727213 0.371157 0.226057
H19   H     H_    0.238647 0.822897 0.294636 0.224192
H20   H     H_    0.378022 0.736663 0.292702 0.251052
C31   C     C_2   0.696673 0.055163 0.370882 0.356839
H21   H     H_    0.710182 0.983865 0.371711 0.083531
O9    O     O_2   0.763666 0.098895 0.314895 -0.537851
C32   C     C_2   0.704782 0.946745 0.656035 0.355627
H22   H     H_    0.719448 0.018036 0.655977 0.084471
O10   O     O_2   0.773887 0.904016 0.723461 -0.541203

loop_
_geom_bond_atom_site_label_1
_geom_bond_atom_site_label_2
_ccdc_geom_bond_type
C2    C22   S    
C8    H12   S    
C32   O10   D    
C11   C12   S    
C31   O9    D    
C14   O6    A    
C1    C21   S    
Cu1   Cu2   S    
C16   H2    S    
C18   H4    S    
Cu2   N1    S    
C26   C28   A    
C13   C15   S    
Cu1   N2    S    
C29   H15   S    
C3    C5    A    
C29   H16   S    
C32   H22   S    
C18   C28   A    
C30   H18   S    
C5    N1    A    
Cu2   O7    S    
C20   C30   S    
C15   H1    S    
C9    C11   A    
C6    N2    A    
C24   H6    S    
C17   H3    S    
Cu1   O1    S    
C10   C12   A    
C22   C24   A    
Cu2   O2    S    
C14   O8    A    
Cu2   O3    S    
C4    H8    S    
C13   O7    A    
Cu1   O4    S    
C5    H9    S    
C21   C23   A    
Cu1   O5    S    
C25   C27   A    
C23   H5    S    
C14   C16   S    
C9    H13   S    
C4    C6    A    
C4    C12   A    
Cu1   O8    S    
C20   C22   A    
C10   H14   S    
C31   H21   S    
C26   C32   S    
C7    N1    A    
C6    H10   S    
C3    C11   A    
C3    H7    S    
C18   C20   A    
C8    C10   A    
C23   C25   A    
C25   C31   S    
C30   H19   S    
C19   C29   S    
C27   C28   S    
C7    C9    A    
C29   H17   S    
C17   C19   A    
C30   H20   S    
Cu2   O6    S    
C2    O4    A    
C8    N2    A    
C2    O2    A    
C13   O5    A    
C1    O3    A    
C1    O1    A    
C15   C16   D    
C7    H11   S    
C24   C26   A    
C19   C21   A    
C17   C27   A    
