data_mof_unit_36474.cif
_audit_creation_date              2013-03-05T15:57:26-0500
_audit_creation_method            fapswitch 2.2
_symmetry_space_group_name_H-M    P1
_symmetry_Int_Tables_number       1
_space_group_crystal_system       triclinic
_cell_length_a                    13.058379
_cell_length_b                    13.039506
_cell_length_c                    15.434174
_cell_angle_alpha                 116.50727
_cell_angle_beta                  63.795945
_cell_angle_gamma                 97.097787
_cell_volume                      2101.22146802

loop_
_atom_site_label
_atom_site_type_symbol
_atom_site_description
_atom_site_fract_x
_atom_site_fract_y
_atom_site_fract_z
_atom_type_partial_charge
C1    C     C_R   0.000806 0.832765 0.053792 -0.141148
H1    H     H_    0.030190 0.894705 0.110967 0.102865
N1    N     N_R   0.037320 0.720000 0.995830 -0.056691
C2    C     C_R   0.679699 0.476238 0.219177 -0.151744
H2    H     H_    0.609550 0.438415 0.199959 0.097435
N2    N     N_R   0.790770 0.446140 0.151990 -0.045009
C3    C     C_R   0.751942 0.527038 0.900198 -0.105511
H3    H     H_    0.768738 0.564017 0.845664 0.185620
N3    N     N_R   0.824900 0.517970 0.936430 -0.051468
C4    C     C_R   0.018416 0.697005 0.299775 -0.166444
H4    H     H_    0.995376 0.663713 0.357637 0.106850
N4    N     N_R   0.003190 0.648180 0.211390 -0.039645
C5    C     C_R   0.675795 0.424689 0.993298 -0.138581
H5    H     H_    0.629902 0.361540 0.019727 0.092950
N5    N     N_R   0.774330 0.457010 0.995830 -0.046441
C6    C     C_R   0.095862 0.799347 0.207819 -0.126788
H6    H     H_    0.145719 0.860442 0.180211 0.097336
N6    N     N_R   0.053760 0.709130 0.151980 -0.042731
C7    C     C_R   0.783149 0.576241 0.307420 -0.115182
H7    H     H_    0.807564 0.638154 0.368120 0.108482
N7    N     N_R   0.853840 0.498830 0.211390 -0.045070
C8    C     C_R   0.900931 0.748373 0.957677 -0.053211
H8    H     H_    0.837246 0.733094 0.927670 0.125771
N8    N     N_R   0.974250 0.667320 0.936430 -0.052642
C9    C     C_R   0.913681 0.852533 0.032542 0.141685
C10   C     C_R   0.673502 0.555044 0.318826 0.089501
C11   C     C_R   0.659612 0.467327 0.933333 0.104467
C12   C     C_R   0.075151 0.791565 0.299663 0.060633
C13   C     C_R   0.337708 0.519495 0.953904 -0.055150
H9    H     H_    0.395858 0.559670 0.905484 0.104559
N9    N     N_R   0.225670 0.542990 0.004170 -0.057012
C14   C     C_R   0.959458 0.179906 0.781792 -0.115374
H10   H     H_    0.922929 0.111884 0.804319 0.148777
N10   N     N_R   0.946240 0.290870 0.848020 -0.049502
C15   C     C_R   0.209462 0.484320 0.688216 -0.146315
H11   H     H_    0.183116 0.442086 0.625472 0.117238
N11   N     N_R   0.146160 0.501170 0.788610 -0.048818
C16   C     C_R   0.061939 0.251574 0.077522 -0.140950
H12   H     H_    0.104474 0.267247 0.127704 0.086062
N12   N     N_R   0.025750 0.332680 0.063570 -0.035699
C17   C     C_R   0.959828 0.169041 0.985630 -0.101956
H13   H     H_    0.907567 0.109382 0.951820 0.111304
N13   N     N_R   0.962680 0.280000 0.004170 -0.047605
C18   C     C_R   0.304508 0.582595 0.785907 -0.023987
H14   H     H_    0.361172 0.641212 0.814196 0.098932
N14   N     N_R   0.209230 0.553860 0.848010 -0.056900
C19   C     C_R   0.259286 0.420910 0.051875 -0.167510
H15   H     H_    0.249678 0.370453 0.094030 0.094040
N15   N     N_R   0.175100 0.482030 0.063570 -0.040665
C20   C     C_R   0.041347 0.279099 0.684709 -0.034931
H16   H     H_    0.077630 0.300889 0.618153 0.115723
N16   N     N_R   0.996810 0.351820 0.788610 -0.034524
Ni1   Ni    Ni4+2 0.130310 0.630310 0.000000 0.210369
Ni2   Ni    Ni4+2 0.869690 0.369690 0.000000 0.214249
Ni3   Ni    Ni4+2 0.985660 0.509480 0.863750 0.274038
Ni4   Ni    Ni4+2 0.014340 0.490520 0.136250 0.211314
C21   C     C_R   0.361238 0.440808 0.980924 0.190845
C22   C     C_R   0.020516 0.171402 0.679835 0.027528
C23   C     C_R   0.307995 0.537335 0.684563 0.142140
C24   C     C_R   0.023188 0.146876 0.028876 0.069186
H17   H     H_    0.595656 0.754601 0.107324 0.106793
C25   C     C_R   0.429168 0.719212 0.202617 -0.121735
H18   H     H_    0.453445 0.628342 0.168898 0.116699
C26   C     C_R   0.317727 0.765326 0.281141 -0.132917
H19   H     H_    0.257231 0.709084 0.308012 0.114369
C27   C     C_R   0.285193 0.883385 0.325413 0.130441
C28   C     C_R   0.366898 0.954432 0.290726 -0.160704
H20   H     H_    0.344029 0.045522 0.323605 0.113260
C29   C     C_R   0.478354 0.907912 0.212233 -0.098958
H21   H     H_    0.540690 0.963001 0.185542 0.112815
C30   C     C_R   0.509386 0.790397 0.168053 -0.081397
C31   C     C_R   0.148624 0.028851 0.504848 -0.242851
H22   H     H_    0.221021 0.070052 0.518543 0.147995
C32   C     C_R   0.036590 0.071050 0.584590 0.081322
C33   C     C_R   0.940576 0.019970 0.570917 0.152722
C34   C     C_R   0.958360 0.926648 0.475891 -0.200236
H23   H     H_    0.884540 0.888658 0.462643 0.133441
C35   C     C_R   0.069315 0.884129 0.395931 0.045063
C36   C     C_R   0.166667 0.932656 0.408762 0.018015
C37   C     C_R   0.753979 0.022746 0.721686 0.540859
C38   C     C_R   0.636157 0.058967 0.784014 -0.362123
H24   H     H_    0.583300 0.026533 0.841830 0.144344
C39   C     C_R   0.584858 0.134219 0.769529 -0.245859
H25   H     H_    0.493521 0.158039 0.816453 0.180252
C40   C     C_R   0.650418 0.176722 0.694127 0.422534
C41   C     C_R   0.768669 0.144025 0.635015 -0.311889
H26   H     H_    0.820044 0.173611 0.574771 0.234688
C42   C     C_R   0.820493 0.067183 0.647876 -0.049539
H27   H     H_    0.039009 0.382382 0.320551 0.098258
C43   C     C_R   0.871844 0.335141 0.330255 -0.046121
H28   H     H_    0.902627 0.248517 0.268168 0.108382
C44   C     C_R   0.756274 0.373261 0.377550 -0.025597
H29   H     H_    0.698716 0.316821 0.348555 0.108618
C45   C     C_R   0.717147 0.486733 0.457106 0.112354
C46   C     C_R   0.792295 0.558208 0.494840 -0.119310
H30   H     H_    0.763019 0.646004 0.556114 0.146240
C47   C     C_R   0.908436 0.520893 0.444062 -0.052351
H31   H     H_    0.967806 0.578757 0.468032 0.116091
C48   C     C_R   0.948694 0.410475 0.360227 -0.069684
C49   C     C_R   0.511288 0.534015 0.579055 0.475991
C50   C     C_R   0.399444 0.549005 0.593245 -0.070689
C51   C     C_R   0.378718 0.569645 0.519102 0.005703
C52   C     C_R   0.470502 0.583834 0.436292 -0.241822
H32   H     H_    0.455983 0.597717 0.378102 0.142407
C53   C     C_R   0.581500 0.565506 0.419653 0.026557
C54   C     C_R   0.602872 0.535655 0.488582 -0.173371
C55   C     C_R   0.262251 0.441300 0.433194 -0.214036
H33   H     H_    0.339249 0.385150 0.370347 0.143032
C56   C     C_R   0.156346 0.398390 0.446253 -0.338066
H34   H     H_    0.154643 0.310349 0.391984 0.184831
C57   C     C_R   0.055469 0.462448 0.535718 0.254607
C58   C     C_R   0.060548 0.580108 0.602435 0.247692
C59   C     C_R   0.169238 0.621149 0.589062 -0.307003
H35   H     H_    0.176434 0.705864 0.645260 0.188922
C60   C     C_R   0.269365 0.548504 0.510143 0.114631
C61   C     C_2   0.473307 0.404823 0.957890 -0.226372
H36   H     H_    0.476296 0.359371 0.000865 0.118540
C62   C     C_2   0.564347 0.449713 0.907277 -0.115777
H37   H     H_    0.562584 0.491578 0.861040 0.165106
C63   C     C_2   0.836371 0.958014 0.087898 -0.206827
H38   H     H_    0.783444 0.965421 0.052677 0.142050
C64   C     C_2   0.823212 0.041837 0.183301 -0.175539
H39   H     H_    0.870618 0.038327 0.224737 0.148004
O1    O     O_3   0.805129 0.942529 0.729372 -0.741641
H40   H     H_    0.746622 0.919978 0.784278 0.326317
N17   N     N_R   0.596895 0.249365 0.674859 0.240581
O2    O     O_R   0.658795 0.296638 0.611950 -0.341710
O3    O     O_R   0.485749 0.265914 0.717176 -0.399817
O4    O     O_3   0.528024 0.502565 0.646984 -0.716415
H41   H     H_    0.603103 0.524607 0.647466 0.348939
N18   N     N_R   0.953816 0.403167 0.562511 0.256402
O5    O     O_R   0.945475 0.305202 0.489994 -0.430939
O6    O     O_R   0.886581 0.428375 0.662498 -0.403208
N19   N     N_R   0.959034 0.657966 0.683484 0.239096
O7    O     O_R   0.968502 0.761767 0.747340 -0.420457
O8    O     O_R   0.859760 0.634145 0.682572 -0.404697

loop_
_geom_bond_atom_site_label_1
_geom_bond_atom_site_label_2
_geom_bond_distance
_ccdc_geom_bond_type
C6    C12   1.369642 A    
N17   O2    1.301551 A    
C55   C56   1.389072 A    
C17   H13   1.078959 S    
C41   H26   1.081119 S    
C46   H30   1.083310 S    
C14   C22   1.371982 A    
C47   H31   1.080181 S    
C40   N17   1.439727 S    
C3    H3    1.078049 S    
C19   N15   1.337593 A    
C40   C41   1.403528 A    
C18   H14   1.081679 S    
N8    Ni3   1.839531 S    
C27   C36   1.487556 S    
C13   H9    1.076803 S    
H27   C48   1.081117 S    
C15   N11   1.319974 A    
N9    N15   1.376422 A    
O4    H41   0.989326 S    
C31   C36   1.390038 A    
C56   C57   1.405567 A    
C16   H12   1.077392 S    
C41   C42   1.401812 A    
C18   C23   1.384461 A    
C4    C12   1.358030 A    
C3    C11   1.378515 A    
C61   H36   1.082682 S    
C15   C23   1.373875 A    
C1    H1    1.079128 S    
C29   C30   1.397845 A    
C7    C10   1.371315 A    
C62   H37   1.083124 S    
C44   H29   1.083136 S    
C25   C26   1.398669 A    
C51   C60   1.475561 S    
N6    Ni1   1.894452 S    
C38   C39   1.397178 A    
N12   N13   1.398406 A    
C15   H11   1.063396 S    
C63   C64   1.333678 D    
C6    H6    1.081627 S    
N12   Ni4   1.839531 S    
C8    C9    1.385892 A    
C19   H15   1.077751 S    
C20   N16   1.328274 A    
C55   H33   1.083781 S    
N3    Ni3   1.882662 S    
C12   C35   1.411465 S    
N16   Ni3   1.840976 S    
H17   C30   1.082787 S    
C27   C28   1.406131 A    
C5    H5    1.079601 S    
C1    C9    1.394943 A    
C17   N13   1.342825 A    
N1    N8    1.398407 A    
C51   C52   1.381206 A    
N2    Ni2   1.894794 S    
C10   C53   1.443449 S    
C58   C59   1.412666 A    
C47   C48   1.395342 A    
C50   C51   1.421846 A    
C18   N14   1.326379 A    
C38   H24   1.082736 S    
C21   C61   1.431619 S    
C32   C33   1.400706 A    
C28   H20   1.083178 S    
C23   C50   1.447689 S    
N5    Ni2   1.826963 S    
C34   H23   1.087235 S    
C2    N2    1.334968 A    
C58   N19   1.444734 S    
C49   O4    1.386864 S    
C37   C38   1.408032 A    
N19   O8    1.299971 A    
N2    N7    1.398422 A    
C1    N1    1.346151 A    
C26   C27   1.408383 A    
C33   C34   1.364452 A    
C25   H18   1.082590 S    
C19   C21   1.385526 A    
N13   Ni2   1.825812 S    
C43   C44   1.395018 A    
C39   H25   1.082335 S    
C44   C45   1.403245 A    
C20   H16   1.076047 S    
C20   C22   1.371541 A    
C45   C46   1.401781 A    
C52   C53   1.387842 A    
C6    N6    1.335119 A    
N9    Ni1   1.826963 S    
C55   C60   1.398797 A    
N4    Ni4   1.840975 S    
C4    N4    1.318629 A    
C16   C24   1.390469 A    
C31   C32   1.400762 A    
C39   C40   1.404653 A    
C13   C21   1.376268 A    
N10   Ni2   1.894454 S    
C5    N5    1.315468 A    
C8    N8    1.343371 A    
N18   O5    1.301308 A    
C9    C63   1.474242 S    
C43   C48   1.395269 A    
C63   H38   1.085209 S    
C22   C32   1.412675 S    
C59   H35   1.082804 S    
C37   O1    1.381191 S    
C11   C62   1.432069 S    
C57   N18   1.441376 S    
C3    N3    1.338552 A    
C45   C54   1.479227 S    
N17   O3    1.301566 A    
C57   C58   1.429532 A    
C7    N7    1.324507 A    
C35   C36   1.402629 A    
C49   C54   1.387837 A    
C17   C24   1.390189 A    
C34   C35   1.392244 A    
C31   H22   1.084736 S    
N18   O6    1.297065 A    
N7    Ni4   1.883280 S    
C2    C10   1.388469 A    
C46   C47   1.394046 A    
N19   O7    1.301599 A    
N15   Ni4   1.882661 S    
C53   C54   1.421243 A    
N10   N16   1.376427 A    
C14   H10   1.076750 S    
C7    H7    1.075241 S    
N3    N5    1.376423 A    
C37   C42   1.406750 A    
C56   H34   1.082509 S    
C26   H19   1.083001 S    
C16   N12   1.343435 A    
N1    Ni1   1.825812 S    
C43   H28   1.077756 S    
N14   Ni1   1.894795 S    
C49   C50   1.403240 A    
C61   C62   1.334996 D    
C25   C30   1.397031 A    
C29   H21   1.082507 S    
C4    H4    1.073773 S    
N11   Ni3   1.883279 S    
C33   C42   1.479760 S    
C2    H2    1.080771 S    
C13   N9    1.316210 A    
N4    N6    1.376425 A    
C52   H32   1.085955 S    
C64   H39   1.084932 S    
C8    H8    1.078243 S    
C5    C11   1.367992 A    
C28   C29   1.399631 A    
N11   N14   1.398423 A    
C14   N10   1.324351 A    
O1    H40   0.991693 S    
C59   C60   1.400057 A    
