data_mof_unit_55186.cif
_audit_creation_date              2013-03-05T15:41:47-0500
_audit_creation_method            fapswitch 2.2
_symmetry_space_group_name_H-M    P1
_symmetry_Int_Tables_number       1
_space_group_crystal_system       triclinic
_cell_length_a                    19.331848
_cell_length_b                    8.793974
_cell_length_c                    7.434764
_cell_angle_alpha                 102.968063
_cell_angle_beta                  94.438452
_cell_angle_gamma                 92.604388
_cell_volume                      1225.43923666

loop_
_atom_site_label
_atom_site_type_symbol
_atom_site_description
_atom_site_fract_x
_atom_site_fract_y
_atom_site_fract_z
_atom_type_partial_charge
O1    O     O_R   0.505010 0.286130 0.619770 -0.570014
O2    O     O_R   0.494990 0.713870 0.380230 -0.570014
O3    O     O_R   0.491990 0.256780 0.308370 -0.512237
O4    O     O_R   0.508010 0.743220 0.691630 -0.512236
C1    C     C_R   0.498194 0.200426 0.453771 0.816652
C2    C     C_R   0.501806 0.799574 0.546229 0.816651
O5    O     O_R   0.406650 0.514660 0.655750 -0.591856
O6    O     O_R   0.593350 0.485340 0.344250 -0.591856
O7    O     O_R   0.393640 0.485310 0.344340 -0.588116
O8    O     O_R   0.606360 0.514690 0.655660 -0.588116
C3    C     C_R   0.367489 0.500095 0.501911 0.779066
C4    C     C_R   0.632511 0.499905 0.498089 0.779065
Cu1   Cu    Cu3+1 0.507710 0.517380 0.684380 1.057611
Cu2   Cu    Cu3+1 0.492290 0.482620 0.315620 1.057612
C5    C     C_R   0.260236 0.510138 0.670038 -0.163640
C6    C     C_R   0.739764 0.489862 0.329962 -0.163640
H1    H     H_    0.291284 0.516835 0.799595 0.158400
H2    H     H_    0.708716 0.483165 0.200405 0.158400
C7    C     C_R   0.188096 0.510194 0.669802 -0.148578
C8    C     C_R   0.811904 0.489806 0.330198 -0.148578
H3    H     H_    0.165174 0.517056 0.799532 0.152266
H4    H     H_    0.834826 0.482944 0.200467 0.152266
C9    C     C_R   0.146336 0.501279 0.503827 0.056095
C10   C     C_R   0.853664 0.498721 0.496173 0.056095
C11   C     C_R   0.177971 0.492560 0.338527 -0.152077
C12   C     C_R   0.822029 0.507440 0.661473 -0.152076
H5    H     H_    0.147319 0.485716 0.208385 0.157461
H6    H     H_    0.852681 0.514284 0.791615 0.157461
C13   C     C_R   0.249842 0.492350 0.338758 -0.163821
C14   C     C_R   0.750158 0.507650 0.661242 -0.163821
H7    H     H_    0.272563 0.485493 0.208708 0.157932
H8    H     H_    0.727437 0.514506 0.791292 0.157931
C15   C     C_R   0.291629 0.500977 0.504311 -0.020548
C16   C     C_R   0.708371 0.499023 0.495688 -0.020548
N1    N     N_R   0.030054 0.492295 0.341599 -0.228251
N2    N     N_R   0.969946 0.507705 0.658401 -0.228251
N3    N     N_R   0.961226 0.491576 0.339466 -0.230889
N4    N     N_R   0.038774 0.508424 0.660534 -0.230889
C17   C     C_R   0.929827 0.499253 0.497889 0.416089
C18   C     C_R   0.070173 0.500747 0.502111 0.416089
C19   C     C_2   0.497822 0.033926 0.426787 0.014098
C20   C     C_2   0.502178 0.966074 0.573213 0.014098
N5    N     N_2   0.480680 0.456420 0.038530 -0.177710
N6    N     N_2   0.519320 0.543580 0.961470 -0.177711
H9    H     H_    0.443556 0.383812 0.949175 0.250013
H10   H     H_    0.556444 0.616188 0.050825 0.250013
N7    N     N_R   0.492752 0.945291 0.238215 0.153934
O9    O     O_R   0.431955 0.896975 0.151249 -0.309359
O10   O     O_R   0.547768 0.932864 0.147035 -0.312522
N8    N     N_R   0.507247 0.054709 0.761785 0.153934
O11   O     O_R   0.568045 0.103026 0.848750 -0.309359
O12   O     O_R   0.452232 0.067136 0.852965 -0.312521

loop_
_geom_bond_atom_site_label_1
_geom_bond_atom_site_label_2
_geom_bond_distance
_ccdc_geom_bond_type
N3    C17   1.356095 A    
N4    C18   1.356095 A    
O7    Cu2   1.935973 S    
C12   C14   1.389355 A    
C7    H3    1.082941 S    
C3    C15   1.468347 S    
C11   H5    1.082976 S    
N5    H9    1.028722 S    
C19   C20   1.352847 D    
N8    O12   1.300584 A    
N7    O9    1.301413 A    
C6    C8    1.394478 A    
O6    C4    1.299669 A    
N2    N4    1.329157 A    
N8    O11   1.301413 A    
C19   N7    1.436686 S    
C13   H7    1.083246 S    
C6    H2    1.083223 S    
Cu1   Cu2   2.681044 S    
Cu1   N6    2.014490 S    
O5    C3    1.299669 A    
O7    C3    1.293902 A    
O2    C2    1.287204 A    
O3    Cu2   1.974365 S    
O8    C4    1.293902 A    
C20   N8    1.436685 S    
O1    C1    1.287203 A    
O4    C2    1.286223 A    
N1    N3    1.329157 A    
C8    H4    1.082941 S    
N1    C18   1.357516 A    
C9    C11   1.403051 A    
N5    N6    1.298082 D    
C11   C13   1.389355 A    
O2    Cu2   1.979159 S    
O1    Cu1   1.979159 S    
C14   C16   1.404258 A    
C4    C16   1.468347 S    
C9    C18   1.471233 S    
C14   H8    1.083246 S    
C13   C15   1.404258 A    
O5    Cu1   1.947264 S    
C10   C17   1.471233 S    
N7    O10   1.300584 A    
C2    C20   1.432178 S    
O4    Cu1   1.974365 S    
C5    H1    1.083224 S    
C1    C19   1.432177 S    
C7    C9    1.406149 A    
O6    Cu2   1.947264 S    
N6    H10   1.028721 S    
C6    C16   1.403070 A    
C5    C7    1.394478 A    
C12   H6    1.082976 S    
C5    C15   1.403070 A    
N2    C17   1.357516 A    
C8    C10   1.406149 A    
C10   C12   1.403051 A    
Cu2   N5    2.014490 S    
O3    C1    1.286222 A    
O8    Cu1   1.935972 S    
