data_mof_unit_50015.cif
_audit_creation_date              2012-12-10T20:21:45-0500
_audit_creation_method            fapswitch 2.2
_symmetry_space_group_name_H-M    P1
_symmetry_Int_Tables_number       1
_space_group_crystal_system       triclinic
_cell_length_a                    19.129975
_cell_length_b                    18.578842
_cell_length_c                    8.837032
_cell_angle_alpha                 90.062057
_cell_angle_beta                  90.679257
_cell_angle_gamma                 90.330472
_cell_volume                      3140.51910155

loop_
_atom_site_label
_atom_site_type_symbol
_atom_type_description
_atom_site_fract_x
_atom_site_fract_y
_atom_site_fract_z
_atom_type_partial_charge
C1    C     C_R   0.365458 0.499765 0.498586 0.880830
C2    C     C_R   0.521030 0.197674 0.628180 -0.325201
C3    C     C_R   0.500322 0.841899 0.498402 0.101084
C4    C     C_R   0.500918 0.158490 0.499234 0.058250
C5    C     C_R   0.439616 0.961410 0.454421 -0.087038
C6    C     C_R   0.562184 0.038373 0.538887 -0.067424
C7    C     C_R   0.561816 0.961729 0.540212 -0.088527
C8    C     C_R   0.439524 0.038011 0.457891 -0.065944
C9    C     C_R   0.500898 0.077043 0.498874 -0.012227
C10   C     C_R   0.500556 0.922982 0.497589 -0.015570
C11   C     C_R   0.499904 0.499981 0.218755 0.914243
C12   C     C_R   0.634365 0.500116 0.495397 0.884599
C13   C     C_R   0.499945 0.500037 0.781240 0.918705
C14   C     C_1   0.499829 0.500012 0.065536 -0.186627
C15   C     C_1   0.499817 0.500099 0.934470 -0.193070
C16   C     C_R   0.739588 0.439382 0.403146 -0.338245
C17   C     C_R   0.252002 0.562097 0.511854 -0.350952
C18   C     C_R   0.255310 0.435878 0.441242 -0.302468
C19   C     C_R   0.748753 0.561770 0.497638 -0.317147
C20   C     C_R   0.811789 0.437567 0.379133 0.454217
C21   C     C_R   0.178972 0.563371 0.489052 0.462557
C22   C     C_R   0.183145 0.434928 0.423201 0.432811
C23   C     C_R   0.509512 0.727473 0.633104 0.536243
C24   C     C_R   0.819606 0.563679 0.462191 0.458140
C25   C     C_R   0.850906 0.500259 0.409508 -0.114225
C26   C     C_R   0.145889 0.498895 0.443372 -0.104530
C27   C     C_R   0.708994 0.500070 0.468177 -0.135695
C28   C     C_R   0.289693 0.499065 0.485726 -0.139664
C29   C     C_R   0.964899 0.527177 0.292967 -0.154019
C30   C     C_R   0.031844 0.464216 0.543168 -0.167887
C31   C     C_R   0.037435 0.527754 0.302815 -0.131170
C32   C     C_R   0.959653 0.464093 0.533834 -0.151867
C33   C     C_R   0.070509 0.496632 0.428522 0.229955
C34   C     C_R   0.477611 0.273381 0.374018 0.528544
C35   C     C_R   0.926372 0.496107 0.409624 0.239907
C36   C     C_3   0.822490 0.311113 0.378491 0.119793
C37   C     C_3   0.835834 0.303956 0.549870 -0.409737
C38   C     C_3   0.807129 0.232815 0.609662 -0.910420
C39   C     C_3   0.171485 0.689035 0.540296 0.100986
C40   C     C_3   0.189445 0.699301 0.708873 -0.391487
C41   C     C_3   0.238403 0.763395 0.733757 -0.895288
C42   C     C_3   0.151774 0.318866 0.486632 0.072401
C43   C     C_3   0.178764 0.249192 0.416717 -0.362898
C44   C     C_3   0.179277 0.187861 0.531417 -0.865413
C45   C     C_R   0.489255 0.726791 0.366750 0.539233
C46   C     C_3   0.837385 0.685976 0.422920 0.104403
C47   C     C_3   0.855740 0.685224 0.254291 -0.396739
C48   C     C_3   0.831439 0.753918 0.175704 -0.900831
C49   C     C_3   0.576135 0.708723 0.851074 0.077447
C50   C     C_3   0.640386 0.672815 0.782450 -0.351724
C51   C     C_3   0.706234 0.688508 0.876215 -0.960598
C52   C     C_3   0.387642 0.294504 0.206035 0.088374
C53   C     C_3   0.360393 0.352818 0.098922 -0.305473
C54   C     C_3   0.285640 0.337051 0.046049 -0.959187
C55   C     C_3   0.416304 0.706246 0.159416 0.060589
C56   C     C_R   0.523299 0.273643 0.625110 0.523579
C57   C     C_3   0.356184 0.662388 0.226943 -0.316609
C58   C     C_3   0.287369 0.676402 0.143388 -0.991287
C59   C     C_3   0.616547 0.303923 0.776072 0.087375
C60   C     C_3   0.638933 0.351104 0.910281 -0.298734
C61   C     C_3   0.716751 0.343605 0.946271 -0.959291
C62   C     C_2   0.374984 0.920889 0.411726 0.911862
C63   C     C_2   0.628210 0.078515 0.568401 0.913634
C64   C     C_2   0.626765 0.921344 0.577231 0.916755
C65   C     C_2   0.373530 0.077748 0.430734 0.916385
C66   C     C_R   0.506184 0.803627 0.633490 -0.315200
C67   C     C_R   0.480643 0.197371 0.370458 -0.332327
C68   C     C_R   0.493648 0.802817 0.364371 -0.308695
H1    H     H_    0.706673 0.394335 0.371365 0.170880
H2    H     H_    0.467199 0.168739 0.267329 0.183575
H3    H     H_    0.491192 0.831554 0.257892 0.164103
H4    H     H_    0.535286 0.169468 0.731076 0.186230
H5    H     H_    0.852788 0.268244 0.321654 0.175803
H6    H     H_    0.767252 0.299685 0.346986 0.139750
H7    H     H_    0.892984 0.306897 0.573308 0.228671
H8    H     H_    0.810331 0.348428 0.611845 0.213559
H9    H     H_    0.749674 0.229832 0.590619 0.270708
H10   H     H_    0.817905 0.228905 0.733118 0.264045
H11   H     H_    0.832360 0.186767 0.552055 0.277973
H12   H     H_    0.280500 0.608907 0.551358 0.173933
H13   H     H_    0.135013 0.732695 0.506916 0.168069
H14   H     H_    0.217156 0.696376 0.464965 0.129025
H15   H     H_    0.140416 0.708174 0.772354 0.235621
H16   H     H_    0.214601 0.650375 0.756032 0.225291
H17   H     H_    0.289554 0.752982 0.679969 0.278531
H18   H     H_    0.247367 0.771782 0.856871 0.273468
H19   H     H_    0.215131 0.813032 0.685195 0.275668
H20   H     H_    0.097758 0.309536 0.527511 0.162977
H21   H     H_    0.184674 0.332666 0.588105 0.125773
H22   H     H_    0.144931 0.233803 0.318651 0.239380
H23   H     H_    0.284204 0.387173 0.419203 0.175270
H24   H     H_    0.232761 0.257876 0.375539 0.212400
H25   H     H_    0.214715 0.201155 0.628093 0.280287
H26   H     H_    0.198138 0.137953 0.476497 0.282348
H27   H     H_    0.125708 0.177882 0.574097 0.253358
H28   H     H_    0.864477 0.732658 0.476611 0.174883
H29   H     H_    0.780639 0.695746 0.437789 0.127890
H30   H     H_    0.913280 0.680436 0.242346 0.235401
H31   H     H_    0.830244 0.638398 0.197493 0.214586
H32   H     H_    0.773848 0.759503 0.184775 0.273801
H33   H     H_    0.845150 0.751660 0.054046 0.271875
H34   H     H_    0.724875 0.607625 0.550884 0.164538
H35   H     H_    0.857395 0.801710 0.227589 0.269353
H36   H     H_    0.569879 0.687954 0.968010 0.203125
H37   H     H_    0.584876 0.767622 0.862930 0.139201
H38   H     H_    0.631986 0.613652 0.777705 0.238525
H39   H     H_    0.648159 0.693280 0.665740 0.212049
H40   H     H_    0.716416 0.747397 0.881102 0.283533
H41   H     H_    0.751775 0.661971 0.823501 0.273704
H42   H     H_    0.700435 0.667400 0.993007 0.272108
H43   H     H_    0.353445 0.292626 0.307300 0.116875
H44   H     H_    0.385036 0.241774 0.146446 0.160381
H45   H     H_    0.938888 0.551380 0.196385 0.123123
H46   H     H_    0.361826 0.405736 0.157775 0.217957
H47   H     H_    0.394732 0.356198 0.998483 0.248616
H48   H     H_    0.282898 0.284512 0.986095 0.272090
H49   H     H_    0.268076 0.379918 0.967057 0.267080
H50   H     H_    0.249898 0.335860 0.144032 0.286443
H51   H     H_    0.421051 0.691221 0.038253 0.199611
H52   H     H_    0.403426 0.764533 0.160653 0.139071
H53   H     H_    0.368203 0.604119 0.218825 0.239095
H54   H     H_    0.350024 0.677084 0.347913 0.216580
H55   H     H_    0.273047 0.734086 0.152579 0.274732
H56   H     H_    0.057648 0.440413 0.640631 0.121542
H57   H     H_    0.245188 0.643342 0.194159 0.270279
H58   H     H_    0.291853 0.661500 0.022135 0.273491
H59   H     H_    0.645562 0.321874 0.673932 0.145227
H60   H     H_    0.630339 0.247092 0.802237 0.145390
H61   H     H_    0.627630 0.408363 0.883888 0.217166
H62   H     H_    0.608502 0.335484 0.011661 0.247803
H63   H     H_    0.729600 0.286743 0.972887 0.272598
H64   H     H_    0.730658 0.377467 0.045945 0.277503
H65   H     H_    0.748211 0.361824 0.848671 0.265274
H66   H     H_    0.307181 0.841275 0.462048 0.330450
H67   H     H_    0.067723 0.552653 0.214038 0.132400
H68   H     H_    0.702034 0.109522 0.720009 0.338768
H69   H     H_    0.694489 0.843938 0.516174 0.333004
H70   H     H_    0.300674 0.111456 0.280524 0.333345
H71   H     H_    0.929586 0.440628 0.624675 0.123583
H72   H     H_    0.507664 0.833251 0.739020 0.164972
N1    N     N_R   0.500000 0.689440 0.500000 -0.163297
N2    N     N_R   0.500000 0.310560 0.500000 -0.160361
O1    O     O_R   0.398180 0.560840 0.499960 -0.635609
O2    O     O_3   0.136103 0.622860 0.516255 -0.637814
O3    O     O_3   0.148932 0.373094 0.374009 -0.637993
O4    O     O_3   0.861299 0.623052 0.497634 -0.635173
O5    O     O_3   0.514166 0.690871 0.769217 -0.624006
O6    O     O_3   0.457637 0.311018 0.246048 -0.607768
O7    O     O_3   0.480916 0.689788 0.231711 -0.624928
O8    O     O_3   0.543679 0.310954 0.753469 -0.606672
O9    O     O_2   0.344262 0.934371 0.293152 -0.587100
O10   O     O_R   0.350310 0.866048 0.505534 -0.814646
O11   O     O_2   0.655427 0.112534 0.466190 -0.634552
O12   O     O_R   0.601820 0.439160 0.500040 -0.628086
O13   O     O_R   0.657739 0.079400 0.713789 -0.761971
O14   O     O_2   0.658354 0.932937 0.695859 -0.584286
O15   O     O_R   0.650718 0.868719 0.477464 -0.807036
O16   O     O_2   0.345891 0.109317 0.535497 -0.633957
O17   O     O_R   0.344676 0.081337 0.284939 -0.766120
O18   O     O_R   0.601820 0.560840 0.500040 -0.631539
O19   O     O_R   0.398180 0.439160 0.499960 -0.618838
O20   O     O_R   0.500000 0.560800 0.285330 -0.563697
O21   O     O_R   0.500000 0.439200 0.714670 -0.566792
O22   O     O_R   0.500000 0.560800 0.714670 -0.562809
O23   O     O_R   0.500000 0.439200 0.285330 -0.567955
O24   O     O_3   0.846328 0.377910 0.320239 -0.643733
Zn1   Zn    Zn3+2 0.500000 0.581210 0.500000 0.984828
Zn2   Zn    Zn3+2 0.500000 0.418790 0.500000 0.994726

loop_
_geom_bond_atom_site_label_1
_geom_bond_atom_site_label_2
_ccdc_geom_bond_type
C7    C10   A    
C21   C26   A    
C40   H16   S    
C3    C68   A    
C65   O17   S    
C49   H36   S    
C61   H65   S    
C55   H51   S    
C53   C54   S    
C52   C53   S    
C41   H18   S    
C58   H55   S    
C47   H30   S    
C62   O10   S    
C18   H23   S    
C23   C66   A    
C36   C37   S    
C19   H34   S    
C20   C25   A    
C52   H44   S    
C59   H59   S    
C41   H19   S    
C47   H31   S    
C49   O5    S    
O18   Zn1   S    
C44   H25   S    
C21   O2    S    
C61   H64   S    
C57   H54   S    
C34   O6    S    
H70   O17   S    
C8    C9    A    
C54   H48   S    
C64   O15   S    
C5    C62   S    
C1    C28   S    
C31   C33   A    
C55   O7    S    
C19   C27   A    
C56   N2    A    
C16   C27   A    
C37   H7    S    
C1    O19   A    
C59   C60   S    
C51   H41   S    
C45   N1    A    
C40   H15   S    
O12   Zn2   S    
C6    C9    A    
C2    H4    S    
C13   O21   A    
C55   H52   S    
C48   H32   S    
N1    Zn1   S    
C43   H22   S    
C62   O9    D    
C12   C27   S    
C32   C35   A    
C18   C28   A    
C24   C25   A    
C39   H13   S    
C32   H71   S    
C31   H67   S    
C60   H62   S    
C39   C40   S    
H68   O13   S    
C51   H40   S    
C49   H37   S    
C38   H10   S    
C52   H43   S    
C59   H60   S    
C48   H35   S    
C23   O5    S    
C11   O20   A    
C17   C21   A    
C60   C61   S    
C6    C63   S    
C60   H61   S    
C2    C4    A    
C43   C44   S    
C37   C38   S    
C1    O1    A    
C4    C67   A    
C26   C33   S    
C47   C48   S    
C22   O3    S    
C16   C20   A    
H66   O10   S    
C45   C68   A    
C36   O24   S    
C50   C51   S    
C46   H28   S    
C12   O18   A    
O1    Zn1   S    
C36   H6    S    
C25   C35   S    
C40   C41   S    
C46   H29   S    
C30   H56   S    
C58   H58   S    
C51   H42   S    
C13   C15   S    
C22   C26   A    
C50   H39   S    
C3    C66   A    
C42   H20   S    
C42   C43   S    
C56   O8    S    
C54   H50   S    
C41   H17   S    
C53   H46   S    
C13   O22   A    
C11   O23   A    
C59   O8    S    
C29   H45   S    
C46   C47   S    
C34   N2    A    
C30   C33   A    
C18   C22   A    
C17   C28   A    
C37   H8    S    
O22   Zn1   S    
C16   H1    S    
C39   H14   S    
C12   O12   A    
C65   O16   D    
C57   H53   S    
C34   C67   A    
C5    C8    A    
C6    C7    A    
C38   H9    S    
O23   Zn2   S    
C20   O24   S    
C29   C35   A    
C43   H24   S    
H69   O15   S    
C67   H2    S    
C42   H21   S    
C55   C57   S    
O21   Zn2   S    
C63   O13   S    
C5    C10   A    
C29   C31   A    
C3    C10   S    
C24   O4    S    
C30   C32   A    
C42   O3    S    
C57   C58   S    
C46   O4    S    
C68   H3    S    
C48   H33   S    
C11   C14   S    
C64   O14   D    
C19   C24   A    
C45   O7    S    
C17   H12   S    
C7    C64   S    
O19   Zn2   S    
C44   H26   S    
C36   H5    S    
C61   H63   S    
N2    Zn2   S    
O20   Zn1   S    
C8    C65   S    
C66   H72   S    
C39   O2    S    
C58   H57   S    
C52   O6    S    
C49   C50   S    
C38   H11   S    
C54   H49   S    
C50   H38   S    
C14   C15   T    
C23   N1    A    
C2    C56   A    
C4    C9    S    
C63   O11   D    
C44   H27   S    
C53   H47   S    
