data_mof_unit_40355.cif
_audit_creation_date              2012-12-10T18:55:58-0500
_audit_creation_method            fapswitch 2.2
_symmetry_space_group_name_H-M    P1
_symmetry_Int_Tables_number       1
_space_group_crystal_system       triclinic
_cell_length_a                    10.746866
_cell_length_b                    9.915228
_cell_length_c                    15.113968
_cell_angle_alpha                 90.00101
_cell_angle_beta                  92.977574
_cell_angle_gamma                 89.999919
_cell_volume                      1608.33428104

loop_
_atom_site_label
_atom_site_type_symbol
_atom_type_description
_atom_site_fract_x
_atom_site_fract_y
_atom_site_fract_z
_atom_type_partial_charge
C1    C     C_R   0.260195 0.500341 0.501967 0.856737
C2    C     C_R   0.936044 0.624850 0.498488 -0.187399
C3    C     C_R   0.936452 0.379848 0.495127 -0.214212
C4    C     C_R   0.063954 0.624850 0.501492 -0.187400
C5    C     C_R   0.485430 0.615579 0.094887 -0.175271
C6    C     C_R   0.469389 0.375862 0.903449 -0.179911
C7    C     C_R   0.514608 0.615570 0.905118 -0.175271
C8    C     C_R   0.530490 0.375836 0.096542 -0.179912
C9    C     C_R   0.496786 0.617723 0.185775 -0.215543
C10   C     C_R   0.469349 0.376642 0.811770 -0.189780
C11   C     C_R   0.503272 0.617720 0.814230 -0.215530
C12   C     C_R   0.739805 0.500341 0.498033 0.856732
C13   C     C_R   0.530548 0.376617 0.188221 -0.189765
C14   C     C_R   0.511179 0.497857 0.232956 -0.025436
C15   C     C_R   0.488807 0.497865 0.767043 -0.025424
C16   C     C_R   0.503613 0.494895 0.048628 0.124183
C17   C     C_R   0.496338 0.494900 0.951370 0.124180
C18   C     C_R   0.872341 0.501811 0.496080 -0.011662
C19   C     C_R   0.127659 0.501813 0.503919 -0.011663
C20   C     C_3   0.779727 0.152796 0.622324 -0.744097
C21   C     C_3   0.319003 0.846407 0.305771 -0.745121
C22   C     C_3   0.220253 0.152774 0.377703 -0.744134
C23   C     C_R   0.503964 0.499587 0.328249 0.852256
C24   C     C_3   0.681063 0.846396 0.694202 -0.745094
C25   C     C_R   0.496034 0.499589 0.671750 0.852245
C26   C     C_R   0.578543 0.072449 0.557499 0.156144
C27   C     C_R   0.416336 0.927851 0.446274 0.159371
C28   C     C_R   0.421456 0.072447 0.442502 0.156149
C29   C     C_R   0.583668 0.927854 0.553722 0.159368
C30   C     C_R   0.063550 0.379850 0.504892 -0.214217
H1    H     H_    0.461022 0.709550 0.062400 0.121617
H2    H     H_    0.887767 0.720565 0.497513 0.145072
H3    H     H_    0.888977 0.284595 0.487712 0.159474
H4    H     H_    0.112230 0.720566 0.502449 0.145070
H5    H     H_    0.614614 0.129547 0.688388 0.210422
H6    H     H_    0.826097 0.097825 0.678610 0.209493
H7    H     H_    0.808396 0.259665 0.629558 0.251773
H8    H     H_    0.812252 0.110488 0.559565 0.210797
H9    H     H_    0.230967 0.876010 0.423996 0.204825
H10   H     H_    0.238132 0.899826 0.273801 0.209095
H11   H     H_    0.308980 0.738985 0.286606 0.249085
H12   H     H_    0.448596 0.281928 0.935799 0.120590
H13   H     H_    0.405646 0.889709 0.280575 0.212484
H14   H     H_    0.385353 0.129550 0.311618 0.210421
H15   H     H_    0.173876 0.097778 0.321430 0.209491
H16   H     H_    0.191568 0.259637 0.370460 0.251780
H17   H     H_    0.187751 0.110480 0.440472 0.210805
H18   H     H_    0.769047 0.876031 0.575961 0.204812
H19   H     H_    0.761958 0.899790 0.726162 0.209096
H20   H     H_    0.691076 0.738968 0.713351 0.249071
H21   H     H_    0.594440 0.889711 0.719422 0.212483
H22   H     H_    0.539073 0.709521 0.937611 0.121619
H23   H     H_    0.551215 0.281885 0.064186 0.120586
H24   H     H_    0.492011 0.713346 0.218683 0.156589
H25   H     H_    0.452989 0.282979 0.776143 0.145288
H26   H     H_    0.508120 0.713339 0.781328 0.156580
H27   H     H_    0.546850 0.282942 0.223842 0.145285
H28   H     H_    0.111027 0.284600 0.512323 0.159474
N1    N     N_R   0.500000 0.857200 0.500000 -0.132529
N2    N     N_R   0.500000 0.142800 0.500000 -0.134067
N3    N     N_2   0.645732 0.144676 0.625794 -0.240423
N4    N     N_2   0.317685 0.856203 0.401113 -0.241575
N5    N     N_2   0.354248 0.144673 0.374217 -0.240423
N6    N     N_2   0.682342 0.856212 0.598860 -0.241578
O1    O     O_R   0.316770 0.614620 0.499990 -0.609190
O2    O     O_R   0.683230 0.385380 0.500010 -0.605522
O3    O     O_R   0.683230 0.614620 0.500010 -0.609182
O4    O     O_R   0.316770 0.385380 0.499990 -0.605516
O5    O     O_R   0.499990 0.614660 0.369060 -0.603707
O6    O     O_R   0.500010 0.385340 0.630940 -0.609596
O7    O     O_R   0.500010 0.614660 0.630940 -0.603715
O8    O     O_R   0.499990 0.385340 0.369060 -0.609604
Zn1   Zn    Zn3+2 0.500000 0.653120 0.500000 0.977757
Zn2   Zn    Zn3+2 0.500000 0.346880 0.500000 0.975168

loop_
_geom_bond_atom_site_label_1
_geom_bond_atom_site_label_2
_ccdc_geom_bond_type
C8    H23   S    
C6    C10   A    
C3    C30   A    
C2    C4    A    
C9    C14   A    
C5    C9    A    
C8    C13   A    
O3    Zn1   S    
C27   N4    S    
C26   C29   A    
C2    C18   A    
O2    Zn2   S    
C20   H8    S    
C6    H12   S    
N1    Zn1   S    
C1    O1    A    
C22   H15   S    
C24   H21   S    
C22   H17   S    
C29   N6    S    
C24   N6    S    
C27   N1    A    
C13   C14   A    
O5    Zn1   S    
C20   H7    S    
N2    Zn2   S    
C24   H20   S    
C21   N4    S    
C19   C30   A    
C21   H10   S    
C11   C15   A    
H5    N3    S    
C25   O7    A    
C30   H28   S    
C2    H2    S    
C22   H16   S    
C14   C23   S    
C7    H22   S    
C7    C11   A    
C4    H4    S    
C10   C15   A    
C28   N2    A    
H14   N5    S    
C10   H25   S    
H9    N4    S    
C12   O3    A    
C21   H11   S    
H18   N6    S    
C15   C25   S    
C3    H3    S    
O4    Zn2   S    
C20   H6    S    
C28   N5    S    
C24   H19   S    
C1    O4    A    
O1    Zn1   S    
C3    C18   A    
O8    Zn2   S    
C8    C16   A    
C1    C19   S    
C12   C18   S    
C20   N3    S    
O7    Zn1   S    
C6    C17   A    
C23   O5    A    
O6    Zn2   S    
C23   O8    A    
C5    C16   A    
C5    H1    S    
C25   O6    A    
C13   H27   S    
C22   N5    S    
C21   H13   S    
C4    C19   A    
C12   O2    A    
C9    H24   S    
C26   N3    S    
C11   H26   S    
C29   N1    A    
C16   C17   S    
C27   C28   A    
C26   N2    A    
C7    C17   A    
