data_mof_unit_21046.cif
_audit_creation_date              2012-12-10T18:46:12-0500
_audit_creation_method            fapswitch 2.2
_symmetry_space_group_name_H-M    P1
_symmetry_Int_Tables_number       1
_space_group_crystal_system       triclinic
_cell_length_a                    9.935143
_cell_length_b                    10.588529
_cell_length_c                    13.18028
_cell_angle_alpha                 89.592329
_cell_angle_beta                  71.064478
_cell_angle_gamma                 89.581965
_cell_volume                      1311.46106543

loop_
_atom_site_label
_atom_site_type_symbol
_atom_type_description
_atom_site_fract_x
_atom_site_fract_y
_atom_site_fract_z
_atom_type_partial_charge
C1    C     C_R   0.499685 0.739463 0.499912 1.001139
C2    C     C_R   0.439450 0.541522 0.982774 0.053949
C3    C     C_R   0.478106 0.562455 0.871135 0.048490
C4    C     C_R   0.550865 0.536542 0.026979 -0.001026
C5    C     C_R   0.692428 0.519890 0.960071 0.001908
C6    C     C_R   0.728603 0.568815 0.855693 0.172608
C7    C     C_R   0.619592 0.598915 0.815121 -0.142533
C8    C     C_R   0.528085 0.550363 0.134729 -0.148520
C9    C     C_R   0.749179 0.439180 0.114370 0.096051
C10   C     C_R   0.377224 0.539859 0.818491 -0.087230
C11   C     C_R   0.478265 0.935469 0.596587 0.349286
C12   C     C_R   0.422546 0.513163 0.702827 0.893217
C13   C     C_R   0.480504 0.065285 0.595617 -0.184348
C14   C     C_R   0.501535 0.128572 0.499073 -0.149866
C15   C     C_R   0.521420 0.066348 0.402724 -0.177636
C16   C     C_R   0.521281 0.936370 0.402391 0.382501
C17   C     C_R   0.499057 0.872114 0.499705 -0.208097
C18   C     C_R   0.906173 0.408575 0.553483 -0.039286
C19   C     C_R   0.049512 0.408453 0.553312 -0.078758
C20   C     C_R   0.092851 0.591084 0.445855 0.473224
C21   C     C_R   0.949924 0.590676 0.446157 -0.080675
C22   C     C_R   0.500652 0.260655 0.499328 0.907828
C23   C     C_R   0.578413 0.497316 0.296591 0.949284
C24   C     C_R   0.787570 0.455611 0.002165 0.351591
C25   C     C_R   0.624558 0.499441 0.180277 -0.169390
C26   C     C_R   0.234035 0.527996 0.879161 -0.134457
C27   C     C_R   0.193052 0.517043 0.989941 -0.087354
C28   C     C_R   0.295159 0.511927 0.041474 0.159925
H1    H     H_    0.464459 0.116812 0.669482 0.183756
H2    H     H_    0.537993 0.118731 0.328684 0.187702
H3    H     H_    0.834514 0.335518 0.596918 0.165764
H4    H     H_    0.085031 0.335399 0.596671 0.180492
H5    H     H_    0.913585 0.662914 0.402504 0.180548
H6    H     H_    0.432227 0.597375 0.183598 0.241267
H7    H     H_    0.155296 0.517130 0.840024 0.231454
H8    H     H_    0.082724 0.498759 0.034458 0.202871
H9    H     H_    0.647467 0.647161 0.738602 0.216586
N1    N     N_R   0.142790 0.500030 0.500030 -0.117699
N2    N     N_R   0.857180 0.499940 0.500010 -0.115396
O1    O     O_R   0.385370 0.683250 0.500010 -0.543816
O2    O     O_R   0.614700 0.683220 0.500010 -0.621462
O3    O     O_R   0.328400 0.499990 0.653620 -0.600159
O4    O     O_R   0.557730 0.499960 0.653620 -0.634217
O5    O     O_R   0.385300 0.316780 0.499990 -0.610801
O6    O     O_R   0.614630 0.316750 0.499990 -0.606058
O7    O     O_R   0.442270 0.500040 0.346380 -0.580044
O8    O     O_R   0.671600 0.500010 0.346380 -0.594540
Zn1   Zn    Zn3+2 0.346870 0.500020 0.500000 1.053424
Zn2   Zn    Zn3+2 0.653130 0.499980 0.500000 0.997393
I1    I     I_    0.860324 0.306677 0.181145 -0.180086
Cl1   Cl    Cl    0.551988 0.857073 0.279646 -0.536742
Cl2   Cl    Cl    0.204427 0.709602 0.370985 -0.527730
I2    I     I_    0.934526 0.634656 0.767638 -0.265120
Cl3   Cl    Cl    0.925910 0.363722 0.915966 -0.595197
I3    I     I_    0.222036 0.419566 0.193943 -0.263031
Cl4   Cl    Cl    0.446960 0.855605 0.719736 -0.600987

loop_
_geom_bond_atom_site_label_1
_geom_bond_atom_site_label_2
_ccdc_geom_bond_type
C12   O3    A    
C18   N2    A    
C9    C24   A    
C6    C7    A    
C19   N1    A    
C27   H8    S    
C20   N1    A    
C1    C17   S    
C21   N2    A    
C16   Cl1   S    
O6    Zn2   S    
C4    C8    A    
C10   C26   A    
C2    C3    A    
C7    H9    S    
C9    C25   A    
C20   Cl2   S    
C3    C10   A    
O3    Zn1   S    
C13   C14   A    
C8    C25   A    
C11   C13   A    
C14   C22   S    
C26   C27   A    
C5    C24   A    
C10   C12   S    
C19   H4    S    
O2    Zn2   S    
N2    Zn2   S    
C28   I3    S    
C22   O5    A    
C12   O4    A    
C3    C7    A    
C23   C25   S    
C5    C6    A    
O7    Zn1   S    
C23   O8    A    
C11   Cl4   S    
C6    I2    S    
C24   Cl3   S    
C15   C16   A    
C2    C4    A    
O5    Zn1   S    
C26   H7    S    
C4    C5    A    
C22   O6    A    
C21   H5    S    
C20   C21   A    
C15   H2    S    
O8    Zn2   S    
C18   C19   A    
C13   H1    S    
C27   C28   A    
C23   O7    A    
O1    Zn1   S    
C14   C15   A    
O4    Zn2   S    
C2    C28   A    
C18   H3    S    
C1    O1    A    
C8    H6    S    
N1    Zn1   S    
C11   C17   A    
C9    I1    S    
C1    O2    A    
C16   C17   A    
