data_mof_unit_27253.cif
_audit_creation_date              2012-12-10T19:04:45-0500
_audit_creation_method            fapswitch 2.2
_symmetry_space_group_name_H-M    P1
_symmetry_Int_Tables_number       1
_space_group_crystal_system       triclinic
_cell_length_a                    15.852458
_cell_length_b                    10.834811
_cell_length_c                    9.611953
_cell_angle_alpha                 91.178811
_cell_angle_beta                  90.20147
_cell_angle_gamma                 91.540504
_cell_volume                      1649.97388487

loop_
_atom_site_label
_atom_site_type_symbol
_atom_type_description
_atom_site_fract_x
_atom_site_fract_y
_atom_site_fract_z
_atom_type_partial_charge
C1    C     C_R   0.499797 0.262867 0.498550 0.785456
C2    C     C_3   0.082859 0.499245 0.497436 0.152417
C3    C     C_3   0.972672 0.581196 0.593444 -0.207425
C4    C     C_3   0.916560 0.495487 0.500641 0.166141
C5    C     C_3   0.027581 0.609238 0.465119 0.027396
C6    C     C_3   0.969902 0.525288 0.371595 -0.286798
C7    C     C_1   0.174697 0.500037 0.498340 0.078138
C8    C     C_1   0.824991 0.494296 0.502156 -0.051451
C9    C     C_R   0.549851 0.069558 0.593580 0.020717
C10   C     C_R   0.503660 0.130228 0.493943 -0.093221
C11   C     C_R   0.463104 0.060974 0.387298 -0.138758
C12   C     C_R   0.340002 0.499966 0.499743 0.814121
C13   C     C_R   0.460591 0.932331 0.392235 -0.120613
C14   C     C_R   0.500825 0.871697 0.501083 -0.075681
C15   C     C_R   0.549432 0.942187 0.596824 0.049959
C16   C     C_3   0.550026 0.945084 0.752674 -0.511326
C17   C     C_3   0.549873 0.084960 0.747785 -0.160337
C18   C     C_R   0.567819 0.550250 0.073837 0.137956
C19   C     C_R   0.438532 0.437308 0.070575 0.049106
C20   C     C_R   0.438563 0.439986 0.922378 -0.012805
C21   C     C_R   0.567398 0.546563 0.926636 0.234889
C22   C     C_3   0.601350 0.671930 0.910814 -0.496244
C23   C     C_R   0.499746 0.737689 0.501197 0.777745
C24   C     C_3   0.602937 0.683693 0.068228 0.335374
C25   C     C_R   0.659889 0.497952 0.500500 0.810076
C26   C     C_3   0.970552 0.383807 0.533324 -0.196459
C27   C     C_3   0.025508 0.414839 0.405883 0.018582
C28   C     C_1   0.250284 0.500131 0.499081 -0.102424
C29   C     C_1   0.749475 0.495024 0.502095 -0.190246
C30   C     C_3   0.028527 0.469605 0.625840 -0.179897
Cu1   Cu    Cu3+1 0.500000 0.499980 0.640670 0.967530
Cu2   Cu    Cu3+1 0.500000 0.500020 0.359330 0.947219
H1    H     H_    0.609752 0.909179 0.794839 0.202514
H2    H     H_    0.490900 0.125193 0.789201 0.189254
H3    H     H_    0.389116 0.392083 0.863110 0.173389
H4    H     H_    0.664268 0.672471 0.859840 0.219797
H5    H     H_    0.553843 0.727614 0.859154 0.174139
H6    H     H_    0.945927 0.290622 0.560910 0.140089
H7    H     H_    0.944978 0.548170 0.267406 0.148597
H8    H     H_    0.949707 0.650209 0.670407 0.144004
H9    H     H_    0.053321 0.446888 0.730120 0.161537
H10   H     H_    0.429135 0.105870 0.305418 0.150890
H11   H     H_    0.424145 0.880648 0.314351 0.157067
H12   H     H_    0.490821 0.905532 0.797264 0.210272
N1    N     N_R   0.500530 0.500930 0.147930 -0.262780
N2    N     N_R   0.500530 0.500890 0.852020 -0.205032
O1    O     O_R   0.500000 0.319640 0.618810 -0.570303
O2    O     O_R   0.500010 0.319680 0.381230 -0.597551
O3    O     O_R   0.379070 0.499970 0.618770 -0.583020
O4    O     O_R   0.379080 0.500010 0.381190 -0.588793
O5    O     O_R   0.499990 0.680320 0.618770 -0.579300
O6    O     O_R   0.500000 0.680360 0.381190 -0.615352
O7    O     O_R   0.620920 0.499990 0.618810 -0.554056
O8    O     O_R   0.620930 0.500030 0.381230 -0.588610
C31   C     C_2   0.052198 0.320677 0.299863 0.373750
H13   H     H_    0.004652 0.266643 0.242397 0.066782
O9    O     O_2   0.126800 0.304191 0.277487 -0.500481
C32   C     C_2   0.629750 0.147150 0.801323 0.462194
H14   H     H_    0.690803 0.116330 0.765839 0.056591
O10   O     O_2   0.626425 0.233124 0.884972 -0.533295
C33   C     C_2   0.371101 0.361861 0.136326 0.418805
H15   H     H_    0.380432 0.319704 0.235339 0.119197
O11   O     O_2   0.303386 0.342900 0.077615 -0.536598
O12   O     O_3   0.689175 0.701893 0.107108 -0.593847
C34   C     C_3   0.703190 0.718276 0.251246 0.139579
H16   H     H_    0.740185 0.639263 0.285340 0.159895
H17   H     H_    0.644916 0.723039 0.313760 0.155806
C35   C     C_3   0.756469 0.836051 0.278447 -0.327095
H18   H     H_    0.815903 0.831656 0.217696 0.221939
H19   H     H_    0.721241 0.917374 0.244224 0.266492
C36   C     C_3   0.778280 0.852406 0.432693 -0.960699
H20   H     H_    0.719812 0.856765 0.495795 0.259697
H21   H     H_    0.815547 0.939696 0.449538 0.262769
H22   H     H_    0.816518 0.774440 0.468005 0.256263
C37   C     C_2   0.544101 0.784188 0.113811 0.332949
H23   H     H_    0.477450 0.762611 0.126986 0.061940
O13   O     O_2   0.569682 0.891134 0.126065 -0.539328
C38   C     C_2   0.056345 0.736723 0.426689 0.361598
H24   H     H_    0.009934 0.806039 0.406793 0.068484
O14   O     O_2   0.131357 0.763324 0.417493 -0.529278

loop_
_geom_bond_atom_site_label_1
_geom_bond_atom_site_label_2
_ccdc_geom_bond_type
C31   H13   S    
C18   C21   A    
Cu2   N1    S    
C19   C20   A    
C4    C8    S    
C12   O3    A    
C26   C27   S    
C12   C28   S    
C18   C24   S    
C8    C29   T    
C25   O7    A    
C5    C6    S    
C38   O14   D    
C32   O10   D    
C15   C16   S    
C11   H10   S    
C33   O11   D    
Cu2   O6    S    
C2    C7    S    
C35   H18   S    
C20   H3    S    
Cu1   Cu2   S    
C16   C17   S    
C34   H17   S    
Cu1   N2    S    
C30   H9    S    
C2    C27   S    
C9    C10   A    
C16   H12   S    
C17   C32   S    
C24   O12   S    
Cu1   O1    S    
C13   C14   A    
Cu2   O2    S    
Cu1   O3    S    
Cu2   O8    S    
C25   C29   S    
C25   O8    A    
C4    C6    S    
C36   H21   S    
C38   H24   S    
C26   H6    S    
C32   H14   S    
C22   H5    S    
C7    C28   T    
C14   C23   S    
C3    C30   S    
C37   H23   S    
C16   H1    S    
C23   O5    A    
C6    C27   S    
C34   C35   S    
C1    O2    A    
Cu1   O7    S    
C37   O13   D    
Cu2   O4    S    
C9    C17   S    
C3    H8    S    
C26   C30   S    
C31   O9    D    
C22   C24   S    
C2    C5    S    
C17   H2    S    
C3    C4    S    
C18   N1    A    
C13   H11   S    
C21   N2    A    
C14   C15   A    
C1    O1    A    
C1    C10   S    
Cu1   O5    S    
C3    C5    S    
C36   H22   S    
C4    C26   S    
C19   N1    A    
C24   C37   S    
C22   H4    S    
C2    C30   S    
O12   C34   S    
C9    C15   A    
C36   H20   S    
C11   C13   A    
C23   O6    A    
C19   C33   S    
C35   C36   S    
C27   C31   S    
C33   H15   S    
C10   C11   A    
C35   H19   S    
C34   H16   S    
C6    H7    S    
C5    C38   S    
C21   C22   S    
C12   O4    A    
C20   N2    A    
