data_mof_unit_58197.cif
_audit_creation_date              2012-10-26T20:00:54-0400
_audit_creation_method            fapswitch 2.2
_symmetry_space_group_name_H-M    P1
_symmetry_Int_Tables_number       1
_space_group_crystal_system       triclinic
_cell_length_a                    11.677513
_cell_length_b                    13.000468
_cell_length_c                    13.437207
_cell_angle_alpha                 92.157722
_cell_angle_beta                  76.518138
_cell_angle_gamma                 100.10237
_cell_volume                      1952.96420591

loop_
_atom_site_label
_atom_site_type_symbol
_atom_type_description
_atom_site_fract_x
_atom_site_fract_y
_atom_site_fract_z
_atom_type_partial_charge
C1    C     C_R   0.521516 0.700912 0.500227 0.554165
C2    C     C_R   0.397007 0.489540 0.808403 -0.038093
C3    C     C_R   0.466610 0.185719 0.499503 -0.007586
C4    C     C_R   0.435884 0.491885 0.695988 0.538236
C5    C     C_R   0.535358 0.814478 0.497156 -0.032834
C6    C     C_R   0.663883 0.985377 0.476070 0.138542
C7    C     C_R   0.649427 0.875980 0.478787 -0.112727
C8    C     C_R   0.434029 0.861248 0.511032 -0.143461
C9    C     C_R   0.445558 0.969135 0.507081 0.021922
C10   C     C_R   0.560541 0.032024 0.490032 0.058013
C11   C     C_R   0.569324 0.140343 0.485731 -0.126546
C12   C     C_R   0.445697 0.488384 0.975884 0.007295
C13   C     C_R   0.353564 0.122722 0.515795 -0.136413
C14   C     C_R   0.343093 0.014842 0.519656 -0.136451
C15   C     C_R   0.944201 0.589532 0.601266 -0.167494
C16   C     C_R   0.478903 0.299139 0.498702 0.542329
C17   C     C_R   0.825996 0.583899 0.590449 0.290014
C18   C     C_R   0.858329 0.460812 0.455927 0.010668
C19   C     C_R   0.978422 0.466260 0.463269 -0.003496
C20   C     C_R   0.021398 0.531634 0.537034 -0.020032
C21   C     C_R   0.141181 0.537825 0.544626 0.043672
C22   C     C_R   0.175070 0.416649 0.409461 0.042819
C23   C     C_R   0.469789 0.461903 0.870625 0.010058
C24   C     C_R   0.056537 0.408101 0.399232 -0.173538
C25   C     C_R   0.563463 0.502516 0.304151 0.545962
C26   C     C_R   0.714731 0.416049 0.044636 -0.140014
C27   C     C_R   0.597717 0.490244 0.193176 0.000293
C28   C     C_R   0.291304 0.526721 0.853840 -0.096173
C29   C     C_R   0.258949 0.541073 0.959382 0.142375
C30   C     C_R   0.337333 0.524797 0.019333 -0.112664
C31   C     C_3   0.885715 0.005044 0.418047 -0.314954
C32   C     C_3   0.791136 0.755379 0.654778 -0.305907
C33   C     C_3   0.042156 0.513953 0.992611 -0.313483
C34   C     C_R   0.530323 0.476121 0.033769 0.032692
C35   C     C_R   0.630965 0.429070 0.988333 0.053646
C36   C     C_R   0.645402 0.393031 0.888095 -0.147191
C37   C     C_R   0.565247 0.407732 0.830567 -0.126327
C38   C     C_R   0.518376 0.509424 0.135603 -0.133179
C39   C     C_R   0.697849 0.445963 0.146915 -0.141810
Cu1   Cu    Cu3+1 0.386470 0.492430 0.492410 0.929641
Cu2   Cu    Cu3+1 0.613530 0.507570 0.507590 0.952270
H1    H     H_    0.759829 0.430223 0.190799 0.117894
H2    H     H_    0.719104 0.353140 0.853852 0.105061
H3    H     H_    0.824068 0.410100 0.399892 0.114969
H4    H     H_    0.791321 0.379744 0.010360 0.098983
H5    H     H_    0.446831 0.549325 0.173304 0.116889
H6    H     H_    0.235631 0.548408 0.806675 0.131309
H7    H     H_    0.308915 0.538339 0.100160 0.094860
H8    H     H_    0.577991 0.373720 0.755029 0.147397
H9    H     H_    0.656095 0.190177 0.470744 0.138846
H10   H     H_    0.789179 0.102567 0.519262 0.243222
H11   H     H_    0.963781 0.069005 0.397432 0.142519
H12   H     H_    0.273287 0.156796 0.526645 0.129453
H13   H     H_    0.875581 0.960909 0.347303 0.158974
H14   H     H_    0.903334 0.953430 0.474737 0.125136
H15   H     H_    0.720165 0.614091 0.729418 0.245452
H16   H     H_    0.714446 0.796054 0.686050 0.153809
H17   H     H_    0.833034 0.783550 0.575506 0.140572
H18   H     H_    0.857446 0.775173 0.702856 0.112067
H19   H     H_    0.146320 0.606982 0.078381 0.247991
H20   H     H_    0.964859 0.552209 0.028853 0.148137
H21   H     H_    0.031383 0.437092 0.030354 0.137667
H22   H     H_    0.041660 0.501969 0.910462 0.146357
H23   H     H_    0.254930 0.967153 0.532676 0.102383
H24   H     H_    0.726568 0.837935 0.466573 0.129617
H25   H     H_    0.345687 0.813634 0.525002 0.124737
H26   H     H_    0.175081 0.588296 0.601012 0.109652
H27   H     H_    0.234659 0.371613 0.359742 0.127066
H28   H     H_    0.975552 0.639254 0.659370 0.087646
H29   H     H_    0.026488 0.356638 0.341705 0.088048
N1    N     N_R   0.215880 0.481050 0.481000 -0.228233
N2    N     N_R   0.784100 0.518950 0.519000 -0.213454
N3    N     N_2   0.779682 0.049416 0.461562 -0.531599
N4    N     N_2   0.748952 0.643790 0.656008 -0.444425
N5    N     N_2   0.151678 0.579719 0.004610 -0.516336
O1    O     O_R   0.419710 0.645650 0.494620 -0.508014
O2    O     O_R   0.611450 0.658430 0.507430 -0.471310
O3    O     O_R   0.357340 0.490460 0.641450 -0.510400
O4    O     O_R   0.549080 0.503250 0.654260 -0.484857
O5    O     O_R   0.388550 0.341570 0.492570 -0.505136
O6    O     O_R   0.580290 0.354350 0.505380 -0.520920
O7    O     O_R   0.450920 0.496750 0.345740 -0.508393
O8    O     O_R   0.642660 0.509540 0.358550 -0.507877

loop_
_geom_bond_atom_site_label_1
_geom_bond_atom_site_label_2
_ccdc_geom_bond_type
C28   H6    S    
C8    H25   S    
Cu1   N1    S    
C1    O2    A    
C35   C36   A    
C32   H17   S    
C31   H11   S    
C24   H29   S    
C12   C23   A    
C21   N1    A    
C1    C5    S    
C30   H7    S    
C28   C29   A    
C18   C19   A    
Cu2   O2    S    
C26   C39   A    
C31   N3    S    
C27   C38   A    
Cu2   O8    S    
C34   C35   A    
C26   H4    S    
C33   N5    S    
C19   C20   A    
C27   C39   A    
C33   H21   S    
Cu1   O5    S    
C9    C10   A    
C3    C13   A    
C14   H23   S    
C13   C14   A    
C21   H26   S    
C32   H16   S    
C39   H1    S    
C13   H12   S    
C18   N2    A    
C15   C20   A    
C15   H28   S    
H15   N4    S    
Cu1   O7    S    
C4    O4    A    
C10   C11   A    
C5    C7    A    
C8    C9    A    
C23   C37   A    
Cu1   O1    S    
C16   O5    A    
C2    C4    S    
C9    C14   A    
C4    O3    A    
C29   C30   A    
C18   H3    S    
C7    H24   S    
C37   H8    S    
C33   H22   S    
Cu2   O6    S    
C22   H27   S    
Cu2   N2    S    
Cu1   Cu2   S    
C25   O7    A    
C22   C24   A    
C12   C34   A    
C22   N1    A    
C6    N3    S    
C15   C17   A    
C36   C37   A    
C12   C30   A    
C34   C38   A    
C1    O1    A    
H10   N3    S    
Cu2   O4    S    
C5    C8    A    
C6    C7    A    
C29   N5    S    
C25   C27   S    
H19   N5    S    
C19   C24   A    
C11   H9    S    
C32   N4    S    
C17   N4    S    
C16   O6    A    
Cu1   O3    S    
C31   H13   S    
C38   H5    S    
C3    C11   A    
C6    C10   A    
C26   C35   A    
C20   C21   A    
C17   N2    A    
C33   H20   S    
C2    C23   A    
C25   O8    A    
C36   H2    S    
C2    C28   A    
C32   H18   S    
C31   H14   S    
C3    C16   S    
