data_mof_unit_61924.cif
_audit_creation_date              2013-03-05T16:40:16-0500
_audit_creation_method            fapswitch 2.2
_symmetry_space_group_name_H-M    P1
_symmetry_Int_Tables_number       1
_space_group_crystal_system       triclinic
_cell_length_a                    11.045281
_cell_length_b                    17.775689
_cell_length_c                    16.524421
_cell_angle_alpha                 89.610262
_cell_angle_beta                  101.920254
_cell_angle_gamma                 91.418762
_cell_volume                      3173.42394586

loop_
_atom_site_label
_atom_site_type_symbol
_atom_site_description
_atom_site_fract_x
_atom_site_fract_y
_atom_site_fract_z
_atom_type_partial_charge
O1    O     O_R   0.499990 0.391240 0.567930 -0.542716
O2    O     O_R   0.500010 0.608760 0.432070 -0.533542
O3    O     O_R   0.500000 0.391270 0.432120 -0.550499
O4    O     O_R   0.500000 0.608730 0.567880 -0.545245
C1    C     C_R   0.498235 0.355717 0.499959 0.960449
C2    C     C_R   0.498231 0.644848 0.499598 0.903343
O5    O     O_R   0.320680 0.500000 0.542950 -0.479750
O6    O     O_R   0.679320 0.500000 0.457050 -0.500198
O7    O     O_R   0.320690 0.500030 0.407130 -0.565608
O8    O     O_R   0.679310 0.499970 0.592870 -0.564934
C3    C     C_R   0.262369 0.504055 0.467579 0.874672
C4    C     C_R   0.737497 0.499933 0.532955 0.890665
Cu1   Cu    Cu3+1 0.499990 0.499980 0.580420 1.148011
Cu2   Cu    Cu3+1 0.500010 0.500020 0.419580 1.143437
C5    C     C_2   0.127054 0.512174 0.452764 0.137581
C6    C     C_2   0.872390 0.495361 0.550205 0.149014
C7    C     C_2   0.072414 0.530859 0.516444 0.288285
C8    C     C_2   0.936663 0.536441 0.503293 0.235890
C9    C     C_R   0.427761 0.844350 0.555636 0.200160
C10   C     C_R   0.592617 0.155319 0.478724 0.208223
C11   C     C_R   0.427322 0.765158 0.552308 0.227468
C12   C     C_R   0.593571 0.234415 0.477599 0.211378
C13   C     C_R   0.492979 0.728351 0.499446 -0.323466
C14   C     C_R   0.495195 0.273173 0.499586 -0.308777
C15   C     C_R   0.556088 0.771931 0.448612 0.211582
C16   C     C_R   0.392954 0.233009 0.519256 0.189111
C17   C     C_R   0.557248 0.851272 0.452476 0.361753
C18   C     C_R   0.390452 0.153440 0.517412 0.364906
C19   C     C_R   0.493286 0.886593 0.505830 -0.155200
C20   C     C_R   0.491610 0.115540 0.499600 -0.153986
C21   C     C_1   0.491165 0.967338 0.505423 0.238854
C22   C     C_1   0.491014 0.034818 0.503209 0.234915
C23   C     C_R   0.586914 0.544275 0.840865 0.247182
C24   C     C_R   0.409570 0.456408 0.159153 0.244601
C25   C     C_R   0.583331 0.544487 0.754764 0.427943
C26   C     C_R   0.415600 0.455660 0.245586 0.402800
N1    N     N_R   0.499970 0.499970 0.701210 -0.292359
N2    N     N_R   0.500030 0.500030 0.298790 -0.299915
C27   C     C_R   0.416539 0.455198 0.731314 0.466759
C28   C     C_R   0.585802 0.542364 0.268072 0.487509
C29   C     C_R   0.411639 0.456827 0.817505 0.224273
C30   C     C_R   0.588620 0.540594 0.181499 0.230558
C31   C     C_R   0.499909 0.499772 0.873213 -0.121618
C32   C     C_R   0.496913 0.499846 0.126100 -0.121825
C33   C     C_1   0.497946 0.499531 0.962481 0.145127
C34   C     C_1   0.497696 0.499842 0.036652 0.143247
O9    O     O_3   0.876106 0.587323 0.446301 -0.631482
H1    H     H_    0.938672 0.617172 0.423752 0.366631
O10   O     O_3   0.142707 0.545370 0.594732 -0.623834
H2    H     H_    0.088328 0.565014 0.630153 0.362188
O11   O     O_3   0.320961 0.418287 0.848487 -0.668319
H3    H     H_    0.245072 0.414673 0.804538 0.372421
O12   O     O_3   0.680620 0.576902 0.149850 -0.667531
H4    H     H_    0.759687 0.572035 0.190451 0.364892
N3    N     N_R   0.931394 0.442923 0.612454 0.120303
O13   O     O_R   0.883629 0.428357 0.676682 -0.263388
O14   O     O_R   0.019877 0.400821 0.598868 -0.223766
N4    N     N_R   0.055049 0.501099 0.370494 0.118965
O15   O     O_R   0.083372 0.538636 0.308878 -0.286578
O16   O     O_R   0.960649 0.454255 0.357050 -0.243160
N5    N     N_R   0.357760 0.881660 0.607236 0.180703
O17   O     O_R   0.408197 0.935917 0.656213 -0.262325
O18   O     O_R   0.242518 0.862407 0.604361 -0.218683
N6    N     N_R   0.695790 0.115650 0.460697 0.173166
O19   O     O_R   0.677886 0.062128 0.405914 -0.247039
O20   O     O_R   0.808325 0.134374 0.497307 -0.216414
N7    N     N_R   0.356644 0.722319 0.600879 0.184201
O21   O     O_R   0.376572 0.731144 0.680674 -0.227661
O22   O     O_R   0.264872 0.679384 0.564355 -0.331197
N8    N     N_R   0.694476 0.275255 0.453746 0.173997
O23   O     O_R   0.726166 0.260391 0.384073 -0.216483
O24   O     O_R   0.758481 0.324971 0.503256 -0.316142
N9    N     N_R   0.620820 0.736059 0.393860 0.139469
O25   O     O_R   0.737661 0.722559 0.419374 -0.290843
O26   O     O_R   0.573382 0.735902 0.314947 -0.315305
N10   N     N_R   0.291934 0.272649 0.540425 0.147609
O27   O     O_R   0.237629 0.325361 0.492220 -0.292803
O28   O     O_R   0.249563 0.253405 0.605655 -0.267616
O29   O     O_3   0.619486 0.896419 0.404955 -0.624291
H5    H     H_    0.667115 0.865484 0.373705 0.395416
O30   O     O_3   0.290266 0.110858 0.531458 -0.624967
H6    H     H_    0.215091 0.141492 0.518946 0.396215
O31   O     O_3   0.675953 0.589659 0.890018 -0.601826
H7    H     H_    0.671542 0.584015 0.948891 0.366748
O32   O     O_3   0.318882 0.411728 0.110482 -0.602184
H8    H     H_    0.321143 0.418179 0.051347 0.366219
N11   N     N_R   0.669677 0.592521 0.724389 0.183145
O33   O     O_R   0.785235 0.573787 0.737905 -0.267072
O34   O     O_R   0.643200 0.662919 0.710384 -0.273016
N12   N     N_R   0.334101 0.404743 0.276882 0.191569
O35   O     O_R   0.216665 0.418829 0.262448 -0.210405
O36   O     O_R   0.367325 0.335362 0.290723 -0.282393
O37   O     O_3   0.339483 0.408256 0.676593 -0.601867
H9    H     H_    0.315351 0.364366 0.707363 0.362776
O38   O     O_3   0.668230 0.586150 0.322896 -0.581313
H10   H     H_    0.708257 0.624099 0.292437 0.373213

loop_
_geom_bond_atom_site_label_1
_geom_bond_atom_site_label_2
_geom_bond_distance
_ccdc_geom_bond_type
C20   C22   1.435640 S    
N3    O13   1.300998 A    
O37   H9    0.989208 S    
C17   C19   1.399080 A    
C29   C31   1.408068 A    
N9    O25   1.300009 A    
O38   H10   0.988117 S    
N11   O33   1.300838 A    
C8    O9    1.382207 S    
O30   H6    0.989266 S    
C27   C29   1.436922 A    
C10   C20   1.407216 A    
O12   H4    0.990562 S    
O5    C3    1.280980 A    
O31   H7    0.988370 S    
O1    C1    1.288672 A    
C9    C11   1.408987 A    
C14   C16   1.413924 A    
C17   O29   1.385767 S    
C30   O12   1.380254 S    
C25   N11   1.429042 S    
O4    Cu1   1.942778 S    
N5    O18   1.301256 A    
C27   O37   1.376761 S    
C3    C5    1.474315 S    
C4    C6    1.462188 S    
C16   N10   1.437851 S    
N8    O23   1.301164 A    
Cu1   N1    1.996029 S    
O7    C3    1.298809 A    
C28   C30   1.437899 A    
Cu1   Cu2   2.657829 S    
C11   N7    1.433363 S    
N9    O26   1.301037 A    
O2    C2    1.294789 A    
C30   C32   1.406528 A    
C32   C34   1.479874 S    
C11   C13   1.417734 A    
N1    C27   1.370291 A    
N7    O21   1.301116 A    
C23   C31   1.415568 A    
C24   C32   1.414324 A    
N10   O27   1.300989 A    
O4    C2    1.291255 A    
C7    O10   1.386591 S    
N4    O15   1.300671 A    
O32   H8    0.988453 S    
O11   H3    0.990280 S    
N7    O22   1.299788 A    
C24   O32   1.384720 S    
N6    O20   1.301301 A    
C10   N6    1.437871 S    
O7    Cu2   1.948577 S    
Cu2   N2    1.996029 S    
C23   O31   1.384688 S    
N12   O36   1.300727 A    
O9    H1    0.991681 S    
O6    C4    1.285775 A    
C7    C8    1.475724 S    
C31   C33   1.479708 S    
O3    Cu2   1.942778 S    
O8    C4    1.286919 A    
C10   C12   1.405795 A    
N3    O14   1.301841 A    
C5    N4    1.438278 S    
C12   C14   1.410992 A    
O1    Cu1   1.945313 S    
C28   O38   1.374481 S    
C9    C19   1.405612 A    
C26   N12   1.429175 S    
C5    C7    1.363403 D    
O6    Cu2   1.949185 S    
C25   N1    1.376210 A    
C18   O30   1.383306 S    
C21   C22   1.199832 T    
N10   O28   1.301278 A    
O3    C1    1.286541 A    
O8    Cu1   1.948576 S    
C15   C17   1.411829 A    
C16   C18   1.414388 A    
N6    O19   1.300838 A    
C18   C20   1.401680 A    
C6    N3    1.446301 S    
C19   C21   1.436027 S    
N2    C28   1.370985 A    
N12   O35   1.299835 A    
C1    C14   1.466859 S    
C9    N5    1.438805 S    
C2    C13   1.486854 S    
C26   N2    1.378027 A    
C23   C25   1.415099 A    
C24   C26   1.415980 A    
C29   O11   1.381157 S    
C15   N9    1.426180 S    
C13   C15   1.413469 A    
N5    O17   1.301255 A    
O2    Cu2   1.945310 S    
O29   H5    0.988042 S    
C33   C34   1.226265 T    
O5    Cu1   1.949184 S    
C6    C8    1.353548 D    
O10   H2    0.991809 S    
N11   O34   1.300477 A    
N8    O24   1.300038 A    
N4    O16   1.301425 A    
C12   N8    1.435987 S    
