data_mof_unit_28602.cif
_audit_creation_date              2012-12-11T16:24:19-0500
_audit_creation_method            fapswitch 2.2
_symmetry_space_group_name_H-M    P1
_symmetry_Int_Tables_number       1
_space_group_crystal_system       triclinic
_cell_length_a                    14.739352
_cell_length_b                    14.766212
_cell_length_c                    33.417103
_cell_angle_alpha                 96.358677
_cell_angle_beta                  96.522928
_cell_angle_gamma                 61.026604
_cell_volume                      6308.590877

loop_
_atom_site_label
_atom_site_type_symbol
_atom_type_description
_atom_site_fract_x
_atom_site_fract_y
_atom_site_fract_z
_atom_type_partial_charge
C1    C     C_R   0.391153 0.698191 0.445650 0.591980
C2    C     C_1   0.304073 0.326845 0.230967 0.034840
C3    C     C_3   0.834874 0.090565 0.147390 -0.122153
C4    C     C_3   0.585060 0.769098 0.429532 -0.094239
C5    C     C_3   0.226977 0.742355 0.051094 -0.080310
C6    C     C_3   0.124223 0.866065 0.165131 -0.057714
C7    C     C_3   0.447410 0.010866 0.176177 -0.092376
C8    C     C_3   0.395146 0.162405 0.543454 -0.087012
C9    C     C_3   0.495056 0.095851 0.306167 -0.102804
C10   C     C_3   0.099779 0.325847 0.795475 -0.103618
C11   C     C_3   0.544653 0.119686 0.832293 -0.097151
C12   C     C_3   0.631463 0.268839 0.683720 -0.092531
C13   C     C_1   0.309500 0.330911 0.267209 0.063718
C14   C     C_3   0.910960 0.451185 0.591014 -0.107994
C15   C     C_3   0.732230 0.497702 0.920494 -0.082337
C16   C     C_3   0.602063 0.756981 0.694550 -0.116217
C17   C     C_3   0.166611 0.932330 0.576653 -0.101136
C18   C     C_3   0.132716 0.555791 0.301970 -0.142733
C19   C     C_R   0.404681 0.385095 0.434368 0.565532
C20   C     C_R   0.284788 0.290803 0.103231 0.044843
C21   C     C_R   0.759236 0.373575 0.410614 -0.026457
C22   C     C_R   0.765573 0.447816 0.389964 -0.164338
C23   C     C_R   0.798526 0.425555 0.351092 0.228348
C24   C     C_R   0.824768 0.327436 0.331651 0.035826
C25   C     C_R   0.832725 0.247478 0.353700 0.064921
C26   C     C_R   0.797795 0.271047 0.393329 0.259186
C27   C     C_R   0.322937 0.334535 0.310504 0.032926
C28   C     C_R   0.849215 0.297123 0.206960 0.347571
C29   C     C_R   0.833348 0.313976 0.287702 0.366812
C30   C     C_R   0.844044 0.383054 0.145374 0.235949
C31   C     C_R   0.701701 0.409499 0.447703 0.567681
C32   C     C_R   0.864403 0.376462 0.104650 0.083388
C33   C     C_R   0.928354 0.190416 0.101481 -0.163907
C34   C     C_R   0.901546 0.197229 0.140840 0.218746
C35   C     C_R   0.863717 0.292695 0.163720 0.023179
C36   C     C_R   0.913373 0.278613 0.083469 -0.035096
C37   C     C_R   0.373033 0.744905 0.406660 0.056949
C38   C     C_R   0.419025 0.265068 0.328541 0.231231
C39   C     C_R   0.312506 0.723377 0.375075 0.039269
C40   C     C_R   0.310541 0.748988 0.336249 -0.160474
C41   C     C_R   0.367395 0.796172 0.327470 0.022401
C42   C     C_R   0.421171 0.826527 0.358942 0.110055
C43   C     C_R   0.393710 0.701008 0.561254 0.558401
C44   C     C_R   0.426155 0.798523 0.398740 0.241932
C45   C     C_R   0.362532 0.830149 0.204930 0.392513
C46   C     C_R   0.371894 0.806782 0.284671 0.367147
C47   C     C_R   0.272252 0.829684 0.137040 0.234743
C48   C     C_R   0.250863 0.855530 0.096578 0.258315
C49   C     C_R   0.440770 0.278444 0.369717 -0.157511
C50   C     C_R   0.377579 0.917851 0.105757 -0.182446
C51   C     C_R   0.399860 0.892030 0.145957 0.222723
C52   C     C_R   0.346710 0.848305 0.161793 0.012417
C53   C     C_R   0.298895 0.906156 0.081663 -0.066478
C54   C     C_R   0.370653 0.370416 0.584852 0.020279
C55   C     C_R   0.407371 0.389313 0.549036 0.568791
C56   C     C_R   0.308790 0.454790 0.611092 0.014723
C57   C     C_R   0.292972 0.436564 0.648871 -0.161990
C58   C     C_R   0.338873 0.335911 0.661997 -0.038382
C59   C     C_R   0.393724 0.250393 0.634599 0.090629
C60   C     C_R   0.390517 0.274124 0.166679 0.107821
C61   C     C_R   0.407352 0.268020 0.595837 0.275462
C62   C     C_R   0.322522 0.318123 0.784722 0.392702
C63   C     C_R   0.330732 0.325933 0.704718 0.324952
C64   C     C_R   0.210579 0.356496 0.840920 0.220804
C65   C     C_R   0.197731 0.355697 0.881641 0.041870
C66   C     C_R   0.386006 0.259919 0.895062 0.056074
C67   C     C_R   0.701079 0.413821 0.562801 0.550969
C68   C     C_R   0.399326 0.263686 0.854273 0.228176
C69   C     C_R   0.311269 0.312000 0.827244 0.010004
C70   C     C_R   0.285185 0.299823 0.908143 0.011489
C71   C     C_R   0.383361 0.258589 0.124017 0.087680
C72   C     C_R   0.751399 0.381568 0.603486 -0.049326
C73   C     C_R   0.800796 0.432749 0.627362 0.262076
C74   C     C_R   0.824647 0.416739 0.668963 0.080905
C75   C     C_R   0.802682 0.347404 0.686164 0.043874
C76   C     C_R   0.758571 0.292825 0.662135 0.239771
C77   C     C_R   0.735976 0.308055 0.620906 -0.169403
C78   C     C_R   0.902471 0.214238 0.821345 -0.155342
C79   C     C_R   0.367781 0.359954 0.393614 -0.026018
C80   C     C_R   0.930828 0.200115 0.862290 -0.189819
C81   C     C_R   0.849098 0.387193 0.876461 0.304015
C82   C     C_R   0.194924 0.343075 0.124965 -0.169164
C83   C     C_R   0.822867 0.401137 0.835015 0.121746
C84   C     C_R   0.851521 0.313962 0.807426 -0.018729
C85   C     C_1   0.834113 0.325496 0.764686 -0.016363
C86   C     C_1   0.820515 0.335345 0.728929 0.065725
C87   C     C_R   0.908573 0.285764 0.890042 -0.020687
C88   C     C_R   0.379640 0.748727 0.602752 -0.027290
C89   C     C_R   0.279716 0.807274 0.617459 0.250318
C90   C     C_R   0.269840 0.826704 0.659076 -0.152963
C91   C     C_R   0.265841 0.420465 0.376579 0.087009
C92   C     C_R   0.358153 0.791847 0.685961 -0.005671
C93   C     C_R   0.202363 0.356828 0.166723 -0.163485
C94   C     C_R   0.457750 0.742360 0.671562 0.270858
C95   C     C_R   0.467917 0.719517 0.629944 -0.166030
C96   C     C_R   0.323644 0.946774 0.822022 0.068543
C97   C     C_R   0.304948 0.980000 0.862539 0.105094
C98   C     C_R   0.287421 0.827685 0.872219 0.051865
C99   C     C_R   0.306543 0.794333 0.831379 0.125443
C100  C     C_R   0.323164 0.854726 0.806392 0.033373
C101  C     C_1   0.336045 0.825990 0.764113 0.034670
C102  C     C_1   0.346033 0.808647 0.728492 0.033314
C103  C     C_R   0.243997 0.409652 0.334467 0.238225
C104  C     C_R   0.299393 0.320265 0.187685 0.051963
C105  C     C_R   0.286106 0.921275 0.887861 0.019748
C106  C     C_R   0.964172 0.264036 0.045825 0.564216
C107  C     C_R   0.272066 0.259073 0.060334 0.566386
C108  C     C_R   0.259589 0.960009 0.043882 0.553635
C109  C     C_R   0.961986 0.267839 0.930871 0.548041
C110  C     C_R   0.270588 0.264451 0.945417 0.607463
C111  C     C_R   0.256023 0.965017 0.929084 0.557660
C112  C     C_3   0.736322 0.158339 0.401995 -0.097269
C113  C     C_3   0.896187 0.494781 0.335105 -0.089831
C114  C     C_3   0.885899 0.491096 0.187559 -0.092811
Cr1   Cr    Cr6+3 0.576280 0.580550 0.506370 1.027042
Cr2   Cr    Cr6+3 0.346780 0.572400 0.496520 1.081757
Cr3   Cr    Cr6+3 0.576960 0.347070 0.497150 1.038196
Cr4   Cr    Cr6+3 0.087320 0.083240 0.984860 1.027354
Cr5   Cr    Cr6+3 0.087720 0.316210 0.996740 1.062346
Cr6   Cr    Cr6+3 0.317350 0.090340 0.995890 1.041246
H1    H     H_    0.965237 0.114438 0.085743 0.171708
H2    H     H_    0.192968 0.867166 0.670386 0.140779
H3    H     H_    0.118329 0.617219 0.326470 0.108120
H4    H     H_    0.063554 0.585417 0.280183 0.138463
H5    H     H_    0.132183 0.393047 0.182864 0.109574
H6    H     H_    0.118244 0.368141 0.109913 0.144704
H7    H     H_    0.740042 0.525902 0.403107 0.147189
H8    H     H_    0.523515 0.135900 0.111907 0.220089
H9    H     H_    0.513908 0.253696 0.107545 0.227810
H10   H     H_    0.678721 0.203804 0.377687 0.114675
H11   H     H_    0.692737 0.161516 0.427540 0.160852
H12   H     H_    0.779282 0.075974 0.390603 0.116392
H13   H     H_    0.877291 0.505559 0.099719 0.242021
H14   H     H_    0.265973 0.728591 0.312405 0.137154
H15   H     H_    0.756974 0.518803 0.087307 0.257833
H16   H     H_    0.954184 0.419695 0.321007 0.148041
H17   H     H_    0.920982 0.503867 0.367370 0.109365
H18   H     H_    0.894414 0.557743 0.319191 0.159097
H19   H     H_    0.813445 0.124999 0.329567 0.236154
H20   H     H_    0.930491 0.092758 0.355270 0.259440
H21   H     H_    0.940379 0.488492 0.166481 0.085368
H22   H     H_    0.929386 0.431893 0.210120 0.126124
H23   H     H_    0.853012 0.568311 0.204220 0.162685
H24   H     H_    0.825399 0.075874 0.114177 0.117485
H25   H     H_    0.418932 0.951893 0.094050 0.161362
H26   H     H_    0.761969 0.156486 0.158644 0.126294
H27   H     H_    0.848960 0.020311 0.161803 0.141479
H28   H     H_    0.178900 0.716083 0.373114 0.218267
H29   H     H_    0.285509 0.601298 0.362570 0.226252
H30   H     H_    0.611594 0.700681 0.407281 0.110723
H31   H     H_    0.618038 0.739872 0.459853 0.156229
H32   H     H_    0.618083 0.818871 0.422998 0.113388
H33   H     H_    0.269183 0.677776 0.071622 0.146377
H34   H     H_    0.281143 0.742164 0.030373 0.102372
H35   H     H_    0.167494 0.728208 0.032290 0.143524
H36   H     H_    0.248922 0.503413 0.668868 0.159622
H37   H     H_    0.536145 0.162466 0.182791 0.213234
H38   H     H_    0.524862 0.281135 0.179086 0.241400
H39   H     H_    0.449331 0.948766 0.370319 0.246990
H40   H     H_    0.552172 0.836243 0.354275 0.232137
H41   H     H_    0.072293 0.908789 0.139214 0.185996
H42   H     H_    0.135174 0.920827 0.188337 0.139887
H43   H     H_    0.084733 0.831147 0.179147 0.140208
H44   H     H_    0.366090 0.057702 0.185369 0.131015
H45   H     H_    0.457326 0.041314 0.149021 0.109598
H46   H     H_    0.498978 0.020459 0.201190 0.153864
H47   H     H_    0.976172 0.121645 0.871806 0.153870
H48   H     H_    0.186720 0.597188 0.602543 0.242955
H49   H     H_    0.297453 0.597163 0.622539 0.240726
H50   H     H_    0.345089 0.228339 0.524245 0.097544
H51   H     H_    0.346307 0.142891 0.560148 0.120270
H52   H     H_    0.440865 0.093968 0.523090 0.155197
H53   H     H_    0.050939 0.376171 0.879870 0.257037
H54   H     H_    0.060463 0.486482 0.889025 0.269322
H55   H     H_    0.378420 0.135712 0.656371 0.230639
H56   H     H_    0.498144 0.128398 0.666614 0.252838
H57   H     H_    0.418729 0.102389 0.293946 0.147585
H58   H     H_    0.924470 0.146887 0.800268 0.141937
H59   H     H_    0.514378 0.068313 0.337245 0.113444
H60   H     H_    0.555178 0.036321 0.286707 0.156100
H61   H     H_    0.087025 0.282695 0.817562 0.098143
H62   H     H_    0.161786 0.270417 0.775666 0.128634
H63   H     H_    0.026787 0.364067 0.776079 0.164985
H64   H     H_    0.516977 0.136971 0.916457 0.237624
H65   H     H_    0.520927 0.250890 0.921441 0.258289
H66   H     H_    0.594330 0.100265 0.806760 0.162594
H67   H     H_    0.488231 0.089986 0.822953 0.126464
H68   H     H_    0.596402 0.077929 0.858267 0.111753
H69   H     H_    0.700285 0.266255 0.603116 0.171652
H70   H     H_    0.585978 0.281646 0.654032 0.126964
H71   H     H_    0.603432 0.343080 0.702681 0.130903
H72   H     H_    0.616826 0.215244 0.699402 0.162624
H73   H     H_    0.903048 0.401730 0.564684 0.119367
H74   H     H_    0.978594 0.403382 0.611699 0.099967
H75   H     H_    0.927308 0.508932 0.579373 0.147239
H76   H     H_    0.700354 0.515246 0.805457 0.237405
H77   H     H_    0.816053 0.511072 0.801774 0.247235
H78   H     H_    0.711428 0.567629 0.941399 0.147392
H79   H     H_    0.742687 0.433784 0.938478 0.105544
H80   H     H_    0.517183 0.226918 0.382537 0.134436
H81   H     H_    0.666443 0.516174 0.897187 0.128056
H82   H     H_    0.939631 0.454852 0.683228 0.245179
H83   H     H_    0.818689 0.552162 0.691693 0.262891
H84   H     H_    0.241809 0.135461 0.860408 0.225714
H85   H     H_    0.371109 0.072977 0.873771 0.244504
H86   H     H_    0.412570 0.964210 0.784627 0.238835
H87   H     H_    0.282513 0.032633 0.773249 0.229983
H88   H     H_    0.552542 0.842897 0.696665 0.117797
H89   H     H_    0.641765 0.730853 0.665888 0.136950
H90   H     H_    0.663269 0.736920 0.719673 0.147062
H91   H     H_    0.545016 0.672287 0.619292 0.164697
H92   H     H_    0.229317 0.924176 0.558508 0.112094
H93   H     H_    0.151163 0.993974 0.601419 0.106412
H94   H     H_    0.094715 0.957460 0.556399 0.153930
H95   H     H_    0.364796 0.638979 0.831357 0.259600
H96   H     H_    0.235548 0.705636 0.818808 0.260348
H97   H     H_    0.194945 0.807387 0.906774 0.255545
H98   H     H_    0.322970 0.749034 0.922635 0.225295
H99   H     H_    0.126400 0.468675 0.398560 0.236813
H100  H     H_    0.153171 0.565093 0.392513 0.247362
H101  H     H_    0.200457 0.541834 0.285534 0.121924
N1    N     N_R   0.770495 0.381603 0.224459 -0.169259
N2    N     N_R   0.374313 0.889694 0.272105 -0.193690
N3    N     N_R   0.369595 0.901128 0.232855 -0.211480
N4    N     N_R   0.255129 0.404217 0.765429 -0.162137
N5    N     N_3   0.474874 0.209971 0.101793 -0.613113
N6    N     N_3   0.836426 0.468864 0.084919 -0.584895
N7    N     N_3   0.873465 0.144071 0.335313 -0.594955
N8    N     N_3   0.257524 0.669179 0.381496 -0.589054
N9    N     N_3   0.489277 0.241989 0.188918 -0.603079
N10   N     N_3   0.471870 0.883266 0.350207 -0.608365
N11   N     N_3   0.267367 0.560084 0.600908 -0.558964
N12   N     N_R   0.259287 0.408024 0.726278 -0.232667
N13   N     N_3   0.094795 0.408592 0.895554 -0.543429
N14   N     N_3   0.436270 0.145053 0.644897 -0.586000
N15   N     N_3   0.474265 0.216528 0.923598 -0.595390
N16   N     N_3   0.769697 0.504362 0.821498 -0.576829
N17   N     N_3   0.868696 0.472844 0.694114 -0.624020
N18   N     N_3   0.299885 0.076895 0.877634 -0.583794
N19   N     N_3   0.340467 0.009396 0.796868 -0.662107
N20   N     N_3   0.307552 0.699954 0.814901 -0.595907
N21   N     N_3   0.270389 0.765194 0.897254 -0.639793
N22   N     N_3   0.184938 0.490174 0.402079 -0.592440
N23   N     N_R   0.398886 0.240080 0.724169 -0.265894
N24   N     N_R   0.394290 0.235855 0.763390 -0.220160
N25   N     N_R   0.762729 0.389769 0.264051 -0.161145
N26   N     N_R   0.911093 0.228342 0.270206 -0.198871
N27   N     N_R   0.919006 0.220296 0.230517 -0.183447
N28   N     N_R   0.362204 0.746411 0.217562 -0.160958
N29   N     N_R   0.366861 0.735018 0.256690 -0.230136
O1    O     O_R   0.679450 0.499830 0.463150 -0.544780
O2    O     O_R   0.340240 0.172500 0.045430 -0.482461
O3    O     O_R   0.309670 0.000990 0.032050 -0.521778
O4    O     O_R   0.480650 0.664000 0.464630 -0.489172
O5    O     O_R   0.168330 0.982130 0.939200 -0.527800
O6    O     O_R   0.000140 0.178170 0.944610 -0.509857
O7    O     O_R   0.983010 0.336750 0.948660 -0.451126
O8    O     O_R   0.181800 0.312190 0.959860 -0.468216
O9    O     O_R   0.338500 0.175680 0.956950 -0.476729
O10   O     O_R   0.308050 0.003930 0.950020 -0.471129
O11   O     O_3   0.164130 0.163270 0.992500 -0.261936
O12   O     O_R   0.356040 0.477400 0.534170 -0.469143
O13   O     O_R   0.323930 0.675950 0.455370 -0.474901
O14   O     O_R   0.354700 0.475360 0.451930 -0.454306
O15   O     O_R   0.494470 0.320860 0.448390 -0.544819
O16   O     O_R   0.662580 0.357570 0.460050 -0.461248
O17   O     O_R   0.680900 0.502040 0.551870 -0.465900
O18   O     O_R   0.481990 0.666040 0.546870 -0.515697
O19   O     O_R   0.325370 0.678160 0.544080 -0.444029
O20   O     O_3   0.808302 0.193746 0.416458 -0.558307
O21   O     O_3   0.795884 0.503879 0.331008 -0.549531
O22   O     O_3   0.803307 0.478672 0.166749 -0.533767
O23   O     O_R   0.495910 0.323070 0.537100 -0.480650
O24   O     O_3   0.920643 0.108141 0.157965 -0.566297
O25   O     O_3   0.475910 0.829744 0.430542 -0.573416
O26   O     O_3   0.176332 0.838808 0.073032 -0.537648
O27   O     O_3   0.220113 0.785771 0.152265 -0.543463
O28   O     O_3   0.477282 0.904278 0.169582 -0.535811
O29   O     O_3   0.464750 0.183822 0.570055 -0.519509
O30   O     O_3   0.496262 0.190469 0.305242 -0.559288
O31   O     O_3   0.123034 0.403032 0.814731 -0.541841
O32   O     O_3   0.497818 0.228075 0.841456 -0.551124
O33   O     O_3   0.739067 0.222967 0.678974 -0.555791
O34   O     O_R   0.663920 0.359620 0.542290 -0.511541
O35   O     O_3   0.818544 0.504737 0.611338 -0.551182
O36   O     O_3   0.824590 0.473363 0.902950 -0.520434
O37   O     O_3   0.544394 0.705657 0.698638 -0.554104
O38   O     O_3   0.190995 0.837238 0.591846 -0.535738
O39   O     O_3   0.143835 0.465572 0.317458 -0.589096
O40   O     O_3   0.500010 0.500010 0.500010 -0.271804
O41   O     O_R   0.170070 0.978950 0.027680 -0.463144
O42   O     O_R   0.001760 0.175230 0.026640 -0.511914
O43   O     O_R   0.984760 0.333570 0.037150 -0.481837
O44   O     O_R   0.183410 0.309240 0.041890 -0.519004

loop_
_geom_bond_atom_site_label_1
_geom_bond_atom_site_label_2
_ccdc_geom_bond_type
C66   C68   A    
C14   H75   S    
C83   N16   S    
C41   C42   A    
C3    H27   S    
C101  C102  T    
C20   C82   A    
C108  O3    A    
Cr5   O8    S    
C11   H66   S    
C90   H2    S    
C73   C74   A    
Cr5   O43   S    
C76   O33   S    
N2    N3    A    
H53   N13   S    
C21   C26   A    
C17   H92   S    
C6    H43   S    
H38   N9    S    
C57   C58   A    
C107  O44   A    
C9    H57   S    
C113  H18   S    
C38   C49   A    
Cr5   O11   S    
C85   C86   T    
Cr1   O18   S    
H97   N21   S    
C34   O24   S    
C23   O21   S    
N28   N29   A    
C98   C105  A    
H15   N6    S    
C30   C35   A    
C29   N26   A    
C60   N9    S    
C43   C88   S    
C32   C36   A    
C10   O31   S    
C16   H89   S    
C61   O29   S    
C110  O8    A    
C80   C87   A    
Cr3   O40   S    
C108  O41   A    
C78   C80   A    
C103  O39   S    
H56   N14   S    
Cr1   O1    S    
Cr6   O2    S    
C27   C38   A    
C5    H34   S    
C55   O12   A    
H96   N20   S    
C33   C36   A    
C15   H79   S    
N23   N24   A    
C56   N11   S    
C15   O36   S    
C34   C35   A    
C28   N27   A    
Cr2   O40   S    
H85   N18   S    
C18   H101  S    
C8    H52   S    
C24   C29   S    
H64   N15   S    
H83   N17   S    
C70   C110  S    
C45   N28   A    
C19   O14   A    
C1    O13   A    
H77   N16   S    
C64   O31   S    
C46   N29   A    
C6    H42   S    
C28   C35   S    
C8    H50   S    
C68   C69   A    
C113  H16   S    
H9    N5    S    
C47   C48   A    
C23   C24   A    
C32   N6    S    
C9    O30   S    
C7    O28   S    
C80   H47   S    
C79   C91   A    
Cr3   O16   S    
C9    H59   S    
C8    H51   S    
C92   C102  S    
C18   H3    S    
C19   O15   A    
C20   C107  S    
C97   C105  A    
C42   N10   S    
C114  H22   S    
C7    H45   S    
C88   C95   A    
C99   N20   S    
C82   C93   A    
C26   O20   S    
C21   C22   A    
C31   O16   A    
C33   H1    S    
C10   H63   S    
C96   N19   S    
Cr5   O44   S    
Cr4   O42   S    
C42   C44   A    
H84   N18   S    
C17   H93   S    
H54   N13   S    
C93   C104  A    
C24   C25   A    
C15   H81   S    
Cr1   O17   S    
H37   N9    S    
C50   C51   A    
C68   O32   S    
H76   N16   S    
C111  O5    A    
C48   C53   A    
C97   N18   S    
H100  N22   S    
C54   C56   A    
H95   N20   S    
C50   C53   A    
C59   C61   A    
C74   C75   A    
C36   C106  S    
C11   H68   S    
C114  H21   S    
C113  O21   S    
C65   N13   S    
C67   C72   S    
C12   H72   S    
C30   O22   S    
C76   C77   A    
C18   O39   S    
Cr3   O23   S    
H20   N7    S    
C112  O20   S    
C39   C40   A    
C17   O38   S    
C72   C73   A    
C62   N24   A    
C45   C52   S    
C58   C59   A    
C5    H35   S    
C40   H14   S    
C78   C84   A    
C112  H12   S    
C46   N2    A    
C51   C52   A    
C51   O28   S    
C66   N15   S    
H19   N7    S    
C16   O37   S    
H39   N10   S    
C74   N17   S    
C47   C52   A    
C75   C76   A    
C11   O32   S    
C72   C77   A    
Cr2   O14   S    
C106  O42   A    
H48   N11   S    
C67   O17   A    
C81   C83   A    
C75   C86   S    
C90   C92   A    
C83   C84   A    
C6    H41   S    
C2    C104  S    
H8    N5    S    
C41   C46   S    
C96   C97   A    
C21   C31   S    
Cr1   O40   S    
C92   C94   A    
C33   C34   A    
H40   N10   S    
C31   O1    A    
C20   C71   A    
C5    O26   S    
C64   C69   A    
C84   C85   S    
C4    H32   S    
C19   C79   S    
C2    C13   T    
C81   C87   A    
C9    H60   S    
Cr4   O6    S    
H87   N19   S    
C3    H26   S    
C107  O2    A    
C50   H25   S    
C38   O30   S    
C40   C41   A    
Cr5   O7    S    
C14   H73   S    
C91   N22   S    
Cr6   O11   S    
C47   O27   S    
C63   N12   A    
C10   H62   S    
C71   N5    S    
C11   H67   S    
Cr4   O41   S    
C56   C57   A    
C17   H94   S    
Cr6   O9    S    
C106  O43   A    
C48   O26   S    
C111  O10   A    
C8    O29   S    
C49   C79   A    
C1    O4    A    
C3    O24   S    
C58   C63   S    
C15   H78   S    
C12   H71   S    
C54   C55   S    
C37   C44   A    
C45   N3    A    
C81   O36   S    
C82   H6    S    
C78   H58   S    
C4    O25   S    
C7    H46   S    
C59   N14   S    
C3    H24   S    
H13   N6    S    
C91   C103  A    
C67   O34   A    
C16   H88   S    
C98   N21   S    
C114  O22   S    
C109  O7    A    
H82   N17   S    
N26   N27   A    
H49   N11   S    
C39   N8    S    
C94   O37   S    
C87   C109  S    
C54   C61   A    
C1    C37   S    
C95   H91   S    
Cr2   O19   S    
C62   N4    A    
C4    H30   S    
C7    H44   S    
C25   N7    S    
H55   N14   S    
C60   C71   A    
C99   C100  A    
C77   H69   S    
C114  H23   S    
Cr3   O34   S    
C16   H90   S    
C25   C26   A    
C57   H36   S    
H29   N8    S    
C43   O18   A    
C37   C39   A    
Cr2   O13   S    
Cr6   O10   S    
C44   O25   S    
C64   C65   A    
C30   C32   A    
N1    N25   A    
C53   C108  S    
C22   H7    S    
C66   C70   A    
Cr4   O11   S    
C4    H31   S    
C29   N25   A    
C5    H33   S    
C63   N23   A    
C96   C100  A    
C27   C103  A    
C100  C101  S    
C109  O6    A    
H99   N22   S    
C55   O23   A    
C113  H17   S    
C12   H70   S    
H98   N21   S    
C112  H11   S    
C14   H74   S    
C94   C95   A    
C93   H5    S    
C43   O19   A    
Cr2   O12   S    
Cr4   O5    S    
C12   O33   S    
C105  C111  S    
N4    N12   A    
C73   O35   S    
C110  O9    A    
H65   N15   S    
C88   C89   A    
C62   C69   S    
C89   O38   S    
C28   N1    A    
C98   C99   A    
C10   H61   S    
C22   C23   A    
C13   C27   S    
H86   N19   S    
H28   N8    S    
C14   O35   S    
Cr6   O3    S    
C112  H10   S    
C89   C90   A    
C60   C104  A    
C6    O27   S    
Cr1   O4    S    
Cr3   O15   S    
C65   C70   A    
C18   H4    S    
C49   H80   S    
