data_mof_unit_68183.cif
_audit_creation_date              2012-12-11T16:30:36-0500
_audit_creation_method            fapswitch 2.2
_symmetry_space_group_name_H-M    P1
_symmetry_Int_Tables_number       1
_space_group_crystal_system       monoclinic
_cell_length_a                    7.051809
_cell_length_b                    14.582507
_cell_length_c                    16.225921
_cell_angle_alpha                 90.0
_cell_angle_beta                  91.332732
_cell_angle_gamma                 90.0
_cell_volume                      1668.10964188

loop_
_atom_site_label
_atom_site_type_symbol
_atom_type_description
_atom_site_fract_x
_atom_site_fract_y
_atom_site_fract_z
_atom_type_partial_charge
O1    O     O_R   0.611670 0.415650 0.164070 -0.520077
O2    O     O_R   0.388330 0.915650 0.835930 -0.520077
O3    O     O_R   0.940950 0.405490 0.337780 -0.525800
O4    O     O_R   0.059050 0.905490 0.662220 -0.525800
O5    O     O_R   0.111350 0.584350 0.338470 -0.506838
O6    O     O_R   0.888650 0.084350 0.661530 -0.506837
C1    C     C_R   0.773147 0.381951 0.365716 0.924242
C2    C     C_R   0.226853 0.881951 0.634284 0.924242
O7    O     O_R   0.941380 0.404630 0.164680 -0.527648
O8    O     O_R   0.058620 0.904630 0.835320 -0.527648
O9    O     O_R   0.111780 0.583470 0.164130 -0.495781
O10   O     O_R   0.888220 0.083470 0.835870 -0.495781
C3    C     C_R   0.768739 0.377386 0.140166 0.733164
C4    C     C_R   0.231261 0.877386 0.859834 0.733165
O11   O     O_R   0.611240 0.416530 0.338400 -0.516020
O12   O     O_R   0.388760 0.916530 0.661600 -0.516021
O13   O     O_3   0.778020 0.558680 0.251290 -0.335844
O14   O     O_3   0.221980 0.058680 0.748710 -0.335844
V1    V     V_3+5 0.052840 0.489110 0.251260 1.856020
V2    V     V_3+5 0.947160 0.989110 0.748740 1.856020
O15   O     O_R   0.441500 0.594510 0.164760 -0.530526
O16   O     O_R   0.558500 0.094510 0.835240 -0.530526
C5    C     C_R   0.269219 0.618936 0.138279 0.802328
C6    C     C_R   0.730781 0.118936 0.861721 0.802329
O17   O     O_R   0.441080 0.595370 0.337860 -0.512865
O18   O     O_R   0.558920 0.095370 0.662140 -0.512865
C7    C     C_R   0.273108 0.617034 0.367267 0.970544
C8    C     C_R   0.726892 0.117033 0.632733 0.970544
V3    V     V_3+5 0.552850 0.510890 0.251270 1.857808
V4    V     V_3+5 0.447150 0.010890 0.748730 1.857808
O19   O     O_3   0.277800 0.441320 0.251250 -0.361044
O20   O     O_3   0.722200 0.941320 0.748750 -0.361044
C9    C     C_3   0.152316 0.645802 0.514855 0.702072
C10   C     C_3   0.847684 0.145802 0.485145 0.702072
C11   C     C_3   0.169758 0.711294 0.592418 0.649915
C12   C     C_3   0.830242 0.211294 0.407582 0.649915
C13   C     C_3   0.153511 0.776752 0.410095 0.579984
C14   C     C_3   0.846489 0.276752 0.589905 0.579984
C15   C     C_3   0.459950 0.715621 0.473552 1.006635
C16   C     C_3   0.540049 0.215621 0.526448 1.006635
C17   C     C_3   0.260321 0.687288 0.438767 -0.774680
C18   C     C_3   0.739679 0.187288 0.561232 -0.774680
C19   C     C_3   0.236445 0.809639 0.564312 -0.749211
C20   C     C_3   0.763555 0.309638 0.435688 -0.749212
C21   C     C_3   0.111277 0.838093 0.487053 0.947546
C22   C     C_3   0.888723 0.338093 0.512947 0.947547
C23   C     C_3   0.446335 0.797637 0.534929 0.640197
C24   C     C_3   0.553665 0.297637 0.465071 0.640198
C25   C     C_R   0.168299 0.935715 0.033132 0.092099
C26   C     C_R   0.831701 0.435715 0.966868 0.092099
C27   C     C_R   0.091579 0.958609 0.108949 0.484137
C28   C     C_R   0.908421 0.458609 0.891051 0.484138
C29   C     C_R   0.035766 0.891041 0.162471 0.664818
C30   C     C_R   0.964233 0.391041 0.837529 0.664818
C31   C     C_R   0.081355 0.800027 0.147754 0.443948
C32   C     C_R   0.918644 0.300027 0.852245 0.443948
C33   C     C_R   0.178137 0.773523 0.075655 -0.176638
C34   C     C_R   0.821862 0.273523 0.924345 -0.176637
C35   C     C_R   0.200066 0.840891 0.012016 -0.073729
C36   C     C_R   0.799934 0.340892 0.987984 -0.073729
C37   C     C_R   0.246506 0.681925 0.065369 0.047752
C38   C     C_R   0.753494 0.181925 0.934630 0.047751
C39   C     C_R   0.293840 0.651210 0.985180 -0.038978
C40   C     C_R   0.706160 0.151210 0.014820 -0.038978
C41   C     C_R   0.314368 0.717795 0.920390 -0.110189
C42   C     C_R   0.685632 0.217795 0.079610 -0.110189
C43   C     C_R   0.253690 0.811703 0.931750 0.064647
C44   C     C_R   0.746310 0.311703 0.068250 0.064647
C45   C     C_R   0.320030 0.555402 0.965868 0.063495
C46   C     C_R   0.679970 0.055402 0.034131 0.063494
C47   C     C_R   0.375586 0.528966 0.887603 0.546549
C48   C     C_R   0.624414 0.028966 0.112397 0.546549
C49   C     C_R   0.418964 0.593582 0.829523 0.738649
C50   C     C_R   0.581037 0.093582 0.170477 0.738649
C51   C     C_R   0.400426 0.686629 0.846773 0.062289
C52   C     C_R   0.599575 0.186629 0.153227 0.062289
Br1   Br    Br    0.896727 0.613550 0.483302 -0.060167
Br2   Br    Br    0.103274 0.113551 0.516698 -0.060168
Br3   Br    Br    0.544607 0.910971 0.489723 -0.015077
Br4   Br    Br    0.455393 0.410971 0.510277 -0.015077
Br5   Br    Br    0.297031 0.842645 0.326449 -0.115690
Br6   Br    Br    0.702968 0.342644 0.673551 -0.115689
F1    F     F_    0.137830 0.928743 0.467260 -0.543529
F2    F     F_    0.862169 0.428743 0.532740 -0.543529
F3    F     F_    0.497336 0.564959 0.758244 -0.449076
F4    F     F_    0.502664 0.064959 0.241756 -0.449076
Br7   Br    Br    0.228568 0.042530 0.968402 -0.430238
Br8   Br    Br    0.771432 0.542530 0.031598 -0.430238
F5    F     F_    0.063816 0.047690 0.130054 -0.603372
F6    F     F_    0.936184 0.547690 0.869946 -0.603372
F7    F     F_    0.941411 0.914395 0.231377 -0.461553
F8    F     F_    0.058589 0.414395 0.768623 -0.461553
F9    F     F_    0.020571 0.738761 0.203776 -0.586437
F10   F     F_    0.979428 0.238761 0.796224 -0.586437
Br9   Br    Br    0.277082 0.450800 0.036258 -0.452438
Br10  Br    Br    0.722918 0.950800 0.963742 -0.452438
F11   F     F_    0.402569 0.439055 0.869176 -0.592223
F12   F     F_    0.597431 0.939055 0.130824 -0.592223
F13   F     F_    0.227548 0.562366 0.537184 -0.473219
F14   F     F_    0.772453 0.062365 0.462815 -0.473219
Br11  Br    Br    0.571289 0.757943 0.785376 -0.211755
Br12  Br    Br    0.428710 0.257943 0.214624 -0.211755
F15   F     F_    0.306686 0.675369 0.645744 -0.497334
F16   F     F_    0.693315 0.175369 0.354256 -0.497334
Br13  Br    Br    0.946186 0.709448 0.660755 -0.083717
Br14  Br    Br    0.053815 0.209448 0.339245 -0.083717
F17   F     F_    0.983237 0.755838 0.370196 -0.473724
F18   F     F_    0.016762 0.255839 0.629804 -0.473724
F19   F     F_    0.922803 0.829016 0.506575 -0.540240
F20   F     F_    0.077196 0.329016 0.493425 -0.540240
F21   F     F_    0.585129 0.735931 0.411542 -0.545865
F22   F     F_    0.414871 0.235930 0.588457 -0.545866
F23   F     F_    0.530602 0.641045 0.516557 -0.482177
F24   F     F_    0.469398 0.141045 0.483443 -0.482177
F25   F     F_    0.566449 0.779611 0.601386 -0.505141
F26   F     F_    0.433551 0.279611 0.398614 -0.505141

loop_
_geom_bond_atom_site_label_1
_geom_bond_atom_site_label_2
_ccdc_geom_bond_type
C34   C38   A    
C42   C44   A    
C39   C41   A    
O13   V3    S    
C25   Br7   S    
C28   F6    S    
C10   C18   S    
C2    C19   S    
C23   Br3   S    
C31   F9    S    
V1    O19   S    
C16   F22   S    
C48   F12   S    
C23   F25   S    
C47   F11   S    
O9    V1    S    
C50   C52   A    
C13   F17   S    
C11   F15   S    
C21   F19   S    
C33   C35   A    
C41   C43   A    
O12   V4    S    
C37   C39   A    
O9    C5    A    
C45   C47   A    
O7    C3    A    
C38   C40   A    
C35   C43   A    
O5    C7    A    
O7    V1    S    
O6    C8    A    
C46   Br10  S    
C39   C45   A    
C20   C22   S    
C25   C27   A    
C29   F7    S    
C10   F14   S    
C4    C43   S    
O3    V1    S    
O14   V4    S    
C40   C46   A    
C11   C19   S    
C10   C12   S    
O4    C2    A    
C24   F26   S    
C16   C18   S    
C2    O12   A    
C14   Br6   S    
C13   C17   S    
C49   C51   A    
C13   Br5   S    
C21   F1    S    
C28   C30   A    
O11   V3    S    
C29   C31   A    
O17   V3    S    
C30   C32   A    
C12   Br14  S    
C48   C50   A    
O8    C4    A    
O8    V2    S    
C47   C49   A    
O13   V1    S    
C15   F23   S    
O15   V3    S    
C27   C29   A    
C40   C42   A    
C32   F10   S    
C30   F8    S    
C11   Br13  S    
C7    C17   S    
C26   C28   A    
C42   C52   A    
O10   V2    S    
O1    V3    S    
C1    C20   S    
C50   F4    S    
C19   C21   S    
C49   F3    S    
C22   F2    S    
O18   V4    S    
C31   C33   A    
O16   C6    A    
C12   C20   S    
O1    C3    A    
C13   C21   S    
C15   C23   S    
V2    O20   S    
C16   C24   S    
C6    C38   S    
O16   V4    S    
O18   C8    A    
C45   Br9   S    
C25   C35   A    
C33   C37   A    
O5    V1    S    
C26   Br8   S    
O17   C7    A    
O6    V2    S    
O10   C6    A    
O3    C1    A    
C41   C51   A    
C12   F16   S    
O2    V4    S    
C36   C44   A    
C9    C17   S    
C24   Br4   S    
O15   C5    A    
C26   C36   A    
V3    O19   S    
C22   F20   S    
C10   Br2   S    
V4    O20   S    
C15   F21   S    
C9    Br1   S    
C19   C23   S    
C1    O11   A    
C9    C11   S    
C32   C34   A    
O14   V2    S    
C14   F18   S    
O2    C4    A    
C14   C22   S    
O4    V2    S    
C14   C18   S    
C5    C37   S    
C15   C17   S    
C51   Br11  S    
C46   C48   A    
C52   Br12  S    
C9    F13   S    
C34   C36   A    
C3    C44   S    
C27   F5    S    
C20   C24   S    
C16   F24   S    
C8    C18   S    
