data_mof_unit_47824.cif
_audit_creation_date              2012-12-11T17:10:13-0500
_audit_creation_method            fapswitch 2.2
_symmetry_space_group_name_H-M    P1
_symmetry_Int_Tables_number       1
_space_group_crystal_system       triclinic
_cell_length_a                    14.936596
_cell_length_b                    14.890179
_cell_length_c                    14.874307
_cell_angle_alpha                 109.063356
_cell_angle_beta                  109.921232
_cell_angle_gamma                 108.817424
_cell_volume                      2565.47887006

loop_
_atom_site_label
_atom_site_type_symbol
_atom_type_description
_atom_site_fract_x
_atom_site_fract_y
_atom_site_fract_z
_atom_type_partial_charge
C1    C     C_R   0.185099 0.278436 0.245939 -0.183612
C2    C     C_R   0.451091 0.448995 0.775756 0.024441
C3    C     C_R   0.568119 0.198365 0.500224 -0.108940
C4    C     C_R   0.203988 0.577130 0.498337 0.065946
C5    C     C_R   0.475571 0.719994 0.406180 -0.142328
C6    C     C_R   0.813358 0.563665 0.593305 -0.113764
C7    C     C_R   0.496667 0.404652 0.197018 -0.140493
C8    C     C_R   0.709380 0.800654 0.801856 -0.134098
C9    C     C_R   0.799949 0.707730 0.802262 -0.149285
C10   C     C_R   0.405272 0.496109 0.194962 -0.149409
C11   C     C_R   0.564060 0.813967 0.589600 -0.115260
C12   C     C_R   0.524656 0.431774 0.745789 -0.135974
C13   C     C_R   0.725838 0.467918 0.410095 -0.137232
C14   C     C_R   0.548889 0.822787 0.495828 0.075500
C15   C     C_R   0.829081 0.542608 0.504157 0.050094
C16   C     C_R   0.436067 0.434704 0.132409 0.075837
C17   C     C_R   0.801463 0.800331 0.862375 0.064940
C18   C     C_R   0.108827 0.626197 0.198955 -0.232935
C19   C     C_R   0.112063 0.642568 0.298364 -0.122931
C20   C     C_R   0.028199 0.566317 0.300001 0.033887
C21   C     C_R   0.941008 0.473950 0.200350 -0.381718
C22   C     C_R   0.938240 0.458014 0.101241 0.856460
C23   C     C_R   0.509143 0.203519 0.410086 -0.075380
C24   C     C_R   0.022141 0.534022 0.100609 -0.274549
C25   C     C_R   0.936486 0.571258 0.411562 -0.233196
C26   C     C_R   0.935473 0.586744 0.509475 0.059045
C27   C     C_R   0.036726 0.638784 0.608005 0.024621
C28   C     C_R   0.131090 0.661563 0.602175 -0.219945
C29   C     C_R   0.125434 0.616281 0.500913 0.039206
C30   C     C_R   0.030869 0.584354 0.405330 0.086262
C31   C     C_R   0.095997 0.759272 0.803216 -0.176168
C32   C     C_R   0.115362 0.774424 0.907325 -0.122406
C33   C     C_R   0.089980 0.685267 0.925266 -0.111903
C34   C     C_R   0.295045 0.601679 0.589770 -0.132443
C35   C     C_R   0.046265 0.580831 0.839414 -0.089064
C36   C     C_R   0.027596 0.565348 0.735430 -0.147479
C37   C     C_R   0.050639 0.654336 0.716245 0.093790
C38   C     C_R   0.451021 0.345233 0.877156 0.007696
C39   C     C_R   0.406704 0.400380 0.832179 0.001677
C40   C     C_R   0.334376 0.426062 0.861543 -0.149329
C41   C     C_R   0.331685 0.424187 0.954116 -0.202867
C42   C     C_R   0.400531 0.395560 0.016059 0.072858
C43   C     C_R   0.447845 0.342939 0.968003 0.064109
C44   C     C_3   0.558772 0.353101 0.016808 -0.661713
C45   C     C_R   0.596074 0.290369 0.591102 0.705005
C46   C     C_3   0.562826 0.356143 0.918078 0.721249
C47   C     C_R   0.540139 0.922539 0.391631 0.095773
C48   C     C_R   0.591522 0.922298 0.489735 0.083915
C49   C     C_R   0.668664 0.023166 0.585613 -0.222140
C50   C     C_R   0.672518 0.119201 0.587776 -0.113124
C51   C     C_R   0.598821 0.113729 0.494095 0.079750
C52   C     C_R   0.541906 0.016466 0.394435 0.036121
C53   C     C_3   0.425569 0.955885 0.303288 0.393147
C54   C     C_3   0.424326 0.852900 0.298946 -0.669152
C55   C     C_R   0.992174 0.030649 0.144579 0.158595
C56   C     C_R   0.201914 0.507858 0.408067 -0.131403
C57   C     C_R   0.079066 0.079013 0.130181 0.049093
C58   C     C_R   0.078691 0.027772 0.032581 -0.214882
C59   C     C_R   0.987720 0.932735 0.946617 -0.210729
C60   C     C_R   0.896224 0.890746 0.957264 0.049770
C61   C     C_R   0.899808 0.936562 0.057302 0.137988
C62   C     C_3   0.825716 0.973386 0.083977 -0.496665
C63   C     C_3   0.927537 0.077058 0.180246 -0.468734
C64   C     C_R   0.435643 0.526914 0.750497 -0.107712
C65   C     C_R   0.277835 0.186560 0.247063 0.542070
C66   C     C_R   0.175097 0.176262 0.216617 -0.108743
H1    H     H_    0.120434 0.299013 0.227249 0.132088
H2    H     H_    0.870257 0.622468 0.677569 0.124715
H3    H     H_    0.516908 0.341187 0.169992 0.116192
H4    H     H_    0.681997 0.857951 0.828583 0.098552
H5    H     H_    0.855966 0.679005 0.830847 0.128113
H6    H     H_    0.344134 0.519002 0.165461 0.093839
H7    H     H_    0.616010 0.878376 0.673805 0.107387
H8    H     H_    0.706390 0.433347 0.325403 0.100848
H9    H     H_    0.019952 0.521579 0.023904 0.144790
H10   H     H_    0.173241 0.685091 0.197927 0.143437
H11   H     H_    0.179644 0.714632 0.373882 0.139695
H12   H     H_    0.550586 0.372791 0.747876 0.193705
H13   H     H_    0.875815 0.413715 0.199470 0.159223
H14   H     H_    0.862574 0.543962 0.338395 0.129581
H15   H     H_    0.206088 0.698211 0.677918 0.129211
H16   H     H_    0.116564 0.828992 0.790353 0.125016
H17   H     H_    0.150635 0.855352 0.974319 0.128697
H18   H     H_    0.105012 0.697305 0.005899 0.105630
H19   H     H_    0.027609 0.511940 0.853549 0.122729
H20   H     H_    0.994990 0.484326 0.669803 0.121207
H21   H     H_    0.291333 0.461043 0.823194 0.122935
H22   H     H_    0.494850 0.158795 0.328493 0.159078
H23   H     H_    0.286599 0.457699 0.983553 0.123213
H24   H     H_    0.620425 0.431251 0.094125 0.163086
H25   H     H_    0.555830 0.278824 0.020366 0.236939
H26   H     H_    0.628355 0.434637 0.939097 0.014894
H27   H     H_    0.716146 0.027138 0.661757 0.146090
H28   H     H_    0.724307 0.193953 0.665266 0.217287
H29   H     H_    0.415616 0.961534 0.228005 0.058154
H30   H     H_    0.366665 0.811422 0.321961 0.224645
H31   H     H_    0.331547 0.663967 0.673449 0.091280
H32   H     H_    0.417729 0.799182 0.221906 0.167847
H33   H     H_    0.147525 0.063178 0.021928 0.157615
H34   H     H_    0.986226 0.895766 0.869674 0.144478
H35   H     H_    0.776216 0.987618 0.020673 0.200887
H36   H     H_    0.778946 0.922215 0.109382 0.194080
H37   H     H_    0.936696 0.150772 0.172246 0.199098
H38   H     H_    0.939596 0.085704 0.261231 0.193333
H39   H     H_    0.148982 0.479134 0.322871 0.114658
H40   H     H_    0.382632 0.559215 0.761314 0.095655
H41   H     H_    0.448978 0.695955 0.321072 0.119703
N1    N     N_R   0.291070 0.347930 0.293870 -0.068090
N2    N     N_R   0.708930 0.502750 0.556810 -0.047640
N3    N     N_R   0.502760 0.445970 0.293860 -0.042537
N4    N     N_R   0.652110 0.708890 0.706130 -0.044101
N5    N     N_R   0.708930 0.652070 0.706130 -0.041612
N6    N     N_R   0.445950 0.502780 0.293850 -0.039844
N7    N     N_R   0.502760 0.708900 0.556790 -0.043540
N8    N     N_R   0.652110 0.445950 0.443190 -0.051443
N9    N     N_R   0.554050 0.497220 0.706150 -0.038881
N10   N     N_R   0.497240 0.291100 0.443210 -0.086237
N11   N     N_R   0.347890 0.554050 0.556810 -0.042344
N12   N     N_R   0.554050 0.347900 0.556830 -0.120913
N13   N     N_R   0.291070 0.497250 0.443190 -0.039892
N14   N     N_R   0.497240 0.554030 0.706140 -0.045161
N15   N     N_R   0.347890 0.291110 0.293870 -0.073116
N16   N     N_R   0.445950 0.652100 0.443170 -0.041126
Ni1   Ni    Ni4+2 0.369690 0.500010 0.369700 0.207367
Ni2   Ni    Ni4+2 0.630310 0.499990 0.630300 0.263996
Ni3   Ni    Ni4+2 0.500000 0.369720 0.369720 0.220272
Ni4   Ni    Ni4+2 0.500000 0.630280 0.630280 0.210367
F1    F     F_    0.854061 0.368713 0.005657 -0.670615
F2    F     F_    0.561573 0.264739 0.851874 -0.633923
O1    O     O_3   0.356228 0.978252 0.339881 -0.704858
H42   H     H_    0.281033 0.926958 0.276924 0.311888
F3    F     F_    0.676593 0.332860 0.694902 -0.706428
O2    O     O_3   0.303948 0.104852 0.219677 -0.792841
H43   H     H_    0.239455 0.035417 0.192606 0.310500

loop_
_geom_bond_atom_site_label_1
_geom_bond_atom_site_label_2
_ccdc_geom_bond_type
C34   N11   A    
C41   H23   S    
C62   H36   S    
C53   H29   S    
C25   H14   S    
C41   C42   A    
C3    C23   A    
N4    N5    A    
C57   C66   S    
C2    C12   A    
C46   F2    S    
N16   Ni1   S    
C20   C30   S    
C53   C54   S    
C28   C29   A    
C26   C27   A    
C62   C63   S    
N8    Ni3   S    
C18   C24   A    
C40   H21   S    
C36   C37   A    
N14   Ni4   S    
N10   N12   A    
C38   C39   A    
C11   C14   A    
C46   H26   S    
C64   N14   A    
C34   H31   S    
C18   C19   A    
C19   H11   S    
C11   N7    A    
C1    H1    S    
C6    C15   A    
C2    C39   S    
C19   C20   A    
C44   C46   S    
C12   H12   S    
N10   Ni3   S    
C54   H30   S    
C4    C29   S    
C62   H35   S    
C45   N12   A    
C9    N5    A    
C6    H2    S    
C59   C60   A    
C21   C22   A    
C4    C56   A    
C59   H34   S    
C56   N13   A    
N1    Ni1   S    
C2    C64   A    
C1    C66   A    
C4    C34   A    
N9    N14   A    
C51   C52   A    
C63   H37   S    
C11   H7    S    
C8    N4    A    
C39   C40   A    
C3    C51   S    
C50   H28   S    
C15   C26   S    
C14   C48   S    
C17   C60   S    
C36   H20   S    
C58   C59   A    
C3    C45   A    
C31   C37   A    
C55   C63   S    
C60   C61   A    
C35   C36   A    
N15   Ni3   S    
C43   C44   S    
C23   N10   A    
C29   C30   A    
C22   F1    S    
C47   C48   A    
C21   H13   S    
C50   C51   A    
N5    Ni2   S    
C65   N15   A    
C13   H8    S    
C31   H16   S    
N3    N6    A    
C5    C14   A    
C13   N8    A    
C44   H25   S    
N3    Ni3   S    
C47   C54   S    
N7    N16   A    
N12   Ni2   S    
C9    C17   A    
C40   C41   A    
C49   C50   A    
N9    Ni2   S    
C13   C15   A    
N4    Ni4   S    
O2    H43   S    
C6    N2    A    
C22   C24   A    
N11   Ni4   S    
C16   C42   S    
C44   H24   S    
C52   C53   S    
C5    H41   S    
N2    Ni2   S    
C25   C30   A    
C32   H17   S    
C7    C16   A    
C18   H10   S    
C28   H15   S    
C31   C32   A    
C58   H33   S    
C9    H5    S    
N1    N15   A    
C63   H38   S    
C7    H3    S    
C24   H9    S    
C64   H40   S    
C47   C52   A    
C5    N16   A    
C8    H4    S    
C8    C17   A    
C7    N3    A    
C23   H22   S    
C32   C33   A    
C55   C57   A    
O1    H42   S    
C25   C26   A    
C38   C43   A    
C10   C16   A    
N7    Ni4   S    
C35   H19   S    
C57   C58   A    
N6    Ni1   S    
C27   C37   S    
C48   C49   A    
C55   C61   A    
C33   C35   A    
C61   C62   S    
C33   H18   S    
N11   N13   A    
C56   H39   S    
C38   C46   S    
N2    N8    A    
C1    N1    A    
C20   C21   A    
C45   F3    S    
C65   C66   A    
C42   C43   A    
C27   C28   A    
C54   H32   S    
C53   O1    S    
C49   H27   S    
C10   N6    A    
C65   O2    S    
N13   Ni1   S    
C12   N9    A    
C10   H6    S    
