data_mof_unit_54773.cif
_audit_creation_date              2012-12-11T16:35:14-0500
_audit_creation_method            fapswitch 2.2
_symmetry_space_group_name_H-M    P1
_symmetry_Int_Tables_number       1
_space_group_crystal_system       triclinic
_cell_length_a                    6.935826
_cell_length_b                    17.686153
_cell_length_c                    19.474418
_cell_angle_alpha                 109.036526
_cell_angle_beta                  90.478023
_cell_angle_gamma                 90.504996
_cell_volume                      2257.99636149

loop_
_atom_site_label
_atom_site_type_symbol
_atom_type_description
_atom_site_fract_x
_atom_site_fract_y
_atom_site_fract_z
_atom_type_partial_charge
O1    O     O_R   0.505700 0.440210 0.561730 -0.547619
O2    O     O_R   0.169350 0.406300 0.412660 -0.495514
O3    O     O_R   0.005650 0.559790 0.438270 -0.528290
C1    C     C_R   0.337448 0.382625 0.384905 0.835414
O4    O     O_R   0.175560 0.430650 0.559600 -0.540828
O5    O     O_R   0.011900 0.584320 0.586250 -0.550674
C2    C     C_R   0.344759 0.416363 0.581919 0.744692
O6    O     O_R   0.499450 0.415680 0.413750 -0.552534
O7    O     O_3   0.341370 0.550390 0.508570 -0.376937
V1    V     V_3+5 0.063940 0.490650 0.498410 1.507880
O8    O     O_R   0.682570 0.593700 0.587340 -0.521526
C3    C     C_R   0.852351 0.618226 0.613809 0.774636
O9    O     O_R   0.676370 0.569350 0.440400 -0.545739
C4    C     C_R   0.845094 0.585295 0.419529 0.775064
V2    V     V_3+5 0.564750 0.509350 0.501590 1.470661
O10   O     O_3   0.837190 0.449610 0.491430 -0.370829
C5    C     C_R   0.044572 0.706748 0.306383 -0.149772
H1    H     H_    0.185055 0.725059 0.293258 0.105489
C6    C     C_R   0.034301 0.661439 0.353249 -0.121755
H2    H     H_    0.167137 0.646147 0.374800 0.115114
C7    C     C_R   0.855220 0.636563 0.372253 -0.038419
C8    C     C_R   0.686372 0.661058 0.345368 -0.196482
H3    H     H_    0.545995 0.645103 0.360442 0.112950
C9    C     C_R   0.696473 0.706245 0.298295 -0.134691
H4    H     H_    0.563615 0.722171 0.277146 0.110724
C10   C     C_R   0.875885 0.728934 0.277514 0.110500
C11   C     C_R   0.756568 0.836337 0.229118 -0.124067
H5    H     H_    0.644304 0.851017 0.269471 0.150142
C12   C     C_R   0.770743 0.880395 0.181285 -0.180198
H6    H     H_    0.667554 0.927325 0.185660 0.159211
C13   C     C_R   0.918415 0.865712 0.129616 -0.131420
C14   C     C_R   0.051392 0.803991 0.126155 0.421138
C15   C     C_R   0.032491 0.758906 0.173090 -0.086001
H7    H     H_    0.132840 0.710903 0.168246 0.125874
C16   C     C_R   0.887942 0.775305 0.225904 -0.008557
C17   C     C_R   0.935945 0.910916 0.739369 -0.076079
C18   C     C_R   0.885343 0.926699 0.674784 -0.021215
C19   C     C_R   0.810700 0.864915 0.616254 -0.294114
C20   C     C_R   0.801039 0.786048 0.616888 0.344998
C21   C     C_R   0.854524 0.768242 0.680767 0.043911
C22   C     C_R   0.901523 0.833107 0.745331 -0.080074
C23   C     C_R   0.863269 0.687877 0.681970 -0.146285
C24   C     C_R   0.889521 0.673397 0.748841 0.048172
C25   C     C_R   0.908022 0.738388 0.814628 0.000517
C26   C     C_R   0.912181 0.818073 0.813356 -0.154236
C27   C     C_R   0.891950 0.594393 0.751708 -0.193939
C28   C     C_R   0.910651 0.579920 0.817554 -0.215117
C29   C     C_R   0.926901 0.643776 0.882750 0.427347
C30   C     C_R   0.925363 0.722001 0.880976 -0.126397
H8    H     H_    0.768430 0.877520 0.567388 0.111800
H9    H     H_    0.877470 0.542703 0.703222 0.110701
H10   H     H_    0.911386 0.518690 0.817597 0.137492
H11   H     H_    0.939344 0.769642 0.932488 0.126684
H12   H     H_    0.528018 0.480114 0.183819 0.116360
C31   C     C_R   0.262068 0.212963 0.377290 0.327089
C32   C     C_R   0.239491 0.132038 0.373991 0.239775
C33   C     C_R   0.265981 0.069899 0.307852 -0.069723
C34   C     C_R   0.326433 0.088671 0.247179 -0.200635
C35   C     C_R   0.355448 0.168353 0.248920 -0.019538
C36   C     C_R   0.320741 0.232502 0.314561 -0.028549
C37   C     C_R   0.424118 0.183522 0.186066 -0.128153
C38   C     C_R   0.462229 0.263035 0.188848 0.062681
C39   C     C_R   0.406360 0.328346 0.250471 0.044781
C40   C     C_R   0.346341 0.313610 0.315308 -0.140310
C41   C     C_R   0.551841 0.278878 0.129898 -0.160648
C42   C     C_R   0.585572 0.356749 0.131027 -0.105422
C43   C     C_R   0.515499 0.420346 0.187360 -0.143133
C44   C     C_R   0.415297 0.406878 0.244430 -0.011418
H13   H     H_    0.351274 0.039380 0.197902 0.160181
H14   H     H_    0.599877 0.231523 0.082622 0.116036
H15   H     H_    0.657394 0.367648 0.085941 0.123077
C45   C     C_R   0.544430 0.323871 0.718865 0.354522
C46   C     C_R   0.530808 0.365551 0.668885 -0.143826
H16   H     H_    0.657220 0.397604 0.660243 0.131075
C47   C     C_R   0.356394 0.368983 0.632655 -0.131570
C48   C     C_R   0.194093 0.328588 0.646885 -0.153422
H17   H     H_    0.057266 0.330085 0.620180 0.143869
C49   C     C_R   0.207037 0.284497 0.694851 -0.121820
H18   H     H_    0.080587 0.252140 0.702923 0.175096
C50   C     C_R   0.381443 0.280613 0.730992 -0.027823
C51   C     C_R   0.251147 0.235646 0.832123 -0.097543
H19   H     H_    0.134239 0.277606 0.839161 0.114379
C52   C     C_R   0.262675 0.188634 0.877727 -0.076899
H20   H     H_    0.153883 0.195111 0.918771 0.126744
C53   C     C_R   0.414782 0.134731 0.871184 -0.063051
C54   C     C_R   0.551443 0.127268 0.816719 -0.152678
H21   H     H_    0.664707 0.084012 0.808438 0.184856
C55   C     C_R   0.539399 0.173699 0.770776 -0.117882
H22   H     H_    0.646069 0.165988 0.728800 0.149880
C56   C     C_R   0.391169 0.229584 0.778802 0.071271
O11   O     O_R   0.273230 0.084330 0.086440 -0.537752
O12   O     O_R   0.596660 0.069390 0.940470 -0.531236
O13   O     O_R   0.760270 0.915710 0.913690 -0.528674
C57   C     C_R   0.427108 0.084852 0.919402 0.680957
O14   O     O_R   0.603330 0.093680 0.087390 -0.544628
O15   O     O_R   0.766990 0.940160 0.061660 -0.542464
C58   C     C_R   0.435338 0.116625 0.115397 0.673165
O16   O     O_R   0.266510 0.059870 0.938470 -0.523798
O17   O     O_3   0.431050 0.949630 0.991510 -0.372622
V3    V     V_3+5 0.708490 0.009340 0.001580 1.469994
O18   O     O_R   0.096270 0.930570 0.059390 -0.543911
C59   C     C_R   0.927962 0.914593 0.080244 0.703090
O19   O     O_R   0.089600 0.906290 0.912460 -0.546979
C60   C     C_R   0.920524 0.884899 0.883722 0.711756
V4    V     V_3+5 0.207670 0.990600 0.998190 1.466953
O20   O     O_3   0.935250 0.050360 0.008480 -0.357522
C61   C     C_2   0.050064 0.971553 0.795302 0.480554
H23   H     H_    0.198038 0.958758 0.805693 0.021993
O21   O     O_2   0.978328 0.034565 0.831279 -0.525587
C62   C     C_2   0.911096 0.005735 0.663528 0.381939
H24   H     H_    0.838119 0.016602 0.618147 0.046157
O22   O     O_2   0.016419 0.058423 0.702120 -0.517627
O23   O     O_3   0.732303 0.726743 0.555951 -0.656265
H25   H     H_    0.698825 0.749616 0.517237 0.275515
O24   O     O_3   0.232056 0.273449 0.442141 -0.656195
H26   H     H_    0.173799 0.252457 0.478555 0.326350
O25   O     O_3   0.193905 0.116068 0.436934 -0.655547
H27   H     H_    0.250968 0.064450 0.435349 0.281148
C63   C     C_2   0.225038 0.984915 0.300526 0.322277
H28   H     H_    0.134965 0.969644 0.339442 0.072074
O26   O     O_2   0.290406 0.930513 0.250251 -0.560864
C64   C     C_2   0.295145 0.473623 0.287279 0.329306
H29   H     H_    0.353187 0.533942 0.305281 0.019121
O27   O     O_2   0.125260 0.462346 0.297074 -0.529738
O28   O     O_3   0.717828 0.328984 0.755534 -0.667323
H30   H     H_    0.696281 0.316514 0.800850 0.284318
O29   O     O_3   0.195974 0.783783 0.075792 -0.629756
H31   H     H_    0.279697 0.831784 0.085196 0.309959
O30   O     O_3   0.944891 0.631866 0.949068 -0.625551
H32   H     H_    0.943746 0.573545 0.941135 0.287980

loop_
_geom_bond_atom_site_label_1
_geom_bond_atom_site_label_2
_ccdc_geom_bond_type
C25   C30   A    
C31   C32   A    
O18   C59   A    
O15   C59   A    
C11   C12   A    
C46   C47   A    
C32   O25   S    
O11   V4    S    
C6    H2    S    
C1    O6    A    
C51   H19   S    
C53   C54   A    
C38   C39   A    
O16   V4    S    
C52   H20   S    
C5    C10   A    
C14   O29   S    
C17   C18   A    
C6    C7    A    
C48   C49   A    
O30   H32   S    
O5    C3    A    
C19   C20   A    
C49   C50   A    
C57   O16   A    
C41   H14   S    
C32   C33   A    
C46   H16   S    
C62   H24   S    
C3    C23   S    
C5    C6    A    
C27   C28   A    
O8    V2    S    
O17   V3    S    
C20   O23   S    
C61   H23   S    
O1    V2    S    
C12   H6    S    
O7    V1    S    
C33   C63   S    
C31   C36   A    
C21   C23   A    
C42   C43   A    
C35   C36   A    
O1    C2    A    
O9    C4    A    
C17   C61   S    
C61   O21   D    
C17   C22   A    
O13   C60   A    
C51   C52   A    
C5    H1    S    
C63   O26   D    
O18   V4    S    
O17   V4    S    
C35   C37   A    
V2    O10   S    
C43   C44   A    
C13   C59   S    
C9    H4    S    
C44   C64   S    
C20   C21   A    
O4    C2    A    
C54   H21   S    
C2    C47   S    
H12   C43   S    
C11   C16   A    
C34   C35   A    
C27   H9    S    
O11   C58   A    
O2    C1    A    
C47   C48   A    
C42   H15   S    
C18   C19   A    
C26   C60   S    
C53   C57   S    
C28   C29   A    
C63   H28   S    
O12   C57   A    
C15   H7    S    
O19   V4    S    
C48   H17   S    
O13   V3    S    
C18   C62   S    
O3    C4    A    
C51   C56   A    
C21   C22   A    
C52   C53   A    
C55   C56   A    
O6    V2    S    
O9    V2    S    
C24   C25   A    
O28   H30   S    
C8    C9    A    
C29   O30   S    
C23   C24   A    
C64   O27   D    
O29   H31   S    
O2    V1    S    
C11   H5    S    
C25   C26   A    
O12   V3    S    
O23   H25   S    
C39   C44   A    
C29   C30   A    
C38   C41   A    
O14   V3    S    
C13   C14   A    
C37   C58   S    
C9    C10   A    
C45   C46   A    
O5    V1    S    
O8    C3    A    
O14   C58   A    
C34   H13   S    
C28   H10   S    
C19   H8    S    
V4    O20   S    
C1    C40   S    
V3    O20   S    
C45   O28   S    
C36   C40   A    
C14   C15   A    
O7    V2    S    
O4    V1    S    
C12   C13   A    
O3    V1    S    
V1    O10   S    
O25   H27   S    
C49   H18   S    
C33   C34   A    
C31   O24   S    
C30   H11   S    
O15   V3    S    
C15   C16   A    
C54   C55   A    
C50   C56   S    
C37   C38   A    
C24   C27   A    
C62   O22   D    
C4    C7    S    
C39   C40   A    
C10   C16   S    
C55   H22   S    
C45   C50   A    
C41   C42   A    
O19   C60   A    
C22   C26   A    
C8    H3    S    
C64   H29   S    
C7    C8    A    
O24   H26   S    
