data_mof_unit_15453.cif
_audit_creation_date              2012-12-11T17:10:24-0500
_audit_creation_method            fapswitch 2.2
_symmetry_space_group_name_H-M    P1
_symmetry_Int_Tables_number       1
_space_group_crystal_system       triclinic
_cell_length_a                    15.102644
_cell_length_b                    14.992113
_cell_length_c                    14.85418
_cell_angle_alpha                 109.722195
_cell_angle_beta                  109.597883
_cell_angle_gamma                 109.198983
_cell_volume                      2585.64570738

loop_
_atom_site_label
_atom_site_type_symbol
_atom_type_description
_atom_site_fract_x
_atom_site_fract_y
_atom_site_fract_z
_atom_type_partial_charge
C1    C     C_R   0.186275 0.279122 0.246436 -0.148160
C2    C     C_R   0.473074 0.564455 0.249657 -0.126855
C3    C     C_R   0.499474 0.801579 0.591922 -0.128021
C4    C     C_R   0.595879 0.505168 0.804633 -0.163352
C5    C     C_R   0.704817 0.403529 0.405402 -0.285617
C6    C     C_R   0.436367 0.801133 0.499365 0.083846
C7    C     C_R   0.798409 0.435670 0.494383 -0.011635
C8    C     C_R   0.550223 0.549796 0.224751 0.068862
C9    C     C_R   0.801845 0.805299 0.866317 0.075888
C10   C     C_R   0.133969 0.775888 0.404399 -0.109514
C11   C     C_R   0.118920 0.711544 0.453415 -0.135364
C12   C     C_R   0.565438 0.564971 0.868589 0.081970
C13   C     C_R   0.044573 0.598994 0.387454 0.123585
C14   C     C_R   0.987069 0.551413 0.271922 -0.183820
C15   C     C_R   0.004683 0.615609 0.223107 -0.110581
C16   C     C_R   0.451487 0.185385 0.408322 -0.139753
C17   C     C_R   0.077785 0.727915 0.289350 -0.092610
C18   C     C_R   0.917341 0.497439 0.430524 -0.242175
C19   C     C_R   0.891788 0.444574 0.487306 0.092356
C20   C     C_R   0.963455 0.421075 0.550113 0.050849
C21   C     C_R   0.064596 0.457681 0.559196 -0.261501
C22   C     C_R   0.091241 0.514488 0.505613 0.076179
C23   C     C_R   0.469504 0.173468 0.499861 0.072795
C24   C     C_R   0.017582 0.533925 0.439894 0.016874
C25   C     C_R   0.006317 0.394473 0.714728 -0.084443
C26   C     C_R   0.976987 0.337261 0.766751 -0.121084
C27   C     C_R   0.875427 0.243455 0.709433 -0.092352
C28   C     C_R   0.286163 0.576198 0.595531 -0.151966
C29   C     C_R   0.803169 0.206249 0.599719 -0.102048
C30   C     C_R   0.832247 0.262922 0.547219 -0.149898
C31   C     C_R   0.933831 0.358353 0.604568 0.173313
C32   C     C_R   0.661995 0.561513 0.038982 0.166129
C33   C     C_R   0.605413 0.603128 0.986392 0.027459
C34   C     C_R   0.189040 0.534939 0.504717 0.063457
C35   C     C_R   0.573375 0.668635 0.045455 -0.201783
C36   C     C_R   0.570803 0.665639 0.137789 -0.197687
C37   C     C_R   0.599174 0.596266 0.169874 0.029363
C38   C     C_R   0.658367 0.557428 0.129197 0.173774
C39   C     C_3   0.655166 0.449593 0.092582 -0.524776
C40   C     C_R   0.537253 0.277057 0.593023 -0.126120
C41   C     C_3   0.659991 0.454777 0.994726 -0.524096
C42   C     C_R   0.354123 0.876921 0.395774 0.168132
C43   C     C_R   0.401424 0.879377 0.495792 0.039137
C44   C     C_R   0.432288 0.970058 0.593747 -0.228784
C45   C     C_R   0.403618 0.706368 0.408219 -0.158847
C46   C     C_R   0.442882 0.066126 0.593844 -0.207429
C47   C     C_R   0.422720 0.070082 0.496092 0.038176
C48   C     C_R   0.364835 0.971371 0.395835 0.139697
C49   C     C_3   0.376646 0.938771 0.295129 -0.525143
C50   C     C_3   0.363926 0.834958 0.294779 -0.517746
C51   C     C_R   0.970263 0.075719 0.121039 0.108622
C52   C     C_R   0.194262 0.489703 0.410605 -0.120105
C53   C     C_R   0.069036 0.075972 0.157459 0.024238
C54   C     C_R   0.065078 0.974698 0.129171 -0.187283
C55   C     C_R   0.969681 0.879048 0.041404 -0.203568
C56   C     C_R   0.799488 0.496535 0.588151 0.514588
C57   C     C_R   0.879394 0.885874 0.982753 0.044350
C58   C     C_R   0.876569 0.981401 0.033584 0.138487
C59   C     C_3   0.833264 0.042344 0.987698 -0.583791
C60   C     C_3   0.935185 0.146114 0.084321 -0.162813
C61   C     C_R   0.502552 0.593239 0.804261 -0.126020
C62   C     C_R   0.272967 0.184415 0.234460 -0.119667
C63   C     C_R   0.172053 0.175550 0.210672 0.067520
C64   C     C_1   0.913724 0.214064 0.162798 0.079458
C65   C     C_R   0.567166 0.476060 0.254275 -0.139215
C66   C     C_R   0.707989 0.800737 0.802743 -0.138118
C67   C     C_R   0.801196 0.712474 0.803493 -0.132637
H1    H     H_    0.126354 0.302998 0.241455 0.105306
H2    H     H_    0.162125 0.749919 0.542699 0.110310
H3    H     H_    0.659925 0.487114 0.833450 0.100071
H4    H     H_    0.927945 0.465051 0.219968 0.120829
H5    H     H_    0.960365 0.578622 0.134079 0.106000
H6    H     H_    0.861603 0.517478 0.384847 0.137782
H7    H     H_    0.121341 0.438418 0.604453 0.131614
H8    H     H_    0.084661 0.468012 0.761066 0.101356
H9    H     H_    0.032842 0.366045 0.851801 0.105972
H10   H     H_    0.852770 0.199544 0.750008 0.104925
H11   H     H_    0.724564 0.133437 0.555278 0.115500
H12   H     H_    0.625323 0.450521 0.252043 0.111193
H13   H     H_    0.775475 0.232296 0.461848 0.107494
H14   H     H_    0.537551 0.710680 0.013562 0.125208
H15   H     H_    0.411109 0.123186 0.324103 0.099288
H16   H     H_    0.533183 0.705553 0.173233 0.126349
H17   H     H_    0.729079 0.455492 0.150731 0.194103
H18   H     H_    0.576901 0.380763 0.066868 0.199245
H19   H     H_    0.737073 0.464541 0.996978 0.188760
H20   H     H_    0.584843 0.388989 0.914990 0.199393
H21   H     H_    0.461225 0.972153 0.672022 0.130832
H22   H     H_    0.478749 0.138984 0.672121 0.130745
H23   H     H_    0.672959 0.848676 0.830632 0.100852
H24   H     H_    0.307821 0.924602 0.222517 0.186973
H25   H     H_    0.458880 0.991021 0.311955 0.198136
H26   H     H_    0.287308 0.761239 0.222636 0.191186
H27   H     H_    0.310767 0.621327 0.681866 0.098586
H28   H     H_    0.438547 0.828914 0.310566 0.196763
H29   H     H_    0.137594 0.969858 0.164182 0.120850
H30   H     H_    0.972539 0.804128 0.011928 0.126159
H31   H     H_    0.829300 0.027063 0.907407 0.193304
H32   H     H_    0.757238 0.032560 0.988471 0.193262
H33   H     H_    0.986592 0.191327 0.058586 0.129138
H34   H     H_    0.855248 0.684088 0.833266 0.106048
H35   H     H_    0.570057 0.299053 0.678899 0.094555
H36   H     H_    0.134124 0.458591 0.326621 0.098619
H37   H     H_    0.478087 0.652420 0.832311 0.081912
H38   H     H_    0.287232 0.117586 0.204784 0.084465
H39   H     H_    0.338704 0.669782 0.324982 0.107830
H40   H     H_    0.822901 0.521077 0.730840 0.296791
H41   H     H_    0.441389 0.617260 0.238801 0.093230
H42   H     H_    0.526738 0.855773 0.677130 0.085195
H43   H     H_    0.674929 0.348295 0.319555 0.135517
H44   H     H_    0.090314 0.777917 0.251663 0.106613
H45   H     H_    0.188675 0.863209 0.455732 0.122268
N1    N     N_R   0.291070 0.347930 0.293870 -0.041343
N2    N     N_R   0.497240 0.291100 0.443210 -0.036743
N3    N     N_R   0.347890 0.554050 0.556810 -0.036396
N4    N     N_R   0.554050 0.347900 0.556830 -0.046550
N5    N     N_R   0.291070 0.497250 0.443190 -0.039839
N6    N     N_R   0.497240 0.554030 0.706140 -0.037741
N7    N     N_R   0.347890 0.291110 0.293870 -0.039119
N8    N     N_R   0.445950 0.652100 0.443170 -0.039003
N9    N     N_1   0.896885 0.267274 0.224580 -0.101487
N10   N     N_R   0.708930 0.502750 0.556810 -0.101644
N11   N     N_R   0.502760 0.445970 0.293860 -0.038323
N12   N     N_R   0.652110 0.708890 0.706130 -0.039375
N13   N     N_R   0.708930 0.652070 0.706130 -0.048486
N14   N     N_R   0.445950 0.502780 0.293850 -0.042225
N15   N     N_R   0.502760 0.708900 0.556790 -0.038491
N16   N     N_R   0.652110 0.445950 0.443190 -0.054893
N17   N     N_R   0.554050 0.497220 0.706150 -0.039660
Ni1   Ni    Ni4+2 0.369690 0.500010 0.369700 0.210966
Ni2   Ni    Ni4+2 0.630310 0.499990 0.630300 0.203315
Ni3   Ni    Ni4+2 0.500000 0.369720 0.369720 0.207371
Ni4   Ni    Ni4+2 0.500000 0.630280 0.630280 0.205025
O1    O     O_3   0.864555 0.518089 0.691861 -0.778608

loop_
_geom_bond_atom_site_label_1
_geom_bond_atom_site_label_2
_ccdc_geom_bond_type
C25   C31   A    
C52   H36   S    
C65   H12   S    
C6    C45   A    
N11   Ni3   S    
C27   C29   A    
C59   H32   S    
C14   H4    S    
C35   C36   A    
C3    C6    A    
C4    H3    S    
C35   H14   S    
N8    N15   A    
C39   C41   S    
C46   H22   S    
C40   N4    A    
C53   C54   A    
C41   H19   S    
C26   C27   A    
C37   C38   A    
N12   Ni4   S    
N8    Ni1   S    
C36   C37   A    
C39   H17   S    
H40   O1    S    
C67   N13   A    
C30   C31   A    
C3    N15   A    
C50   H28   S    
C5    H43   S    
N14   Ni1   S    
C10   C17   A    
C64   N9    T    
C17   H44   S    
C1    H1    S    
C28   H27   S    
C18   C19   A    
C46   C47   A    
C9    C66   A    
C53   C63   S    
C62   H38   S    
C13   C14   A    
N1    N7    A    
C29   H11   S    
C19   C20   A    
N3    N5    A    
C26   H9    S    
C32   C41   S    
C10   H45   S    
C18   C24   A    
C32   C38   A    
C4    C12   A    
C54   H29   S    
C30   H13   S    
C52   N5    A    
C28   C34   A    
C59   C60   S    
C21   C22   A    
C1    N1    A    
C7    C56   A    
C49   H24   S    
C22   C34   S    
C1    C63   A    
C44   C46   A    
C41   H20   S    
C23   C47   S    
N1    Ni1   S    
C61   H37   S    
C9    C57   S    
C66   H23   S    
C5    C7    A    
N11   N14   A    
N3    Ni4   S    
C27   H10   S    
C25   C26   A    
C21   H7    S    
C13   C24   S    
C25   H8    S    
C56   N10   A    
C43   C44   A    
C9    C67   A    
C29   C30   A    
C15   H5    S    
C28   N3    A    
N13   Ni2   S    
C56   O1    S    
C47   C48   A    
C55   H30   S    
C62   C63   A    
C16   H15   S    
N7    Ni3   S    
C51   C58   A    
C42   C48   A    
N5    Ni1   S    
C62   N7    A    
N6    Ni4   S    
C42   C50   S    
C2    N14   A    
C45   N8    A    
C48   C49   S    
C16   C23   A    
C7    C19   S    
C6    C43   S    
C55   C57   A    
C22   C24   A    
C8    C37   S    
C39   H18   S    
C49   H25   S    
N10   Ni2   S    
C45   H39   S    
C67   H34   S    
C15   C17   A    
C54   C55   A    
N16   Ni3   S    
C61   N6    A    
N2    Ni3   S    
C2    C8    A    
N15   Ni4   S    
C60   H33   S    
C16   N2    A    
N2    N4    A    
C11   H2    S    
C50   H26   S    
C4    N17   A    
C18   H6    S    
C34   C52   A    
C60   C64   S    
C32   C33   A    
C58   C59   S    
N6    N17   A    
C12   C61   A    
C11   C13   A    
C57   C58   A    
C38   C39   S    
N4    Ni2   S    
C3    H42   S    
C5    N16   A    
C2    H41   S    
C33   C35   A    
C66   N12   A    
C65   N11   A    
N10   N16   A    
C10   C11   A    
C40   H35   S    
C8    C65   A    
C20   C21   A    
C49   C50   S    
C42   C43   A    
C59   H31   S    
C14   C15   A    
C51   C60   S    
C36   H16   S    
C51   C53   A    
C12   C33   S    
C44   H21   S    
C23   C40   A    
N12   N13   A    
N17   Ni2   S    
C20   C31   S    
