data_mof_unit_19309.cif
_audit_creation_date              2012-12-11T15:08:39-0500
_audit_creation_method            fapswitch 2.2
_symmetry_space_group_name_H-M    P1
_symmetry_Int_Tables_number       1
_space_group_crystal_system       monoclinic
_cell_length_a                    19.374097
_cell_length_b                    11.26282
_cell_length_c                    18.711623
_cell_angle_alpha                 90.0
_cell_angle_beta                  90.224944
_cell_angle_gamma                 90.0
_cell_volume                      4082.97503889

loop_
_atom_site_label
_atom_site_type_symbol
_atom_type_description
_atom_site_fract_x
_atom_site_fract_y
_atom_site_fract_z
_atom_type_partial_charge
C1    C     C_R   0.272413 0.043765 0.854096 0.531943
C2    C     C_R   0.727586 0.043765 0.145904 0.531943
C3    C     C_R   0.772414 0.543765 0.854096 0.531943
C4    C     C_R   0.227586 0.543765 0.145904 0.531943
C5    C     C_3   0.519759 0.721783 0.964556 -0.112579
C6    C     C_3   0.480241 0.721783 0.035444 -0.112579
C7    C     C_3   0.019759 0.221783 0.964556 -0.112579
C8    C     C_3   0.980241 0.221783 0.035444 -0.112579
C9    C     C_3   0.312102 0.528835 0.043988 -0.235402
C10   C     C_3   0.687898 0.528835 0.956012 -0.235402
C11   C     C_3   0.812102 0.028835 0.043988 -0.235402
C12   C     C_3   0.187898 0.028835 0.956012 -0.235402
C13   C     C_3   0.321407 0.552917 0.963568 -0.234888
C14   C     C_3   0.678593 0.552917 0.036432 -0.234888
C15   C     C_3   0.821407 0.052917 0.963568 -0.234888
C16   C     C_3   0.178593 0.052917 0.036432 -0.234888
C17   C     C_3   0.179505 0.523779 0.025892 -0.208166
C18   C     C_3   0.820495 0.523779 0.974108 -0.208166
C19   C     C_3   0.679505 0.023779 0.025892 -0.208166
C20   C     C_3   0.320495 0.023779 0.974108 -0.208166
C21   C     C_3   0.240609 0.708261 0.056616 -0.257236
C22   C     C_3   0.759391 0.708261 0.943384 -0.257236
C23   C     C_3   0.740609 0.208261 0.056616 -0.257236
C24   C     C_3   0.259391 0.208261 0.943384 -0.257236
C25   C     C_3   0.241001 0.574958 0.070286 0.065241
C26   C     C_3   0.758999 0.574957 0.929714 0.065241
C27   C     C_3   0.741001 0.074957 0.070286 0.065241
C28   C     C_3   0.258999 0.074957 0.929714 0.065241
C29   C     C_3   0.255061 0.610102 0.932301 0.054666
C30   C     C_3   0.744938 0.610102 0.067699 0.054666
C31   C     C_3   0.755061 0.110102 0.932301 0.054666
C32   C     C_3   0.244939 0.110102 0.067699 0.054666
C33   C     C_3   0.194743 0.524842 0.945127 -0.253683
C34   C     C_3   0.805257 0.524842 0.054873 -0.253683
C35   C     C_3   0.694743 0.024842 0.945127 -0.253683
C36   C     C_3   0.305257 0.024842 0.054873 -0.253683
C37   C     C_3   0.238647 0.726090 0.974666 -0.222288
C38   C     C_3   0.761353 0.726090 0.025333 -0.222288
C39   C     C_3   0.738647 0.226090 0.974666 -0.222288
C40   C     C_3   0.261353 0.226090 0.025333 -0.222288
C41   C     C_3   0.503647 0.700933 0.460342 -0.227828
C42   C     C_3   0.496353 0.700933 0.539658 -0.227828
C43   C     C_3   0.003647 0.200933 0.460342 -0.227828
C44   C     C_3   0.996353 0.200933 0.539658 -0.227828
C45   C     C_R   0.443937 0.817006 0.862443 0.538339
C46   C     C_R   0.556063 0.817006 0.137557 0.538339
C47   C     C_R   0.943937 0.317006 0.862443 0.538339
C48   C     C_R   0.056063 0.317006 0.137557 0.538339
C49   C     C_3   0.564642 0.905363 0.473717 -0.216399
C50   C     C_3   0.435358 0.905363 0.526283 -0.216399
C51   C     C_3   0.064642 0.405363 0.473717 -0.216398
C52   C     C_3   0.935358 0.405363 0.526283 -0.216399
C53   C     C_3   0.440836 0.887559 0.444336 -0.263636
C54   C     C_3   0.559164 0.887559 0.555663 -0.263635
C55   C     C_3   0.940836 0.387559 0.444336 -0.263636
C56   C     C_3   0.059164 0.387559 0.555663 -0.263635
C57   C     C_3   0.510618 0.829294 0.430922 0.062593
C58   C     C_3   0.489382 0.829294 0.569078 0.062593
C59   C     C_3   0.010618 0.329294 0.430922 0.062593
C60   C     C_3   0.989382 0.329294 0.569078 0.062593
C61   C     C_3   0.179626 0.647218 0.459236 -0.228183
C62   C     C_3   0.820373 0.647218 0.540764 -0.228183
C63   C     C_3   0.679627 0.147218 0.459236 -0.228183
C64   C     C_3   0.320373 0.147218 0.540764 -0.228183
C65   C     C_3   0.184354 0.659656 0.538471 -0.227485
C66   C     C_3   0.815646 0.659656 0.461529 -0.227485
C67   C     C_3   0.684354 0.159656 0.538471 -0.227485
C68   C     C_3   0.315646 0.159656 0.461529 -0.227485
C69   C     C_3   0.252597 0.454472 0.473011 -0.214880
C70   C     C_3   0.747403 0.454472 0.526989 -0.214879
C71   C     C_3   0.752597 0.954472 0.473011 -0.214880
C72   C     C_3   0.247403 0.954472 0.526989 -0.214879
C73   C     C_3   0.304791 0.647961 0.442518 -0.264428
C74   C     C_3   0.695209 0.647961 0.557482 -0.264428
C75   C     C_3   0.804791 0.147961 0.442518 -0.264428
C76   C     C_3   0.195209 0.147961 0.557482 -0.264428
C77   C     C_3   0.240611 0.572514 0.429991 0.065978
C78   C     C_3   0.759389 0.572514 0.570009 0.065978
C79   C     C_3   0.740610 0.072514 0.429991 0.065978
C80   C     C_3   0.259389 0.072514 0.570009 0.065978
C81   C     C_3   0.252825 0.606037 0.567559 0.064700
C82   C     C_3   0.747175 0.606038 0.432441 0.064700
C83   C     C_3   0.752825 0.106038 0.567559 0.064700
C84   C     C_3   0.247175 0.106038 0.432441 0.064700
C85   C     C_3   0.247315 0.472708 0.554751 -0.264678
C86   C     C_3   0.752684 0.472708 0.445248 -0.264679
C87   C     C_3   0.747315 0.972708 0.554751 -0.264678
C88   C     C_3   0.252684 0.972708 0.445248 -0.264678
C89   C     C_R   0.262163 0.641860 0.855098 0.535121
C90   C     C_R   0.737837 0.641860 0.144902 0.535121
C91   C     C_R   0.762163 0.141860 0.855098 0.535121
C92   C     C_R   0.237837 0.141860 0.144902 0.535121
C93   C     C_3   0.317525 0.648491 0.524252 -0.216979
C94   C     C_3   0.682474 0.648491 0.475748 -0.216979
C95   C     C_3   0.817525 0.148491 0.524252 -0.216979
C96   C     C_3   0.182475 0.148491 0.475748 -0.216979
C97   C     C_R   0.273058 0.043377 0.645724 0.538233
C98   C     C_R   0.726941 0.043377 0.354276 0.538233
C99   C     C_R   0.773058 0.543377 0.645724 0.538233
C100  C     C_R   0.226941 0.543377 0.354276 0.538233
C101  C     C_R   0.468717 0.823142 0.645320 0.543288
C102  C     C_R   0.531283 0.823142 0.354680 0.543288
C103  C     C_R   0.968717 0.323142 0.645320 0.543288
C104  C     C_R   0.031283 0.323142 0.354680 0.543288
C105  C     C_R   0.260953 0.640143 0.643514 0.540471
C106  C     C_R   0.739047 0.640143 0.356486 0.540471
C107  C     C_R   0.760953 0.140143 0.643514 0.540471
C108  C     C_R   0.239047 0.140143 0.356486 0.540471
C109  C     C_3   0.479737 0.915941 0.035671 -0.109332
C110  C     C_3   0.520263 0.915941 0.964329 -0.109332
C111  C     C_3   0.979737 0.415941 0.035671 -0.109332
C112  C     C_3   0.020263 0.415941 0.964329 -0.109332
C113  C     C_3   0.431392 0.817775 0.006596 -0.159190
C114  C     C_3   0.568608 0.817775 0.993404 -0.159190
C115  C     C_3   0.931392 0.317775 0.006596 -0.159190
C116  C     C_3   0.068608 0.317775 0.993404 -0.159190
C117  C     C_3   0.471865 0.819499 0.936072 0.056916
C118  C     C_3   0.528135 0.819499 0.063927 0.056916
C119  C     C_3   0.971865 0.319499 0.936072 0.056916
C120  C     C_3   0.028135 0.319499 0.063927 0.056916
Cr1   Cr    Cr6+3 0.229620 0.836040 0.749110 0.992002
Cr2   Cr    Cr6+3 0.770380 0.836040 0.250890 0.992002
Cr3   Cr    Cr6+3 0.729620 0.336040 0.749110 0.992002
Cr4   Cr    Cr6+3 0.270380 0.336040 0.250890 0.992002
Cr5   Cr    Cr6+3 0.387630 0.990680 0.750730 0.996655
Cr6   Cr    Cr6+3 0.612370 0.990680 0.249270 0.996655
Cr7   Cr    Cr6+3 0.887630 0.490680 0.750730 0.996655
Cr8   Cr    Cr6+3 0.112370 0.490680 0.249270 0.996655
Cr9   Cr    Cr6+3 0.386020 0.676590 0.749210 0.993843
Cr10  Cr    Cr6+3 0.613980 0.676590 0.250790 0.993843
Cr11  Cr    Cr6+3 0.886020 0.176590 0.749210 0.993843
Cr12  Cr    Cr6+3 0.113980 0.176590 0.250790 0.993843
H1    H     H_    0.376513 0.804542 0.017617 0.092737
H2    H     H_    0.623487 0.804542 0.982383 0.092737
H3    H     H_    0.876513 0.304542 0.017617 0.092737
H4    H     H_    0.123487 0.304542 0.982383 0.092737
H5    H     H_    0.195030 0.751972 0.081287 0.126827
H6    H     H_    0.804970 0.751972 0.918713 0.126827
H7    H     H_    0.695030 0.251972 0.081287 0.126827
H8    H     H_    0.304970 0.251972 0.918713 0.126827
H9    H     H_    0.287207 0.747137 0.081484 0.103562
H10   H     H_    0.712793 0.747137 0.918516 0.103562
H11   H     H_    0.787207 0.247137 0.081484 0.103562
H12   H     H_    0.212793 0.247137 0.918516 0.103562
H13   H     H_    0.273535 0.795985 0.958374 0.109394
H14   H     H_    0.726465 0.795985 0.041626 0.109394
H15   H     H_    0.773535 0.295985 0.958374 0.109394
H16   H     H_    0.226465 0.295985 0.041626 0.109394
H17   H     H_    0.632627 0.079275 0.034655 0.136828
H18   H     H_    0.367373 0.079275 0.965345 0.136829
H19   H     H_    0.132627 0.579275 0.034655 0.136828
H20   H     H_    0.867373 0.579275 0.965345 0.136829
H21   H     H_    0.148179 0.554266 0.915161 0.124475
H22   H     H_    0.851821 0.554266 0.084839 0.124475
H23   H     H_    0.648179 0.054266 0.915161 0.124475
H24   H     H_    0.351821 0.054267 0.084839 0.124475
H25   H     H_    0.546655 0.643646 0.446103 0.136010
H26   H     H_    0.453345 0.643646 0.553897 0.136010
H27   H     H_    0.046655 0.143646 0.446103 0.136010
H28   H     H_    0.953345 0.143646 0.553897 0.136010
H29   H     H_    0.458488 0.656239 0.435692 0.114563
H30   H     H_    0.541512 0.656239 0.564307 0.114563
H31   H     H_    0.958488 0.156239 0.435692 0.114563
H32   H     H_    0.041511 0.156239 0.564307 0.114563
H33   H     H_    0.616715 0.897177 0.453695 0.113303
H34   H     H_    0.383285 0.897177 0.546305 0.113303
H35   H     H_    0.116715 0.397177 0.453695 0.113303
H36   H     H_    0.883285 0.397177 0.546305 0.113303
H37   H     H_    0.601237 0.830913 0.576142 0.109605
H38   H     H_    0.398763 0.830913 0.423858 0.109605
H39   H     H_    0.101237 0.330913 0.576142 0.109605
H40   H     H_    0.898763 0.330913 0.423858 0.109605
H41   H     H_    0.464867 0.996983 0.065449 0.113521
H42   H     H_    0.535133 0.996983 0.934551 0.113521
H43   H     H_    0.964867 0.496983 0.065449 0.113521
H44   H     H_    0.035133 0.496983 0.934551 0.113521
H45   H     H_    0.437789 0.973855 0.415887 0.109791
H46   H     H_    0.562211 0.973855 0.584113 0.109791
H47   H     H_    0.937789 0.473855 0.415887 0.109791
H48   H     H_    0.062211 0.473855 0.584113 0.109791
H49   H     H_    0.449771 0.998705 0.536356 0.117837
H50   H     H_    0.550229 0.998705 0.463644 0.117838
H51   H     H_    0.949771 0.498705 0.536356 0.117837
H52   H     H_    0.050228 0.498705 0.463644 0.117837
H53   H     H_    0.129248 0.611053 0.445486 0.135268
H54   H     H_    0.870752 0.611053 0.554513 0.135268
H55   H     H_    0.629248 0.111053 0.445486 0.135268
H56   H     H_    0.370752 0.111053 0.554513 0.135268
H57   H     H_    0.179252 0.736417 0.434070 0.114180
H58   H     H_    0.820748 0.736417 0.565930 0.114180
H59   H     H_    0.679252 0.236417 0.434070 0.114180
H60   H     H_    0.320748 0.236417 0.565930 0.114180
H61   H     H_    0.177747 0.752916 0.552048 0.135052
H62   H     H_    0.822253 0.752916 0.447952 0.135052
H63   H     H_    0.677747 0.252916 0.552048 0.135052
H64   H     H_    0.322253 0.252916 0.447952 0.135052
H65   H     H_    0.139495 0.615558 0.563775 0.115190
H66   H     H_    0.860505 0.615558 0.436225 0.115190
H67   H     H_    0.639495 0.115558 0.563775 0.115190
H68   H     H_    0.360505 0.115558 0.436225 0.115190
H69   H     H_    0.722245 0.880385 0.453637 0.113858
H70   H     H_    0.277755 0.880385 0.546363 0.113858
H71   H     H_    0.222245 0.380385 0.453637 0.113858
H72   H     H_    0.777755 0.380385 0.546363 0.113858
H73   H     H_    0.698039 0.938405 0.575649 0.109305
H74   H     H_    0.301961 0.938405 0.424351 0.109305
H75   H     H_    0.198039 0.438405 0.575649 0.109305
H76   H     H_    0.801961 0.438405 0.424351 0.109305
H77   H     H_    0.349449 0.609162 0.413828 0.109902
H78   H     H_    0.650551 0.609162 0.586171 0.109902
H79   H     H_    0.849449 0.109162 0.413828 0.109902
H80   H     H_    0.150551 0.109162 0.586171 0.109902
H81   H     H_    0.296817 0.738726 0.421782 0.108497
H82   H     H_    0.703183 0.738726 0.578218 0.108497
H83   H     H_    0.796817 0.238726 0.421782 0.108497
H84   H     H_    0.203183 0.238726 0.578218 0.108497
H85   H     H_    0.534787 0.640188 0.935403 0.122290
H86   H     H_    0.465213 0.640188 0.064597 0.122290
H87   H     H_    0.034787 0.140188 0.935403 0.122290
H88   H     H_    0.965213 0.140188 0.064597 0.122290
H89   H     H_    0.339160 0.731069 0.543493 0.113278
H90   H     H_    0.660840 0.731069 0.456507 0.113278
H91   H     H_    0.839160 0.231069 0.543493 0.113278
H92   H     H_    0.160840 0.231069 0.456507 0.113278
H93   H     H_    0.357677 0.580907 0.534222 0.117906
H94   H     H_    0.642323 0.580907 0.465778 0.117906
H95   H     H_    0.857677 0.080907 0.534222 0.117906
H96   H     H_    0.142323 0.080907 0.465778 0.117906
H97   H     H_    0.306701 0.429069 0.462497 0.118726
H98   H     H_    0.693299 0.429069 0.537503 0.118726
H99   H     H_    0.806701 0.929069 0.462497 0.118726
H100  H     H_    0.193299 0.929069 0.537503 0.118726
H101  H     H_    0.289684 0.425499 0.582976 0.109168
H102  H     H_    0.710316 0.425499 0.417024 0.109168
H103  H     H_    0.789684 0.925499 0.582976 0.109168
H104  H     H_    0.210316 0.925499 0.417024 0.109168
H105  H     H_    0.318400 0.434377 0.055079 0.131025
H106  H     H_    0.681600 0.434377 0.944921 0.131025
H107  H     H_    0.818400 0.934377 0.055079 0.131025
H108  H     H_    0.181600 0.934377 0.944921 0.131025
H109  H     H_    0.353939 0.573270 0.074597 0.109626
H110  H     H_    0.646061 0.573270 0.925403 0.109626
H111  H     H_    0.853939 0.073270 0.074597 0.109626
H112  H     H_    0.146061 0.073270 0.925403 0.109626
H113  H     H_    0.366206 0.612688 0.955443 0.136312
H114  H     H_    0.633794 0.612688 0.044557 0.136312
H115  H     H_    0.866206 0.112688 0.955443 0.136312
H116  H     H_    0.133794 0.112688 0.044557 0.136312
H117  H     H_    0.333043 0.468312 0.935427 0.116969
H118  H     H_    0.666956 0.468312 0.064573 0.116969
H119  H     H_    0.833044 0.968312 0.935427 0.116969
H120  H     H_    0.166956 0.968312 0.064573 0.116969
H121  H     H_    0.664123 0.938360 0.047204 0.099934
H122  H     H_    0.335877 0.938360 0.952796 0.099934
H123  H     H_    0.164123 0.438360 0.047204 0.099934
H124  H     H_    0.835877 0.438360 0.952796 0.099934
H125  H     H_    0.708201 0.935811 0.925707 0.111200
H126  H     H_    0.291799 0.935811 0.074293 0.111200
H127  H     H_    0.208201 0.435811 0.925706 0.111200
H128  H     H_    0.791799 0.435811 0.074293 0.111200
O1    O     O_R   0.214130 0.708570 0.829890 -0.527737
O2    O     O_R   0.785870 0.708570 0.170110 -0.527737
O3    O     O_R   0.714130 0.208570 0.829890 -0.527737
O4    O     O_R   0.285870 0.208570 0.170110 -0.527737
O5    O     O_R   0.446360 0.919990 0.675230 -0.506873
O6    O     O_R   0.553640 0.919990 0.324770 -0.506874
O7    O     O_R   0.946360 0.419990 0.675230 -0.506873
O8    O     O_R   0.053640 0.419990 0.324770 -0.506873
O9    O     O_R   0.457170 0.717300 0.668380 -0.530440
O10   O     O_R   0.542830 0.717300 0.331620 -0.530440
O11   O     O_R   0.957170 0.217300 0.668380 -0.530440
O12   O     O_R   0.042830 0.217300 0.331620 -0.530440
O13   O     O_R   0.320870 0.624890 0.673130 -0.510485
O14   O     O_R   0.679130 0.624890 0.326870 -0.510485
O15   O     O_R   0.820870 0.124890 0.673130 -0.510485
O16   O     O_R   0.179130 0.124890 0.326870 -0.510485
O17   O     O_3   0.334430 0.834430 0.749680 -0.282462
O18   O     O_3   0.665570 0.834430 0.250320 -0.282462
O19   O     O_3   0.834430 0.334430 0.749680 -0.282462
O20   O     O_3   0.165570 0.334430 0.250320 -0.282462
O21   O     O_R   0.236050 0.959150 0.825270 -0.513943
O22   O     O_R   0.763950 0.959150 0.174730 -0.513943
O23   O     O_R   0.736050 0.459150 0.825270 -0.513943
O24   O     O_R   0.263950 0.459150 0.174730 -0.513943
O25   O     O_R   0.332100 0.076650 0.832310 -0.532964
O26   O     O_R   0.667900 0.076650 0.167690 -0.532964
O27   O     O_R   0.832100 0.576650 0.832310 -0.532964
O28   O     O_R   0.167900 0.576650 0.167690 -0.532964
O29   O     O_R   0.446500 0.918620 0.826240 -0.503742
O30   O     O_R   0.553500 0.918620 0.173760 -0.503742
O31   O     O_R   0.946500 0.418620 0.826240 -0.503742
O32   O     O_R   0.053500 0.418620 0.173760 -0.503742
O33   O     O_R   0.457310 0.715830 0.831280 -0.524061
O34   O     O_R   0.542690 0.715830 0.168720 -0.524061
O35   O     O_R   0.957310 0.215830 0.831280 -0.524061
O36   O     O_R   0.042690 0.215830 0.168720 -0.524061
O37   O     O_R   0.321000 0.623520 0.824130 -0.518902
O38   O     O_R   0.679000 0.623520 0.175870 -0.518902
O39   O     O_R   0.821000 0.123520 0.824130 -0.518902
O40   O     O_R   0.179000 0.123520 0.175870 -0.518902
O41   O     O_R   0.213990 0.710040 0.667000 -0.532681
O42   O     O_R   0.786010 0.710040 0.333000 -0.532681
O43   O     O_R   0.713990 0.210040 0.667000 -0.532681
O44   O     O_R   0.286010 0.210040 0.333000 -0.532681
O45   O     O_R   0.235920 0.960520 0.674260 -0.511402
O46   O     O_R   0.764080 0.960520 0.325740 -0.511402
O47   O     O_R   0.735920 0.460520 0.674260 -0.511402
O48   O     O_R   0.264080 0.460520 0.325740 -0.511402
O49   O     O_R   0.331960 0.078120 0.669410 -0.533822
O50   O     O_R   0.668040 0.078120 0.330590 -0.533822
O51   O     O_R   0.831960 0.578120 0.669410 -0.533822
O52   O     O_R   0.168040 0.578120 0.330590 -0.533822
H129  H     H_    0.185133 0.752237 0.960457 0.130647
H130  H     H_    0.814867 0.752237 0.039543 0.130647
H131  H     H_    0.685133 0.252237 0.960457 0.130647
H132  H     H_    0.314867 0.252237 0.039543 0.130647

loop_
_geom_bond_atom_site_label_1
_geom_bond_atom_site_label_2
_ccdc_geom_bond_type
C82   C94   S    
C55   C59   S    
C35   H125  S    
C83   C87   S    
C73   C93   S    
C47   O31   A    
C42   C58   S    
C29   C89   S    
C16   H120  S    
C89   O37   A    
C48   C120  S    
C24   H8    S    
C57   C102  S    
Cr6   O18   S    
Cr7   O7    S    
C85   H101  S    
C59   C104  S    
C63   H55   S    
Cr1   O17   S    
C5    C6    S    
Cr10  O10   S    
C109  H41   S    
Cr4   O4    S    
Cr12  O16   S    
C29   C33   S    
C87   H103  S    
C30   C38   S    
C77   C100  S    
C9    C13   S    
C87   H73   S    
C11   C15   S    
C5    H85   S    
C12   C16   S    
C98   O50   A    
C99   O47   A    
C19   H17   S    
C21   H5    S    
C60   C103  S    
C107  O15   A    
Cr4   O24   S    
C83   C107  S    
C113  H1    S    
C74   H82   S    
C61   H57   S    
C54   H37   S    
C23   H11   S    
C17   H19   S    
C18   H20   S    
C64   H60   S    
C109  C118  S    
C16   H116  S    
C70   H72   S    
Cr5   O25   S    
C50   C53   S    
C75   C95   S    
C7    C119  S    
Cr8   O28   S    
C62   H58   S    
C62   C66   S    
Cr2   O2    S    
C20   C28   S    
C18   H124  S    
Cr12  O36   S    
C43   C44   S    
C66   C82   S    
Cr9   O33   S    
C58   C101  S    
C105  O41   A    
C92   O4    A    
C107  O43   A    
C53   H38   S    
C116  H4    S    
C108  O44   A    
C56   H39   S    
C89   O1    A    
Cr5   O49   S    
C55   H40   S    
C91   O3    A    
Cr1   O45   S    
Cr5   O5    S    
C38   H130  S    
C3    C26   S    
C84   C88   S    
C31   C91   S    
C53   H45   S    
Cr12  O12   S    
C13   H117  S    
Cr10  O34   S    
C17   C25   S    
C19   C35   S    
C76   C96   S    
C1    O21   A    
C32   C92   S    
C75   H83   S    
Cr3   O19   S    
Cr1   O41   S    
C21   H9    S    
C61   C65   S    
C12   H108  S    
C78   C99   S    
C45   O29   A    
C75   C79   S    
Cr5   O29   S    
C22   C38   S    
C67   C83   S    
C80   C97   S    
C11   H111  S    
C69   C77   S    
C111  C112  S    
C39   H131  S    
C71   C79   S    
C4    C25   S    
Cr4   O20   S    
C7    C8    S    
Cr10  O38   S    
C40   H132  S    
C96   H96   S    
C73   H77   S    
C24   H12   S    
C43   H27   S    
C100  O52   A    
C33   H21   S    
C49   C57   S    
Cr11  O11   S    
Cr9   O37   S    
C38   H14   S    
C52   C60   S    
C19   H121  S    
C61   C77   S    
C12   H112  S    
C11   C27   S    
C93   H93   S    
C36   H126  S    
C47   O35   A    
C110  C114  S    
C48   O36   A    
C43   C59   S    
C62   H54   S    
C76   H80   S    
C10   H106  S    
C6    H86   S    
C88   H74   S    
C22   H10   S    
Cr1   O21   S    
Cr2   O18   S    
C95   H95   S    
C110  H42   S    
Cr12  O20   S    
C81   C105  S    
C30   C34   S    
C10   C14   S    
C101  O9    A    
C95   H91   S    
C116  C120  S    
C103  O11   A    
C7    C116  S    
C69   H97   S    
C33   H127  S    
C61   H53   S    
C114  H2    S    
C34   H128  S    
C66   H66   S    
C64   H56   S    
C113  C117  S    
C112  H44   S    
C115  C119  S    
Cr6   O26   S    
C9    H105  S    
Cr4   O48   S    
C112  C116  S    
C69   C85   S    
C85   H75   S    
C72   H70   S    
C56   H48   S    
C45   C117  S    
C21   C25   S    
C73   C77   S    
Cr12  O40   S    
C55   H47   S    
C62   C78   S    
C76   C80   S    
C32   C36   S    
C15   C31   S    
C16   C32   S    
C97   O45   A    
C105  O13   A    
C106  O42   A    
C72   C80   S    
C115  H3    S    
C4    O24   A    
C20   H18   S    
C103  O7    A    
C82   C106  S    
C90   O2    A    
Cr6   O50   S    
Cr8   O32   S    
C94   H90   S    
Cr6   O6    S    
C46   O34   A    
Cr7   O19   S    
Cr8   O20   S    
C81   C85   S    
C13   H113  S    
C41   H29   S    
C41   C42   S    
C74   C94   S    
Cr9   O13   S    
C18   C26   S    
C30   C90   S    
Cr11  O39   S    
C1    O25   A    
C9    C25   S    
C2    O22   A    
C3    O27   A    
C75   H79   S    
C86   H102  S    
C12   C28   S    
C13   C29   S    
C67   H67   S    
C98   O46   A    
C46   C118  S    
C22   C26   S    
C66   H62   S    
Cr6   O30   S    
C51   H35   S    
C106  O14   A    
C50   H34   S    
C1    C28   S    
C2    C27   S    
Cr10  O14   S    
C72   H100  S    
Cr11  O19   S    
C52   C55   S    
C9    H109  S    
C64   C80   S    
C73   H81   S    
C42   H26   S    
C17   C33   S    
C110  C117  S    
C65   H61   S    
C34   H22   S    
C40   H16   S    
C68   C84   S    
C24   C28   S    
C51   H52   S    
C86   H76   S    
C53   C57   S    
C82   C86   S    
C56   C60   S    
C50   C58   S    
C104  O12   A    
C49   H33   S    
C48   O32   A    
Cr7   O27   S    
C76   H84   S    
C65   C81   S    
C91   O39   A    
C42   H30   S    
Cr8   O8    S    
C68   H64   S    
C20   H122  S    
Cr2   O22   S    
C41   H25   S    
C92   O40   A    
C44   H28   S    
C31   C35   S    
C64   C68   S    
C36   H24   S    
C101  O5    A    
C102  O10   A    
C35   H23   S    
C108  O16   A    
C112  C119  S    
C14   H118  S    
Cr2   O42   S    
C22   H6    S    
C41   C57   S    
C109  C110  S    
Cr5   O17   S    
C44   C60   S    
C63   H59   S    
C84   C108  S    
C94   H94   S    
C20   C36   S    
C54   H46   S    
C21   C37   S    
C74   C78   S    
C29   C37   S    
C44   H32   S    
C43   H31   S    
C97   O49   A    
C5    C114  S    
C70   C78   S    
C79   C98   S    
C99   O51   A    
C10   H110  S    
C52   H51   S    
C63   C79   S    
C4    O28   A    
C74   H78   S    
C111  H43   S    
C23   H7    S    
C46   O30   A    
Cr4   O44   S    
C11   H107  S    
C49   C54   S    
Cr3   O47   S    
C51   C56   S    
C84   C96   S    
C8    C115  S    
Cr1   O1    S    
Cr3   O3    S    
C96   H92   S    
Cr9   O17   S    
C23   C27   S    
C19   C27   S    
C109  C113  S    
C2    O26   A    
C7    H87   S    
C10   C26   S    
C47   C119  S    
C14   C30   S    
C67   H63   S    
C72   C88   S    
C88   H104  S    
C63   C67   S    
Cr7   O31   S    
C37   H129  S    
C5    C117  S    
C111  C120  S    
Cr10  O18   S    
Cr3   O43   S    
C70   H98   S    
C6    C113  S    
Cr11  O15   S    
C8    H88   S    
C81   C93   S    
C83   C95   S    
Cr11  O35   S    
C18   C34   S    
C114  C118  S    
C65   H65   S    
C69   H71   S    
C71   C87   S    
C50   H49   S    
C51   C59   S    
C70   C86   S    
C8    C120  S    
Cr2   O46   S    
C54   C58   S    
C71   H69   S    
C17   H123  S    
C45   O33   A    
C104  O8    A    
C15   H115  S    
C111  C115  S    
Cr7   O51   S    
Cr8   O52   S    
C68   H68   S    
C71   H99   S    
Cr3   O23   S    
C52   H36   S    
C90   O38   A    
C15   H119  S    
C23   C39   S    
C3    O23   A    
C24   C40   S    
C31   C39   S    
C32   C40   S    
Cr9   O9    S    
C49   H50   S    
C100  O48   A    
C102  O6    A    
C39   H15   S    
C93   H89   S    
C37   H13   S    
C6    C118  S    
C14   H114  S    
