data_mof_unit_20295.cif
_audit_creation_date              2012-12-10T17:43:31-0500
_audit_creation_method            fapswitch 2.2
_symmetry_space_group_name_H-M    P1
_symmetry_Int_Tables_number       1
_space_group_crystal_system       triclinic
_cell_length_a                    14.995314
_cell_length_b                    10.627332
_cell_length_c                    9.912435
_cell_angle_alpha                 89.939173
_cell_angle_beta                  89.97274
_cell_angle_gamma                 91.657565
_cell_volume                      1578.98534522

loop_
_atom_site_label
_atom_site_type_symbol
_atom_type_description
_atom_site_fract_x
_atom_site_fract_y
_atom_site_fract_z
_atom_type_partial_charge
C1    C     C_R   0.502274 0.260726 0.500097 0.861262
C2    C     C_R   0.184912 0.494261 0.377012 -0.256986
C3    C     C_R   0.230641 0.491560 0.499922 -0.077414
C4    C     C_R   0.326680 0.498014 0.500035 0.891548
C5    C     C_R   0.184642 0.481696 0.622496 -0.206506
C6    C     C_R   0.652069 0.137315 0.623670 -0.173246
C7    C     C_R   0.722202 0.074468 0.683529 -0.124124
C8    C     C_R   0.722282 0.943521 0.683413 -0.130975
C9    C     C_R   0.652268 0.874970 0.623333 -0.188776
C10   C     C_R   0.580068 0.937283 0.563471 0.096749
C11   C     C_R   0.579943 0.069202 0.563680 0.097796
C12   C     C_R   0.906781 0.479542 0.623246 0.119760
C13   C     C_R   0.508352 0.128689 0.499922 -0.085487
C14   C     C_R   0.440752 0.061903 0.432888 -0.181466
C15   C     C_R   0.440900 0.933354 0.432656 -0.178157
C16   C     C_R   0.502598 0.739452 0.499900 0.876264
C17   C     C_R   0.508627 0.872014 0.499482 -0.102356
C18   C     C_R   0.381970 0.336527 0.140241 -0.242249
C19   C     C_R   0.323096 0.257014 0.070190 -0.253777
C20   C     C_R   0.322943 0.257102 0.930405 0.406774
C21   C     C_R   0.381986 0.336596 0.860176 -0.229322
C22   C     C_R   0.441824 0.419458 0.927839 0.111729
C23   C     C_R   0.953785 0.497042 0.253511 -0.212510
C24   C     C_R   0.441820 0.419492 0.072403 0.181538
C25   C     C_R   0.555765 0.576899 0.071362 -0.110081
C26   C     C_R   0.555745 0.576873 0.928231 -0.100335
C27   C     C_R   0.673299 0.499185 0.499963 0.861872
C28   C     C_R   0.814663 0.484088 0.622488 -0.275793
C29   C     C_R   0.769157 0.493913 0.499895 -0.072449
C30   C     C_R   0.815129 0.497010 0.377057 -0.246701
C31   C     C_R   0.907202 0.492449 0.375943 0.116965
C32   C     C_R   0.953337 0.484607 0.499546 0.065930
C33   C     C_R   0.046403 0.496130 0.253487 -0.199800
C34   C     C_R   0.092666 0.490774 0.375906 0.119757
C35   C     C_R   0.046105 0.483790 0.499532 0.056509
C36   C     C_R   0.092340 0.478031 0.623233 0.119077
C37   C     C_R   0.045678 0.470659 0.745501 -0.176604
C38   C     C_R   0.953016 0.471450 0.745507 -0.221423
Cl1   Cl    Cl    0.248491 0.156901 0.842067 -0.630551
H1    H     H_    0.778651 0.480542 0.717404 0.162189
H2    H     H_    0.379009 0.330548 0.753216 0.228574
H3    H     H_    0.779521 0.503914 0.282234 0.161802
H4    H     H_    0.601278 0.639731 0.874305 0.140567
H5    H     H_    0.918683 0.502524 0.158206 0.142225
H6    H     H_    0.081820 0.500964 0.158173 0.149090
H7    H     H_    0.220873 0.500638 0.282154 0.170567
H8    H     H_    0.220421 0.478006 0.717432 0.171855
H9    H     H_    0.080817 0.465671 0.840821 0.153656
H10   H     H_    0.917612 0.467032 0.840838 0.142621
H11   H     H_    0.386841 0.109576 0.383134 0.146375
H12   H     H_    0.655804 0.238998 0.623228 0.152204
H13   H     H_    0.777066 0.127592 0.728933 0.145799
H14   H     H_    0.777200 0.894885 0.728768 0.143058
H15   H     H_    0.656151 0.773538 0.622536 0.142365
H16   H     H_    0.387078 0.881295 0.382797 0.159398
H17   H     H_    0.601334 0.639745 0.124992 0.144615
H18   H     H_    0.378594 0.330067 0.247202 0.219532
H19   H     H_    0.277590 0.194831 0.125248 0.186119
N1    N     N_R   0.499150 0.498800 0.142780 -0.113956
N2    N     N_R   0.499120 0.498720 0.857170 -0.110908
O1    O     O_R   0.500000 0.316780 0.614690 -0.634391
O2    O     O_R   0.499990 0.316750 0.385360 -0.631930
O3    O     O_R   0.367850 0.499980 0.614680 -0.636010
O4    O     O_R   0.367840 0.499960 0.385350 -0.643862
O5    O     O_R   0.500010 0.683250 0.614640 -0.609358
O6    O     O_R   0.500000 0.683220 0.385310 -0.612967
O7    O     O_R   0.632160 0.500040 0.614650 -0.641223
O8    O     O_R   0.632150 0.500020 0.385320 -0.620723
Zn1   Zn    Zn3+2 0.500010 0.500020 0.653130 0.942700
Zn2   Zn    Zn3+2 0.499990 0.499980 0.346870 0.943580

loop_
_geom_bond_atom_site_label_1
_geom_bond_atom_site_label_2
_ccdc_geom_bond_type
C8    H14   S    
C26   H4    S    
C5    C36   A    
C6    C7    A    
C16   O5    A    
O4    Zn2   S    
C6    H12   S    
C27   C29   S    
C29   C30   A    
C33   H6    S    
C9    C10   A    
C4    O4    A    
C18   H18   S    
C31   C32   A    
C27   O7    A    
C25   H17   S    
O7    Zn1   S    
C1    O2    A    
C2    C34   A    
C2    C3    A    
C20   Cl1   S    
C3    C5    A    
C7    C8    A    
C38   H10   S    
O6    Zn2   S    
C21   C22   A    
C2    H7    S    
C37   H9    S    
C12   C38   A    
C11   C13   A    
C4    O3    A    
C14   H11   S    
N2    Zn1   S    
C12   C28   A    
C24   N1    A    
C21   H2    S    
N1    Zn2   S    
C28   C29   A    
C5    H8    S    
C37   C38   A    
C7    H13   S    
C33   C34   A    
C12   C32   A    
C19   H19   S    
C22   N2    A    
C30   C31   A    
C22   C24   A    
C23   C31   A    
C16   O6    A    
C10   C11   A    
C28   H1    S    
C10   C17   A    
C3    C4    S    
C32   C35   A    
O3    Zn1   S    
C1    C13   S    
C20   C21   A    
O2    Zn2   S    
C18   C24   A    
O8    Zn2   S    
C34   C35   A    
O1    Zn1   S    
C6    C11   A    
C15   C17   A    
C18   C19   A    
C14   C15   A    
C36   C37   A    
C9    H15   S    
C25   N1    A    
C27   O8    A    
O5    Zn1   S    
C25   C26   A    
C13   C14   A    
C26   N2    A    
C30   H3    S    
C23   H5    S    
C19   C20   A    
C16   C17   S    
C15   H16   S    
C8    C9    A    
C23   C33   A    
C35   C36   A    
C1    O1    A    
