data_mof_unit_7194.cif
_audit_creation_date              2013-03-05T16:12:12-0500
_audit_creation_method            fapswitch 2.2
_symmetry_space_group_name_H-M    P1
_symmetry_Int_Tables_number       1
_space_group_crystal_system       triclinic
_cell_length_a                    10.740077
_cell_length_b                    9.55425
_cell_length_c                    27.715244
_cell_angle_alpha                 89.370926
_cell_angle_beta                  90.595144
_cell_angle_gamma                 89.569367
_cell_volume                      2843.54726392

loop_
_atom_site_label
_atom_site_type_symbol
_atom_site_description
_atom_site_fract_x
_atom_site_fract_y
_atom_site_fract_z
_atom_type_partial_charge
O1    O     O_R   0.317570 0.620260 0.500030 -0.538579
O2    O     O_R   0.317570 0.379740 0.500030 -0.575121
C1    C     C_R   0.259813 0.500017 0.500518 0.834852
O3    O     O_R   0.499900 0.620250 0.430280 -0.545855
O4    O     O_R   0.499900 0.379750 0.430280 -0.560355
C2    C     C_R   0.502264 0.500063 0.407737 0.886633
Cu1   Cu    Cu3+1 0.499860 0.642410 0.500020 1.013471
Cu2   Cu    Cu3+1 0.499860 0.357590 0.500020 0.996679
O5    O     O_R   0.682190 0.620260 0.500010 -0.614627
O6    O     O_R   0.682190 0.379740 0.500010 -0.613971
O7    O     O_R   0.499860 0.620280 0.569750 -0.541597
O8    O     O_R   0.499860 0.379720 0.569750 -0.540702
C3    C     C_R   0.739433 0.499326 0.500914 0.725329
C4    C     C_R   0.503273 0.499787 0.592444 0.836744
C5    C     C_R   0.476368 0.395571 0.178769 0.584089
O9    O     O_2   0.382931 0.332745 0.202758 -0.494480
N1    N     N_R   0.570843 0.457693 0.203861 -0.452438
C6    C     C_R   0.669493 0.516927 0.180532 0.646475
C7    C     C_R   0.641047 0.404031 0.288407 0.032004
C8    C     C_R   0.621969 0.421176 0.337943 -0.314295
C9    C     C_R   0.433520 0.557420 0.321874 -0.024419
C10   C     C_R   0.458284 0.550361 0.272594 -0.200573
C11   C     C_R   0.558950 0.471999 0.255305 0.329340
C12   C     C_R   0.575861 0.457315 0.103370 -0.086464
C13   C     C_R   0.474262 0.399851 0.128316 -0.013850
C14   C     C_R   0.371560 0.349913 0.102558 -0.099435
C15   C     C_R   0.678912 0.508820 0.129694 -0.135673
C16   C     C_R   0.519121 0.496567 0.355139 -0.004478
H1    H     H_    0.394223 0.598896 0.246827 0.153741
H2    H     H_    0.293680 0.302358 0.120901 0.206122
C17   C     C_R   0.515110 0.502026 0.645521 -0.111318
C18   C     C_R   0.454154 0.452775 0.976474 0.037172
C19   C     C_R   0.676466 0.512029 0.975222 0.030901
C20   C     C_R   0.562684 0.488708 0.950475 0.082481
C21   C     C_R   0.339416 0.446263 0.951352 -0.184057
C22   C     C_R   0.332947 0.466638 0.901808 -0.097648
C23   C     C_R   0.440862 0.490670 0.875347 -0.037724
C24   C     C_R   0.556828 0.500796 0.899352 -0.037229
C25   C     C_R   0.666088 0.522218 0.872196 -0.100864
C26   C     C_R   0.656071 0.515657 0.821162 0.599736
N2    N     N_R   0.541562 0.513840 0.798889 -0.436606
C27   C     C_R   0.434816 0.504825 0.825105 0.592684
C28   C     C_R   0.475598 0.400002 0.724156 -0.125183
C29   C     C_R   0.464125 0.396232 0.674171 -0.134131
C30   C     C_R   0.576267 0.613713 0.667976 -0.211316
C31   C     C_R   0.582003 0.623565 0.718459 0.389297
C32   C     C_R   0.532933 0.513441 0.746915 0.218871
O10   O     O_2   0.322882 0.507858 0.802460 -0.498372
C33   C     C_R   0.462883 0.427460 0.026830 0.055064
C34   C     C_R   0.572840 0.465070 0.052153 0.083866
C35   C     C_R   0.678489 0.512240 0.026703 -0.005633
C36   C     C_R   0.365138 0.364839 0.052772 -0.186710
H3    H     H_    0.412692 0.312206 0.658343 0.249470
H4    H     H_    0.437604 0.315115 0.745481 0.193328
H5    H     H_    0.242757 0.460521 0.884157 0.231245
H6    H     H_    0.252063 0.430311 0.969405 0.163374
H7    H     H_    0.283536 0.323033 0.035255 0.154232
O11   O     O_2   0.755248 0.586940 0.206445 -0.463701
C37   C     C_R   0.784207 0.556248 0.104188 0.365610
H8    H     H_    0.685484 0.371043 0.363597 0.123937
C38   C     C_R   0.784051 0.536209 0.947632 -0.171625
C39   C     C_R   0.780503 0.543632 0.897077 -0.011784
O12   O     O_2   0.758871 0.505891 0.793889 -0.529341
C40   C     C_R   0.782334 0.558479 0.053716 -0.253937
H9    H     H_    0.873659 0.549356 0.964689 0.177017
H10   H     H_    0.617814 0.695030 0.646090 0.206887
H11   H     H_    0.864143 0.599505 0.036653 0.175642
C41   C     C_3   0.070985 0.597533 0.540577 -0.321692
C42   C     C_3   0.071872 0.348863 0.511499 -0.355493
H12   H     H_    0.098307 0.706903 0.532020 0.219474
H13   H     H_    0.107708 0.273981 0.484423 0.220306
H14   H     H_    0.111398 0.568018 0.576433 0.203286
H15   H     H_    0.104726 0.312279 0.547707 0.215253
C43   C     C_3   0.927647 0.591514 0.542485 -0.382604
C44   C     C_3   0.929109 0.347291 0.509673 -0.375621
H16   H     H_    0.898345 0.548946 0.578115 0.176944
H17   H     H_    0.893357 0.302511 0.544063 0.180229
H18   H     H_    0.888998 0.699635 0.539040 0.178118
H19   H     H_    0.897919 0.278030 0.479903 0.177068
H20   H     H_    0.104117 0.653812 0.442139 0.238264
H21   H     H_    0.097769 0.473941 0.423230 0.222398
H22   H     H_    0.892676 0.664262 0.446622 0.183053
H23   H     H_    0.886205 0.491028 0.422373 0.159884
C45   C     C_3   0.068179 0.548343 0.451548 -0.307679
C46   C     C_3   0.121048 0.498874 0.501092 0.053774
C47   C     C_3   0.877166 0.497953 0.501439 0.151707
C48   C     C_3   0.924781 0.554244 0.452473 -0.406697
C49   C     C_3   0.619458 0.081586 0.520386 -0.293605
C50   C     C_3   0.615664 0.915595 0.523661 -0.305924
H24   H     H_    0.646914 0.127767 0.555242 0.237120
H25   H     H_    0.627816 0.879753 0.561470 0.234010
H26   H     H_    0.697880 0.111419 0.496518 0.137623
H27   H     H_    0.699522 0.874531 0.505239 0.155445
C51   C     C_3   0.395902 0.083559 0.530381 0.240938
C52   C     C_3   0.391266 0.918089 0.527896 0.226504
C53   C     C_3   0.489946 0.085780 0.450780 0.163170
C54   C     C_3   0.498739 0.919869 0.450663 0.178599
N3    N     N_3   0.500250 0.143650 0.501060 -0.259464
N4    N     N_3   0.500250 0.856350 0.501060 -0.249791
H28   H     H_    0.572912 0.122872 0.430487 0.100600
H29   H     H_    0.590229 0.893153 0.434154 0.084525
H30   H     H_    0.307078 0.122014 0.514862 0.128042
H31   H     H_    0.305121 0.896025 0.507503 0.131317
C55   C     C_2   0.312028 0.617023 0.335887 0.525428
H32   H     H_    0.260535 0.684611 0.310914 0.100253
O13   O     O_2   0.265281 0.586854 0.374394 -0.559856
C56   C     C_2   0.744065 0.310158 0.273464 0.479129
H33   H     H_    0.814493 0.277572 0.299724 0.065120
O14   O     O_2   0.750022 0.264328 0.232618 -0.492126
N5    N     N_R   0.897274 0.595052 0.128475 0.162774
O15   O     O_R   0.955139 0.708256 0.115417 -0.322832
O16   O     O_R   0.954967 0.504102 0.156130 -0.278774
C57   C     C_2   0.896484 0.586494 0.872285 0.481281
H34   H     H_    0.892441 0.650189 0.839705 0.148510
O17   O     O_2   0.998628 0.554460 0.888938 -0.553763
N6    N     N_R   0.634195 0.746660 0.740016 0.150507
O18   O     O_R   0.716515 0.820062 0.716935 -0.312064
O19   O     O_R   0.589580 0.795253 0.780019 -0.332197
N7    N     N_R   0.393316 0.134850 0.580214 0.169175
O20   O     O_R   0.487694 0.119615 0.609645 -0.331234
O21   O     O_R   0.288986 0.183070 0.597104 -0.390228
N8    N     N_R   0.370994 0.852837 0.575647 0.181766
O22   O     O_R   0.453000 0.859194 0.610326 -0.300734
O23   O     O_R   0.261909 0.803354 0.585897 -0.376461
N9    N     N_R   0.380514 0.138852 0.422879 0.182330
O24   O     O_R   0.267102 0.110530 0.435473 -0.378864
O25   O     O_R   0.397335 0.182540 0.378766 -0.293741
N10   N     N_R   0.405838 0.861833 0.417165 0.188396
O26   O     O_R   0.295998 0.822785 0.430771 -0.327158
O27   O     O_R   0.427264 0.871775 0.371124 -0.345918

loop_
_geom_bond_atom_site_label_1
_geom_bond_atom_site_label_2
_geom_bond_distance
_ccdc_geom_bond_type
H23   C48   1.113572 S    
C10   H1    1.084481 S    
C1    C46   1.490713 S    
N2    C27   1.366425 A    
C21   C22   1.385709 A    
C12   C15   1.413743 A    
C4    C17   1.475612 S    
H20   C45   1.111107 S    
N10   O26   1.298391 A    
C55   O13   1.216817 D    
Cu1   Cu2   2.721241 S    
C30   C31   1.404102 A    
Cu1   O7    1.941807 S    
C37   C40   1.398700 A    
N1    C11   1.440694 S    
C26   O12   1.347743 S    
C43   H16   1.113154 S    
C50   N4    1.500494 S    
C22   C23   1.397074 A    
O3    Cu1   1.946736 S    
O4    C2    1.302827 A    
O7    C4    1.305849 A    
C52   N4    1.512795 S    
C5    C13   1.398415 A    
C51   N3    1.504777 S    
C41   C43   1.542399 S    
H22   C48   1.113428 S    
C37   N5    1.435433 S    
N6    O18   1.301504 A    
C5    N1    1.367088 A    
C23   C27   1.398334 A    
C42   H13   1.112104 S    
Cu2   N3    2.043895 S    
N5    O15   1.301231 A    
O5    C3    1.304610 A    
C44   C47   1.553517 S    
C9    C55   1.477135 S    
C29   H3    1.073047 S    
C6    O11   1.348175 S    
C2    C16   1.471540 S    
C49   H26   1.113215 S    
N6    O19   1.301292 A    
C53   N3    1.508145 S    
C3    C47   1.479134 S    
C56   H33   1.085731 S    
C45   C48   1.541210 S    
C42   H15   1.112110 S    
C8    H8    1.085286 S    
C41   H14   1.112891 S    
O1    Cu1   1.970797 S    
C9    C10   1.396433 A    
C41   C46   1.549990 S    
C56   O14   1.220388 D    
C38   C39   1.402290 A    
C54   N10   1.471501 S    
C55   H32   1.085718 S    
C54   N4    1.516664 S    
C52   H31   1.102069 S    
C34   C35   1.416140 A    
N7    O21   1.301842 A    
C12   C34   1.420629 A    
C17   C29   1.397060 A    
C6    C15   1.416603 A    
C18   C21   1.411191 A    
C12   C13   1.409419 A    
C39   C57   1.486858 S    
O3    C2    1.313477 A    
C25   C26   1.419512 A    
C47   C48   1.547590 S    
C8    C16   1.404502 A    
C13   C14   1.397496 A    
C43   C47   1.550477 S    
O1    C1    1.309708 A    
C18   C20   1.419081 A    
C7    C11   1.415040 A    
C28   C29   1.390423 A    
C40   H11   1.076575 S    
C23   C24   1.410405 A    
C14   C36   1.386581 A    
C51   N7    1.471016 S    
C28   H4    1.083069 S    
C49   N3    1.498352 S    
Cu2   O8    1.946422 S    
C33   C36   1.411601 A    
C53   C54   1.587295 S    
N1    C6    1.369709 A    
N2    C32   1.442527 S    
C27   O10   1.350329 S    
C45   C46   1.548152 S    
C44   H17   1.113573 S    
Cu1   N4    2.044591 S    
C52   N8    1.475623 S    
C19   C38   1.411260 A    
C26   N2    1.370631 A    
C9    C16   1.412739 A    
C49   H24   1.104661 S    
C14   H2    1.083501 S    
C43   H18   1.113155 S    
N9    O24   1.300161 A    
C50   H25   1.104988 S    
N8    O23   1.299662 A    
H21   C45   1.111895 S    
C42   C46   1.556211 S    
C57   H34   1.083646 S    
Cu1   O5    1.968061 S    
C25   C39   1.420087 A    
C31   C32   1.416171 A    
C21   H6    1.078884 S    
C20   C24   1.421004 A    
O2    Cu2   1.967635 S    
C35   C40   1.413123 A    
O8    C4    1.314884 A    
O6    C3    1.301882 A    
N10   O27   1.301532 A    
O4    Cu2   1.942115 S    
N7    O20   1.300752 A    
C19   C35   1.426761 A    
C31   N6    1.439682 S    
C7    C8    1.401408 A    
O2    C1    1.302054 A    
C22   H5    1.082885 S    
C15   C37   1.414641 A    
C24   C25   1.415607 A    
C44   H19   1.113755 S    
C53   H28   1.116543 S    
C19   C20   1.415440 A    
C53   N9    1.483224 S    
C42   C44   1.533785 S    
C50   H27   1.111044 S    
C51   C52   1.584334 S    
N5    O16   1.301501 A    
C18   C33   1.415834 A    
C36   H7    1.078901 S    
C38   H9    1.076624 S    
C49   C50   1.588369 S    
C51   H30   1.101279 S    
Cu2   O6    1.971223 S    
C33   C34   1.418104 A    
C17   C30   1.404992 A    
C30   H10   1.082190 S    
N9    O25   1.302366 A    
C41   H12   1.111256 S    
C10   C11   1.401970 A    
N8    O22   1.299108 A    
C28   C32   1.403110 A    
C54   H29   1.117218 S    
C5    O9    1.350393 S    
C57   O17   1.221277 D    
C7    C56   1.484194 S    
