data_mof_unit_16231.cif
_audit_creation_date              2012-12-11T15:07:32-0500
_audit_creation_method            fapswitch 2.2
_symmetry_space_group_name_H-M    P1
_symmetry_Int_Tables_number       1
_space_group_crystal_system       triclinic
_cell_length_a                    21.685775
_cell_length_b                    7.190686
_cell_length_c                    18.615658
_cell_angle_alpha                 89.803467
_cell_angle_beta                  96.156729
_cell_angle_gamma                 90.714076
_cell_volume                      2885.87034139

loop_
_atom_site_label
_atom_site_type_symbol
_atom_type_description
_atom_site_fract_x
_atom_site_fract_y
_atom_site_fract_z
_atom_type_partial_charge
O1    O     O_R   0.449650 0.506500 0.414480 -0.536149
O2    O     O_R   0.550350 0.006500 0.585520 -0.526091
O3    O     O_R   0.432010 0.173150 0.560250 -0.521828
O4    O     O_R   0.567990 0.673150 0.439750 -0.534370
C1    C     C_R   0.414683 0.343508 0.579314 0.709170
C2    C     C_R   0.585836 0.846302 0.421668 0.709250
O5    O     O_R   0.442320 0.176650 0.413480 -0.528852
O6    O     O_R   0.557680 0.676650 0.586520 -0.536995
O7    O     O_R   0.560730 0.008380 0.437700 -0.522306
O8    O     O_R   0.439270 0.508380 0.562300 -0.538305
C3    C     C_R   0.428128 0.344773 0.387721 0.675284
C4    C     C_R   0.571385 0.845943 0.612557 0.674804
O9    O     O_3   0.538840 0.339860 0.508120 -0.355523
O10   O     O_3   0.461160 0.839860 0.491880 -0.361279
V1    V     V_3+5 0.492800 0.064220 0.498490 1.510211
V2    V     V_3+5 0.507200 0.564220 0.501510 1.480325
C5    C     C_R   0.873899 0.883267 0.689415 -0.148658
C6    C     C_R   0.128614 0.477290 0.311374 -0.149614
H1    H     H_    0.792904 0.837541 0.573795 0.145950
H2    H     H_    0.210807 0.472142 0.427460 0.147511
H3    H     H_    0.894556 0.863672 0.639523 0.151271
H4    H     H_    0.109303 0.503495 0.361666 0.151231
C7    C     C_R   0.887304 0.933989 0.818819 -0.079159
C8    C     C_R   0.112891 0.443283 0.181229 -0.080929
C9    C     C_R   0.584311 0.874966 0.744981 -0.164707
C10   C     C_R   0.412758 0.316142 0.255366 -0.163758
C11   C     C_R   0.619935 0.898153 0.811083 -0.110201
C12   C     C_R   0.376365 0.314470 0.189189 -0.110373
C13   C     C_R   0.684458 0.907579 0.815050 -0.136800
C14   C     C_R   0.312783 0.345555 0.185237 -0.138480
C15   C     C_R   0.715460 0.892644 0.752265 0.082537
C16   C     C_R   0.283505 0.379740 0.248167 0.083096
C17   C     C_R   0.678423 0.865548 0.684432 0.062700
C18   C     C_R   0.321442 0.382718 0.316238 0.059806
C19   C     C_R   0.781854 0.902725 0.754564 0.074641
C20   C     C_R   0.217957 0.410602 0.245783 0.075794
C21   C     C_R   0.809209 0.880826 0.689168 0.087604
C22   C     C_R   0.192338 0.444694 0.311509 0.087045
C23   C     C_R   0.772051 0.853924 0.623749 -0.144071
C24   C     C_R   0.230328 0.446579 0.377233 -0.145080
C25   C     C_R   0.707825 0.846854 0.621293 -0.148983
C26   C     C_R   0.293697 0.415900 0.379689 -0.154845
C27   C     C_R   0.822347 0.932105 0.819205 -0.220843
C28   C     C_R   0.176710 0.409490 0.180752 -0.227248
C29   C     C_R   0.912731 0.906512 0.753518 0.134472
C30   C     C_R   0.089124 0.477660 0.247039 0.135671
C31   C     C_R   0.612536 0.858367 0.681287 -0.074749
C32   C     C_R   0.386405 0.350499 0.319247 -0.077498
H5    H     H_    0.805075 0.950590 0.870846 0.122809
H6    H     H_    0.192637 0.384880 0.128776 0.117678
H7    H     H_    0.534202 0.871044 0.743406 0.103746
H8    H     H_    0.462010 0.290304 0.256797 0.106692
H9    H     H_    0.708702 0.925987 0.868178 0.126478
H10   H     H_    0.287887 0.341581 0.132005 0.123713
H11   H     H_    0.597252 0.910329 0.859879 0.127252
H12   H     H_    0.397659 0.288080 0.140266 0.127869
H13   H     H_    0.681291 0.825028 0.569290 0.127334
H14   H     H_    0.320887 0.418506 0.431992 0.125804
C33   C     C_R   0.643798 0.720787 0.324176 -0.225561
C34   C     C_R   0.362795 0.509687 0.672630 -0.213405
C35   C     C_R   0.637870 0.860993 0.375282 -0.112185
C36   C     C_R   0.364009 0.352864 0.627719 -0.118017
C37   C     C_R   0.680285 0.014719 0.379417 0.085361
C38   C     C_R   0.317205 0.212690 0.630144 0.090885
C39   C     C_R   0.724256 0.032224 0.328249 0.054489
C40   C     C_R   0.272894 0.227803 0.680911 0.053476
C41   C     C_R   0.728498 0.890295 0.276487 0.043263
C42   C     C_R   0.272730 0.388202 0.725050 0.043774
C43   C     C_R   0.688741 0.733565 0.275542 0.096471
C44   C     C_R   0.317408 0.529540 0.719863 0.101477
C45   C     C_R   0.764201 0.188401 0.327055 -0.154859
C46   C     C_R   0.228373 0.086876 0.688907 -0.155382
C47   C     C_R   0.807497 0.202568 0.276902 -0.155673
C48   C     C_R   0.184657 0.105280 0.738068 -0.142808
C49   C     C_R   0.812463 0.061494 0.226350 0.087997
C50   C     C_R   0.183424 0.265522 0.780316 0.094064
C51   C     C_R   0.772853 0.904434 0.225667 0.026212
C52   C     C_R   0.227515 0.408112 0.774306 0.023717
C53   C     C_R   0.777215 0.762209 0.174088 0.051319
C54   C     C_R   0.226763 0.569702 0.817642 0.048400
C55   C     C_R   0.737292 0.606057 0.175110 -0.142550
C56   C     C_R   0.271871 0.709564 0.810475 -0.145318
C57   C     C_R   0.693795 0.592285 0.225041 -0.192497
C58   C     C_R   0.316510 0.689312 0.762486 -0.189250
C59   C     C_R   0.856997 0.075076 0.177198 -0.209080
C60   C     C_R   0.138497 0.284160 0.828241 -0.188934
C61   C     C_R   0.862922 0.934510 0.126263 -0.115418
C62   C     C_R   0.135982 0.443497 0.871464 -0.123952
C63   C     C_R   0.821236 0.779431 0.123100 0.209663
C64   C     C_R   0.181390 0.586930 0.866997 0.212104
H15   H     H_    0.612272 0.602102 0.321186 0.142137
H16   H     H_    0.397786 0.618313 0.671183 0.145142
H17   H     H_    0.762264 0.303133 0.363931 0.172080
H18   H     H_    0.227036 0.959197 0.658452 0.176297
H19   H     H_    0.837262 0.324960 0.277714 0.160986
H20   H     H_    0.151692 0.992865 0.743053 0.173510
H21   H     H_    0.888183 0.194496 0.179619 0.172959
H22   H     H_    0.104669 0.173157 0.831322 0.182493
H23   H     H_    0.739280 0.491808 0.137922 0.180207
H24   H     H_    0.273349 0.836734 0.841362 0.182274
H25   H     H_    0.663894 0.470180 0.224046 0.133327
H26   H     H_    0.350407 0.799948 0.758541 0.133645
O11   O     O_R   0.060820 0.290050 0.937800 -0.542851
O12   O     O_R   0.939180 0.790050 0.062200 -0.509222
O13   O     O_R   0.057690 0.616620 0.086540 -0.527361
O14   O     O_R   0.942310 0.116620 0.913460 -0.537934
C65   C     C_R   0.071585 0.449110 0.112653 0.726100
C66   C     C_R   0.928416 0.947683 0.887418 0.729646
O15   O     O_R   0.068010 0.619890 0.939770 -0.506978
O16   O     O_R   0.931990 0.119890 0.060230 -0.536859
O17   O     O_R   0.949640 0.787940 0.914460 -0.522404
O18   O     O_R   0.050360 0.287940 0.085540 -0.536875
C67   C     C_R   0.085440 0.452346 0.920231 0.743771
C68   C     C_R   0.914247 0.949462 0.078973 0.746744
O19   O     O_3   0.961210 0.453080 0.991940 -0.354371
O20   O     O_3   0.038790 0.953080 0.008060 -0.363099
V3    V     V_3+5 0.007200 0.728820 0.001500 1.600236
V4    V     V_3+5 0.992800 0.228820 0.998500 1.542950
I1    I     I_    0.009764 0.892394 0.748438 -0.433333
I2    I     I_    0.993485 0.529876 0.252496 -0.418239
I3    I     I_    0.683721 0.208518 0.467607 -0.420070
I4    I     I_    0.307471 0.990954 0.552098 -0.425065
Br1   Br    Br    0.820224 0.599935 0.045537 -0.576199
Br2   Br    Br    0.185223 0.799411 0.931198 -0.581487

loop_
_geom_bond_atom_site_label_1
_geom_bond_atom_site_label_2
_ccdc_geom_bond_type
C40   C42   A    
C37   C39   A    
C7    C29   A    
C11   C13   A    
C58   H26   S    
C65   O18   A    
O1    C3    A    
O2    C4    A    
C26   H14   S    
C2    O7    A    
C12   H12   S    
O15   V3    S    
C23   C25   A    
O5    C3    A    
C14   H10   S    
C48   C50   A    
C16   C20   A    
C2    C35   S    
C19   C21   A    
C5    C29   A    
H2    C24   S    
C60   C62   A    
C7    C27   A    
O20   V3    S    
C34   C36   A    
C62   C67   S    
C35   C37   A    
C61   C68   S    
C36   C38   A    
C55   C57   A    
C49   C59   A    
C40   C46   A    
C39   C41   A    
C18   C26   A    
O13   V3    S    
C15   C17   A    
C19   C27   A    
C9    C31   A    
O15   C67   A    
C46   H18   S    
C29   I1    S    
C24   C26   A    
O1    V2    S    
O6    V2    S    
C22   C24   A    
O14   V4    S    
C54   C64   A    
C47   C49   A    
O16   V4    S    
C3    C32   S    
C64   Br2   S    
C4    C31   S    
C6    C30   A    
C37   I3    S    
C51   C53   A    
C42   C52   A    
C33   C35   A    
C59   C61   A    
C48   H20   S    
C46   C48   A    
C53   C55   A    
C27   H5    S    
C33   H15   S    
O5    V1    S    
C63   Br1   S    
C39   C45   A    
C5    H3    S    
C41   C43   A    
C16   C18   A    
O4    V2    S    
C9    H7    S    
C43   C57   A    
C10   H8    S    
C41   C51   A    
O18   V4    S    
O13   C65   A    
C34   C44   A    
O6    C4    A    
O19   V4    S    
C52   C54   A    
C30   I2    S    
C8    C65   S    
C5    C21   A    
O2    V1    S    
C49   C51   A    
H1    C23   S    
C33   C43   A    
O12   C68   A    
O4    C2    A    
C8    C28   A    
C62   C64   A    
C56   C58   A    
C61   C63   A    
C17   C31   A    
C15   C19   A    
C20   C28   A    
O11   V4    S    
C18   C32   A    
C47   H19   S    
C50   C60   A    
C44   C58   A    
O14   C66   A    
C45   C47   A    
O12   V3    S    
C28   H6    S    
O16   C68   A    
C57   H25   S    
O11   C67   A    
C6    H4    S    
C56   H24   S    
C50   C52   A    
O3    C1    A    
C45   H17   S    
C10   C32   A    
C9    C11   A    
C55   H23   S    
C10   C12   A    
C66   O17   A    
O17   V3    S    
C8    C30   A    
C12   C14   A    
O7    V1    S    
C17   C25   A    
C1    O8    A    
C21   C23   A    
O8    V2    S    
C14   C16   A    
C13   H9    S    
C38   I4    S    
C7    C66   S    
C20   C22   A    
C54   C56   A    
C1    C36   S    
C11   H11   S    
C6    C22   A    
C60   H22   S    
C53   C63   A    
C59   H21   S    
C25   H13   S    
C13   C15   A    
O9    V2    S    
C42   C44   A    
O10   V1    S    
O3    V1    S    
C34   H16   S    
C38   C40   A    
