data_mof_unit_9319.cif
_audit_creation_date              2012-12-10T18:13:50-0500
_audit_creation_method            fapswitch 2.2
_symmetry_space_group_name_H-M    P1
_symmetry_Int_Tables_number       1
_space_group_crystal_system       triclinic
_cell_length_a                    10.844328
_cell_length_b                    9.554002
_cell_length_c                    23.495401
_cell_angle_alpha                 89.806714
_cell_angle_beta                  94.805087
_cell_angle_gamma                 88.895248
_cell_volume                      2425.24493327

loop_
_atom_site_label
_atom_site_type_symbol
_atom_type_description
_atom_site_fract_x
_atom_site_fract_y
_atom_site_fract_z
_atom_type_partial_charge
C1    C     C_R   0.260119 0.500901 0.497232 0.813981
C2    C     C_R   0.272269 0.449229 0.962881 -0.168097
C3    C     C_R   0.274210 0.449947 0.022135 -0.173507
C4    C     C_R   0.384339 0.476105 0.055933 0.002861
C5    C     C_R   0.494397 0.502531 0.029830 -0.050151
C6    C     C_R   0.606478 0.528539 0.063724 -0.050456
C7    C     C_R   0.715680 0.556686 0.035586 0.140210
C8    C     C_R   0.709408 0.556429 0.975665 -0.191623
C9    C     C_R   0.386499 0.476912 0.115451 0.514276
C10   C     C_R   0.602659 0.525479 0.124003 0.529315
C11   C     C_R   0.506362 0.377259 0.239020 -0.140680
C12   C     C_R   0.498561 0.500269 0.391115 0.776271
C13   C     C_R   0.508056 0.375679 0.298326 -0.190840
C14   C     C_R   0.496602 0.501254 0.328388 -0.085460
C15   C     C_R   0.482620 0.628275 0.298054 -0.233802
C16   C     C_R   0.480595 0.631225 0.238361 0.185318
C17   C     C_R   0.492877 0.503909 0.208807 0.345186
C18   C     C_R   0.411665 0.593327 0.755922 -0.096803
C19   C     C_R   0.414425 0.592920 0.696652 -0.255018
C20   C     C_R   0.491991 0.497690 0.670668 -0.028279
C21   C     C_R   0.563423 0.399871 0.704356 -0.236731
C22   C     C_R   0.559788 0.399404 0.763477 -0.091480
C23   C     C_R   0.739766 0.499177 0.499078 0.755171
C24   C     C_R   0.485049 0.497128 0.789659 0.347004
C25   C     C_3   0.077883 0.613435 0.535390 -0.453243
C26   C     C_3   0.079514 0.359505 0.518592 -0.519832
C27   C     C_3   0.936042 0.615894 0.535036 0.159054
C28   C     C_3   0.937504 0.358214 0.518953 0.169626
C29   C     C_3   0.060108 0.520110 0.428637 0.244558
C30   C     C_3   0.121832 0.501255 0.493404 -0.067331
C31   C     C_3   0.877791 0.499024 0.494772 -0.083500
C32   C     C_3   0.911743 0.521117 0.430799 0.722128
C33   C     C_3   0.621814 0.081394 0.528582 -0.004021
C34   C     C_3   0.618434 0.913454 0.530627 0.063244
C35   C     C_3   0.401153 0.084252 0.534190 -0.244882
C36   C     C_3   0.395473 0.919343 0.530312 -0.242687
C37   C     C_3   0.485025 0.085039 0.442227 0.384707
C38   C     C_3   0.489805 0.918586 0.441773 0.260261
C39   C     C_R   0.497913 0.499576 0.608624 0.770656
C40   C     C_R   0.594453 0.529260 0.882675 0.538676
C41   C     C_R   0.380126 0.473998 0.876302 0.529202
C42   C     C_R   0.380284 0.475327 0.936057 -0.003092
C43   C     C_R   0.491419 0.502577 0.969533 -0.019420
C44   C     C_R   0.599190 0.529586 0.942603 -0.047219
Cu1   Cu    Cu3+1 0.499860 0.642410 0.500030 0.900077
Cu2   Cu    Cu3+1 0.499860 0.357590 0.500030 0.923498
H1    H     H_    0.185758 0.428264 0.938204 0.188385
H2    H     H_    0.357311 0.667840 0.671098 0.145521
H3    H     H_    0.624401 0.326331 0.685202 0.136311
H4    H     H_    0.616379 0.324284 0.789110 0.145765
H5    H     H_    0.114200 0.718278 0.528921 0.196412
H6    H     H_    0.114646 0.266578 0.496441 0.186421
H7    H     H_    0.117655 0.586949 0.579505 0.147069
H8    H     H_    0.121278 0.346159 0.563334 0.172687
H9    H     H_    0.913315 0.591667 0.579350 0.119284
H10   H     H_    0.917644 0.352583 0.564289 0.132886
H11   H     H_    0.188955 0.429593 0.041370 0.179976
H12   H     H_    0.693974 0.106892 0.499516 0.172781
H13   H     H_    0.692661 0.881432 0.503310 0.143825
H14   H     H_    0.414142 0.116228 0.579552 0.157844
H15   H     H_    0.388832 0.870324 0.572523 0.181134
H16   H     H_    0.563716 0.120336 0.418616 0.082379
H17   H     H_    0.573049 0.885445 0.420136 0.094448
H18   H     H_    0.309350 0.129339 0.519181 0.159072
H19   H     H_    0.306007 0.893155 0.507344 0.137852
H20   H     H_    0.792492 0.576562 0.954580 0.186490
H21   H     H_    0.516079 0.279720 0.216318 0.141971
H22   H     H_    0.519016 0.276189 0.320564 0.185680
H23   H     H_    0.472384 0.725775 0.320652 0.205942
H24   H     H_    0.353688 0.669342 0.775698 0.148835
N1    N     N_R   0.486304 0.500622 0.850841 -0.467204
N2    N     N_R   0.494003 0.501914 0.147827 -0.466954
N3    N     N_3   0.500250 0.143650 0.501250 -0.203434
N4    N     N_3   0.500250 0.856350 0.501250 -0.207355
O1    O     O_R   0.317570 0.620260 0.500030 -0.608002
O2    O     O_R   0.317570 0.379740 0.500030 -0.577662
O3    O     O_R   0.499840 0.620290 0.417900 -0.592193
O4    O     O_R   0.499840 0.379710 0.417900 -0.543951
O5    O     O_R   0.682190 0.620260 0.500010 -0.572099
O6    O     O_R   0.682190 0.379740 0.500010 -0.565727
O7    O     O_R   0.499920 0.620230 0.582140 -0.586609
O8    O     O_R   0.499920 0.379770 0.582140 -0.610054
O9    O     O_2   0.696997 0.558371 0.856357 -0.544439
O10   O     O_2   0.275135 0.444752 0.843936 -0.543155
O11   O     O_2   0.281851 0.453447 0.141034 -0.558015
O12   O     O_2   0.705308 0.545064 0.159158 -0.556032
O13   O     O_3   0.886123 0.750520 0.523132 -0.753205
H25   H     H_    0.927073 0.792607 0.491626 0.370350
O14   O     O_3   0.885588 0.238221 0.492593 -0.725867
H26   H     H_    0.926620 0.215612 0.457787 0.354465
C45   C     C_3   0.108673 0.651053 0.395293 -0.279230
C46   C     C_3   0.090821 0.803884 0.413292 -0.836750
H27   H     H_    0.993273 0.840258 0.409118 0.282926
H28   H     H_    0.135922 0.827733 0.455355 0.222052
H29   H     H_    0.136551 0.871114 0.382982 0.252285
H30   H     H_    0.208964 0.634260 0.390693 0.174106
H31   H     H_    0.063286 0.651110 0.351210 0.237222
C47   C     C_3   0.104985 0.389457 0.392661 -0.415224
C48   C     C_3   0.077391 0.394539 0.327236 -0.734045
H32   H     H_    0.982652 0.434821 0.314254 0.295507
H33   H     H_    0.145543 0.460605 0.307445 0.229214
H34   H     H_    0.086851 0.287489 0.309599 0.249025
H35   H     H_    0.206776 0.374756 0.400074 0.215974
H36   H     H_    0.065816 0.290788 0.406415 0.218114
O15   O     O_3   0.861069 0.649443 0.409033 -0.758869
H37   H     H_    0.769854 0.642866 0.402622 0.323754
O16   O     O_3   0.860544 0.412220 0.396201 -0.759867
H38   H     H_    0.769040 0.416429 0.395526 0.313939
C49   C     C_3   0.671695 0.152150 0.586503 -0.246364
C50   C     C_3   0.806395 0.117832 0.609418 -0.873752
H39   H     H_    0.861501 0.072985 0.575943 0.296446
H40   H     H_    0.852170 0.212818 0.627168 0.219850
H41   H     H_    0.811259 0.047606 0.646969 0.240054
H42   H     H_    0.676385 0.264026 0.580881 0.253295
H43   H     H_    0.609028 0.139338 0.620575 0.185705
C51   C     C_3   0.666101 0.842236 0.589317 -0.168323
C52   C     C_3   0.599740 0.873094 0.643630 -0.841364
H44   H     H_    0.664173 0.918628 0.677342 0.229922
H45   H     H_    0.519031 0.944453 0.637131 0.228972
H46   H     H_    0.569732 0.775073 0.662405 0.256948
H47   H     H_    0.679255 0.729224 0.585819 0.230211
H48   H     H_    0.764744 0.864784 0.598261 0.196178
O17   O     O_3   0.377625 0.140850 0.411588 -0.682886
H49   H     H_    0.303742 0.099132 0.426433 0.332926
O18   O     O_3   0.387706 0.869761 0.406935 -0.744371
H50   H     H_    0.347481 0.795360 0.427147 0.371728
C53   C     C_3   0.841211 0.588211 0.066028 -0.352040
C54   C     C_3   0.911264 0.453871 0.085612 -0.727149
H51   H     H_    0.999513 0.480697 0.110190 0.259696
H52   H     H_    0.856278 0.389018 0.113016 0.277829
H53   H     H_    0.932966 0.391058 0.047887 0.225165
H54   H     H_    0.899634 0.643854 0.036842 0.177078
H55   H     H_    0.833245 0.662790 0.101590 0.240685
C55   C     C_3   0.462648 0.770397 0.207532 -0.401694
C56   C     C_3   0.576382 0.861451 0.218172 -0.789091
H56   H     H_    0.593711 0.885654 0.264318 0.248412
H57   H     H_    0.659190 0.807261 0.203278 0.281787
H58   H     H_    0.560965 0.961605 0.194280 0.235408
H59   H     H_    0.443629 0.756685 0.160759 0.208291
H60   H     H_    0.380759 0.826291 0.222637 0.211359

loop_
_geom_bond_atom_site_label_1
_geom_bond_atom_site_label_2
_ccdc_geom_bond_type
C18   H24   S    
C56   H58   S    
O13   H25   S    
C8    H20   S    
C33   H12   S    
C40   N1    A    
C52   H44   S    
C41   C42   A    
C19   C20   A    
C9    N2    A    
C16   C55   S    
C54   H51   S    
Cu2   O2    S    
C37   H16   S    
C28   H10   S    
O17   H49   S    
Cu1   Cu2   S    
C53   H54   S    
C37   C38   S    
C51   H48   S    
C29   C47   S    
C18   C24   A    
C25   H7    S    
C29   C32   S    
C52   H45   S    
C55   H60   S    
C5    C6    A    
C27   H9    S    
C34   C51   S    
C47   H35   S    
C51   C52   S    
C18   C19   A    
C50   H39   S    
C1    C30   S    
C9    O11   S    
C45   H30   S    
C37   O17   S    
C11   C17   A    
C31   C32   S    
C16   C17   A    
C32   O16   S    
C12   O4    A    
O16   H38   S    
C28   O14   S    
C23   O6    A    
C45   C46   S    
C41   N1    A    
C56   H56   S    
C5    C43   A    
Cu2   O8    S    
C13   C14   A    
C40   O9    S    
C26   H8    S    
C21   H3    S    
C11   H21   S    
C15   H23   S    
C51   H47   S    
C27   C31   S    
C1    O1    A    
C8    C44   A    
C7    C8    A    
C39   O7    A    
C52   H46   S    
C55   H59   S    
Cu2   O4    S    
C20   C39   S    
C36   H19   S    
C41   O10   S    
C46   H29   S    
C35   H14   S    
C35   C36   S    
C23   C31   S    
C43   C44   A    
C25   H5    S    
C29   C30   S    
C26   H6    S    
C48   H32   S    
C12   O3    A    
C46   H28   S    
C33   C34   S    
Cu1   O5    S    
C45   H31   S    
C27   O13   S    
C50   H41   S    
C35   H18   S    
C36   N4    S    
C49   H42   S    
C34   N4    S    
C3    H11   S    
C33   N3    S    
C48   H33   S    
C12   C14   S    
C26   C30   S    
C32   O15   S    
O18   H50   S    
C22   C24   A    
C33   C49   S    
C42   C43   A    
C3    C4    A    
C54   H53   S    
C29   C45   S    
C38   O18   S    
C38   H17   S    
C38   N4    S    
C25   C30   S    
C56   H57   S    
C37   N3    S    
C35   N3    S    
C19   H2    S    
C1    O2    A    
C28   C31   S    
Cu1   O7    S    
C53   H55   S    
C39   O8    A    
C4    C5    A    
C54   H52   S    
C6    C10   A    
C6    C7    A    
C2    H1    S    
C25   C27   S    
O15   H37   S    
C55   C56   S    
C26   C28   S    
C22   H4    S    
Cu1   O1    S    
C23   O5    A    
C2    C3    A    
C4    C9    A    
C49   C50   S    
Cu2   O6    S    
C11   C13   A    
C10   O12   S    
C34   H13   S    
C2    C42   A    
C47   H36   S    
C15   C16   A    
C46   H27   S    
C36   H15   S    
C50   H40   S    
C49   H43   S    
C40   C44   A    
C48   H34   S    
C20   C21   A    
C17   N2    S    
C47   C48   S    
C14   C15   A    
Cu1   N4    S    
Cu1   O3    S    
C7    C53   S    
O14   H26   S    
C21   C22   A    
Cu2   N3    S    
C53   C54   S    
C24   N1    S    
C13   H22   S    
C10   N2    A    
