data_mof_unit_23187.cif
_audit_creation_date              2012-12-10T17:53:11-0500
_audit_creation_method            fapswitch 2.2
_symmetry_space_group_name_H-M    P1
_symmetry_Int_Tables_number       1
_space_group_crystal_system       triclinic
_cell_length_a                    14.684318
_cell_length_b                    14.518804
_cell_length_c                    27.726768
_cell_angle_alpha                 76.392541
_cell_angle_beta                  102.732953
_cell_angle_gamma                 114.743438
_cell_volume                      5167.88223043

loop_
_atom_site_label
_atom_site_type_symbol
_atom_type_description
_atom_site_fract_x
_atom_site_fract_y
_atom_site_fract_z
_atom_type_partial_charge
C1    C     C_R   0.880317 0.310578 0.507211 0.822165
C2    C     C_R   0.908373 0.479351 0.119231 -0.142891
C3    C     C_R   0.995198 0.493912 0.645440 -0.119542
C4    C     C_R   0.004811 0.506095 0.354562 -0.119509
C5    C     C_R   0.907560 0.466757 0.018872 -0.041421
C6    C     C_R   0.092537 0.533223 0.981144 -0.041428
C7    C     C_R   0.092212 0.553123 0.029020 0.076541
C8    C     C_R   0.907888 0.446859 0.970996 0.076545
C9    C     C_R   0.000446 0.511011 0.049373 -0.051968
C10   C     C_R   0.999653 0.488973 0.950643 -0.051985
C11   C     C_R   0.817350 0.452822 0.035277 0.367061
C12   C     C_R   0.119683 0.689422 0.492789 0.822139
C13   C     C_R   0.182742 0.547166 0.964735 0.367059
C14   C     C_R   0.816141 0.448611 0.086333 0.305465
C15   C     C_R   0.183944 0.551387 0.913678 0.305496
C16   C     C_R   0.998780 0.498725 0.592355 0.849682
C17   C     C_R   0.001220 0.501275 0.407646 0.849717
C18   C     C_R   0.821617 0.377761 0.944646 0.237754
C19   C     C_R   0.178485 0.622234 0.055366 0.237729
C20   C     C_R   0.813094 0.198945 0.510540 -0.165488
C21   C     C_R   0.186904 0.801054 0.489459 -0.165468
C22   C     C_R   0.778736 0.014660 0.536944 0.427968
C23   C     C_R   0.998976 0.482874 0.900288 -0.143802
C24   C     C_R   0.221268 0.985339 0.463042 0.427975
C25   C     C_R   0.848029 0.118739 0.534139 0.035387
C26   C     C_R   0.151973 0.881260 0.465850 0.035356
C27   C     C_R   0.710297 0.171774 0.489808 0.173912
C28   C     C_R   0.289698 0.828224 0.510197 0.173925
C29   C     C_R   0.639925 0.071752 0.504066 -0.012363
C30   C     C_R   0.360073 0.928243 0.495939 -0.012372
C31   C     C_R   0.674126 0.990166 0.519565 -0.051708
C32   C     C_R   0.325875 0.009830 0.480434 -0.051690
C33   C     C_R   0.535394 0.050525 0.500857 -0.053342
C34   C     C_R   0.001120 0.517129 0.099724 -0.143797
C35   C     C_R   0.464604 0.949468 0.499152 -0.053353
C36   C     C_R   0.499566 0.873407 0.497542 0.392399
C37   C     C_R   0.500431 0.126583 0.502469 0.392392
C38   C     C_R   0.602026 0.888313 0.515150 0.060759
C39   C     C_R   0.397973 0.111681 0.484854 0.060744
C40   C     C_R   0.908141 0.447947 0.817799 0.596264
C41   C     C_R   0.091956 0.552109 0.182209 0.596070
C42   C     C_R   0.710169 0.659743 0.409561 0.315350
C43   C     C_R   0.289832 0.340257 0.590439 0.315343
C44   C     C_R   0.794337 0.632811 0.426610 -0.031479
C45   C     C_R   0.905627 0.440003 0.869498 -0.051282
C46   C     C_R   0.205663 0.367188 0.573389 -0.031496
C47   C     C_R   0.716297 0.513381 0.494022 0.008048
C48   C     C_R   0.283703 0.486621 0.505978 0.008079
C49   C     C_R   0.628430 0.537370 0.480204 -0.110342
C50   C     C_R   0.371571 0.462631 0.519797 -0.110345
C51   C     C_R   0.624021 0.609585 0.435640 0.094751
C52   C     C_R   0.375980 0.390417 0.564360 0.094753
C53   C     C_R   0.544953 0.490333 0.508822 0.055860
C54   C     C_R   0.455048 0.509669 0.491179 0.055862
C55   C     C_R   0.450480 0.574720 0.445042 -0.241434
C56   C     C_R   0.094473 0.560021 0.130514 -0.051270
C57   C     C_R   0.549521 0.425283 0.554958 -0.241438
C58   C     C_R   0.532923 0.626928 0.418218 0.145588
C59   C     C_R   0.467078 0.373075 0.581783 0.145586
C60   C     C_R   0.088770 0.519593 0.829757 0.629982
C61   C     C_R   0.911309 0.480430 0.170250 0.630224
C62   C     C_R   0.002901 0.577855 0.713651 0.424601
C63   C     C_R   0.996982 0.422121 0.286339 0.424613
C64   C     C_R   0.006731 0.583199 0.662528 -0.020389
C65   C     C_R   0.993127 0.416769 0.337460 -0.020311
C66   C     C_R   0.983601 0.401039 0.679357 0.100391
C67   C     C_R   0.815458 0.385096 0.892320 0.130353
C68   C     C_R   0.016585 0.599022 0.320664 0.100319
C69   C     C_R   0.989354 0.399630 0.731052 0.124474
C70   C     C_R   0.010879 0.600461 0.268969 0.124536
C71   C     C_R   0.998174 0.488144 0.747603 0.252441
C72   C     C_R   0.001901 0.511901 0.252403 0.252344
C73   C     C_3   0.963969 0.302644 0.661156 -0.827286
C74   C     C_3   0.036372 0.697446 0.338882 -0.827318
C75   C     C_3   0.320538 0.760447 0.556073 -0.705686
C76   C     C_3   0.679444 0.239554 0.443938 -0.705673
C77   C     C_3   0.040654 0.858048 0.447064 -0.774061
C78   C     C_R   0.184649 0.614914 0.107691 0.130351
C79   C     C_3   0.959352 0.141951 0.552921 -0.773991
C80   C     C_3   0.518189 0.698494 0.370479 -0.715296
C81   C     C_3   0.481813 0.301509 0.629522 -0.715306
C82   C     C_3   0.984500 0.303167 0.768233 -0.764789
C83   C     C_3   0.015943 0.697001 0.231805 -0.764737
C84   C     C_3   0.714427 0.329320 0.862538 -0.722087
C85   C     C_3   0.285691 0.670693 0.137470 -0.722020
C86   C     C_3   0.971230 0.315621 0.373184 -0.803725
C87   C     C_3   0.028448 0.684313 0.626788 -0.803656
C88   C     C_3   0.748836 0.282011 0.973243 -0.785026
C89   C     C_R   0.091714 0.520656 0.880779 -0.142886
C90   C     C_3   0.251243 0.717991 0.026764 -0.784955
C91   C     C_3   0.630785 0.795578 0.527980 -0.730898
C92   C     C_3   0.369213 0.204416 0.472027 -0.730858
Cu1   Cu    Cu3+1 0.081740 0.475690 0.513040 0.933327
Cu2   Cu    Cu3+1 0.918260 0.524310 0.486960 0.933320
H1    H     H_    0.276672 0.544774 0.475004 0.158682
H2    H     H_    0.103801 0.760703 0.324181 0.235970
H3    H     H_    0.969637 0.718773 0.325941 0.228875
H4    H     H_    0.053297 0.692117 0.380097 0.218007
H5    H     H_    0.332611 0.697603 0.545692 0.276889
H6    H     H_    0.391187 0.805649 0.578575 0.208681
H7    H     H_    0.261303 0.726417 0.581257 0.199074
H8    H     H_    0.608792 0.194354 0.421438 0.208680
H9    H     H_    0.667374 0.302394 0.454324 0.276889
H10   H     H_    0.738670 0.273591 0.418749 0.199056
H11   H     H_    0.995267 0.816308 0.478319 0.253927
H12   H     H_    0.723329 0.455229 0.524997 0.158680
H13   H     H_    0.022294 0.926900 0.432321 0.242912
H14   H     H_    0.015518 0.812355 0.416271 0.213488
H15   H     H_    0.004735 0.183701 0.521664 0.253910
H16   H     H_    0.984490 0.187634 0.583718 0.213479
H17   H     H_    0.977719 0.073099 0.567659 0.242916
H18   H     H_    0.841966 0.947160 0.593012 0.320549
H19   H     H_    0.158026 0.052806 0.406962 0.320580
H20   H     H_    0.472187 0.769871 0.457606 0.330269
H21   H     H_    0.527801 0.230109 0.542409 0.330269
H22   H     H_    0.441081 0.699571 0.362502 0.201427
H23   H     H_    0.140715 0.331665 0.593325 0.128531
H24   H     H_    0.571903 0.778564 0.373751 0.259418
H25   H     H_    0.528489 0.673345 0.337924 0.268849
H26   H     H_    0.558921 0.300433 0.637499 0.201430
H27   H     H_    0.471512 0.326658 0.662076 0.268847
H28   H     H_    0.428100 0.221439 0.626250 0.259418
H29   H     H_    0.778029 0.760824 0.355040 0.320203
H30   H     H_    0.221972 0.239177 0.644961 0.320190
H31   H     H_    0.043887 0.278429 0.763936 0.236750
H32   H     H_    0.997214 0.313756 0.807794 0.222810
H33   H     H_    0.908970 0.240783 0.761697 0.231136
H34   H     H_    0.859284 0.668332 0.406674 0.128553
H35   H     H_    0.956621 0.721861 0.236075 0.236653
H36   H     H_    0.091526 0.759285 0.238388 0.231222
H37   H     H_    0.003274 0.686454 0.192240 0.222779
H38   H     H_    0.651308 0.289587 0.885140 0.215450
H39   H     H_    0.691333 0.385427 0.833441 0.267537
H40   H     H_    0.719950 0.270469 0.845289 0.242966
H41   H     H_    0.348816 0.710380 0.114868 0.215445
H42   H     H_    0.280190 0.729584 0.154700 0.242963
H43   H     H_    0.308769 0.614589 0.166582 0.267519
H44   H     H_    0.936016 0.248158 0.353472 0.243697
H45   H     H_    0.381980 0.586339 0.428354 0.152259
H46   H     H_    0.042345 0.314450 0.396986 0.244978
H47   H     H_    0.915845 0.305164 0.397577 0.214031
H48   H     H_    0.063618 0.751790 0.646489 0.243670
H49   H     H_    0.083807 0.694850 0.602361 0.214078
H50   H     H_    0.957265 0.685370 0.603021 0.245003
H51   H     H_    0.030457 0.303248 0.294032 0.333485
H52   H     H_    0.969183 0.696576 0.705946 0.333518
H53   H     H_    0.716738 0.350984 0.126598 0.357223
H54   H     H_    0.283307 0.649013 0.873397 0.357250
H55   H     H_    0.678769 0.448055 0.016242 0.376939
H56   H     H_    0.618022 0.413663 0.571646 0.152261
H57   H     H_    0.321299 0.551894 0.983768 0.376963
H58   H     H_    0.740549 0.212868 0.959226 0.216459
H59   H     H_    0.777437 0.270357 0.013793 0.222175
H60   H     H_    0.673014 0.284807 0.968606 0.266068
H61   H     H_    0.259518 0.787130 0.040782 0.216445
H62   H     H_    0.327071 0.715217 0.031396 0.266074
H63   H     H_    0.222626 0.729634 0.986215 0.222181
H64   H     H_    0.565072 0.722211 0.523716 0.219495
H65   H     H_    0.685615 0.804403 0.503627 0.258227
H66   H     H_    0.662871 0.785692 0.568092 0.258844
H67   H     H_    0.896705 0.239265 0.675940 0.235945
H68   H     H_    0.434922 0.277779 0.476303 0.219486
H69   H     H_    0.337149 0.214318 0.431911 0.258875
H70   H     H_    0.314363 0.195577 0.496372 0.258209
H71   H     H_    0.946854 0.307886 0.619948 0.218006
H72   H     H_    0.030851 0.281545 0.674022 0.228867
N1    N     N_R   0.998363 0.486525 0.799666 -0.433388
N2    N     N_R   0.001723 0.513526 0.200340 -0.433432
N3    N     N_R   0.795430 0.560780 0.467350 -0.198075
N4    N     N_R   0.204570 0.439220 0.532650 -0.198073
O1    O     O_R   0.977900 0.338120 0.517190 -0.585128
O2    O     O_2   0.177903 0.582649 0.214595 -0.549263
O3    O     O_2   0.825208 0.450107 0.190025 -0.497556
O4    O     O_2   0.174855 0.549894 0.809981 -0.497649
O5    O     O_3   0.812987 0.937271 0.557846 -0.741741
O6    O     O_3   0.187028 0.062733 0.442119 -0.741761
O7    O     O_3   0.433548 0.788238 0.476227 -0.749719
O8    O     O_3   0.566445 0.211746 0.523790 -0.749717
O9    O     O_3   0.712225 0.734309 0.367866 -0.747110
O10   O     O_3   0.287776 0.265692 0.632134 -0.747115
O11   O     O_3   0.995460 0.341127 0.267765 -0.710480
O12   O     O_R   0.022100 0.661880 0.482810 -0.585135
O13   O     O_3   0.004267 0.658792 0.732213 -0.710476
O14   O     O_3   0.724034 0.415645 0.102769 -0.688071
O15   O     O_3   0.276047 0.584380 0.897240 -0.688098
O16   O     O_3   0.733009 0.448667 0.000231 -0.720877
O17   O     O_3   0.267094 0.551344 0.999777 -0.720906
O18   O     O_R   0.839850 0.379180 0.495160 -0.566853
O19   O     O_R   0.160150 0.620820 0.504840 -0.566844
O20   O     O_R   0.069030 0.479490 0.580750 -0.576692
O21   O     O_R   0.930970 0.520510 0.419250 -0.576709
O22   O     O_R   0.930970 0.520550 0.558720 -0.575639
O23   O     O_R   0.069030 0.479450 0.441280 -0.575642
O24   O     O_2   0.822201 0.417448 0.785412 -0.549271

loop_
_geom_bond_atom_site_label_1
_geom_bond_atom_site_label_2
_ccdc_geom_bond_type
H53   O14   S    
C76   H10   S    
C21   C26   A    
C63   C65   A    
C34   C56   A    
Cu1   Cu2   S    
C23   C45   A    
C48   H1    S    
C29   C33   A    
C27   C29   A    
C11   O16   S    
C60   O4    S    
C17   O23   A    
C35   C36   A    
C44   H34   S    
C22   O5    S    
C55   H45   S    
C65   C86   S    
C47   C49   A    
C40   O24   S    
C3    C64   A    
C17   O21   A    
H57   O17   S    
C37   O8    S    
C15   O15   S    
C81   H26   S    
C84   H40   S    
C50   C54   A    
H52   O13   S    
C63   O11   S    
Cu2   O18   S    
C83   H35   S    
C41   C56   A    
Cu2   N3    S    
C4    C65   A    
C8    C10   A    
C11   C14   A    
C43   C52   A    
C57   C59   A    
C66   C69   A    
C20   C25   A    
C68   C74   S    
C41   N2    A    
H51   O11   S    
C56   C78   A    
C32   C39   A    
C69   C71   A    
Cu2   O21   S    
C82   H32   S    
C91   H64   S    
C73   H67   S    
C69   C82   S    
C16   O22   A    
C62   O13   S    
C44   N3    A    
C12   O12   A    
C80   H22   S    
C40   N1    A    
C22   C25   A    
C45   C67   A    
C50   C52   A    
C23   C89   A    
C87   H50   S    
C64   C87   S    
C91   H65   S    
C2    C61   A    
C86   H46   S    
C42   C51   A    
H20   O7    S    
C76   H9    S    
C48   C50   A    
C80   H25   S    
C67   C84   S    
C71   N1    S    
C72   N2    S    
C42   C44   A    
C47   N3    A    
C74   H3    S    
C76   H8    S    
C40   C45   A    
C43   O10   S    
C41   O2    S    
C80   H24   S    
Cu1   N4    S    
C26   C77   S    
C22   C31   A    
C79   H15   S    
C60   N1    A    
C74   H2    S    
C77   H13   S    
C61   O3    S    
C83   H36   S    
H29   O9    S    
C4    C68   A    
C53   C57   A    
C49   C51   A    
H54   O15   S    
C53   C54   A    
C66   C73   S    
C38   C91   S    
C1    O1    A    
C8    C18   A    
C46   N4    A    
C46   H23   S    
C81   H27   S    
C88   H60   S    
C19   C78   A    
C24   C32   A    
C82   H31   S    
C5    C9    A    
C12   O19   A    
C52   C59   A    
C15   C89   A    
C42   O9    S    
C47   H12   S    
C57   H56   S    
C75   H5    S    
C51   C58   A    
C70   C83   S    
C91   H66   S    
C16   O20   A    
C85   H41   S    
H19   O6    S    
C48   N4    A    
C4    C17   S    
C30   C35   A    
C92   H69   S    
C73   H71   S    
C21   C28   A    
C7    C19   A    
C13   C15   A    
C9    C34   A    
C3    C66   A    
C90   H62   S    
C27   C76   S    
C24   O6    S    
C85   H43   S    
C39   C92   S    
C78   C85   S    
C33   C37   A    
C1    O18   A    
C92   H68   S    
C13   O17   S    
C7    C9    A    
C60   C89   A    
C54   C55   A    
Cu1   O1    S    
C1    C20   S    
C74   H4    S    
C79   H16   S    
C2    C34   A    
C25   C79   S    
C77   H14   S    
Cu1   O23   S    
C36   O7    S    
C59   C81   S    
C24   C26   A    
C73   H72   S    
C79   H17   S    
C88   H58   S    
C5    C8    A    
C14   O14   S    
C5    C11   A    
C6    C7    A    
C20   C27   A    
Cu1   O19   S    
C10   C23   A    
C31   C38   A    
C62   C64   A    
C81   H28   S    
C61   N2    A    
C88   H59   S    
C90   H63   S    
C36   C38   A    
C83   H37   S    
C18   C67   A    
C28   C30   A    
C29   C31   A    
C19   C90   S    
C6    C13   A    
C30   C32   A    
C92   H70   S    
C49   C53   A    
C12   C21   S    
C77   H11   S    
C75   H6    S    
C33   C35   A    
C84   H38   S    
C62   C71   A    
C87   H48   S    
C2    C14   A    
C43   C46   A    
Cu2   O22   S    
C82   H33   S    
H30   O10   S    
H21   O8    S    
C18   C88   S    
C6    C10   A    
C86   H44   S    
C85   H42   S    
H55   O16   S    
H18   O5    S    
C63   C72   A    
C37   C39   A    
C55   C58   A    
C75   H7    S    
C68   C70   A    
C58   C80   S    
C70   C72   A    
Cu2   O12   S    
C87   H49   S    
C90   H61   S    
C28   C75   S    
C84   H39   S    
Cu1   O20   S    
C3    C16   S    
C86   H47   S    
