data_mof_unit_12440.cif
_audit_creation_date              2012-12-11T15:47:04-0500
_audit_creation_method            fapswitch 2.2
_symmetry_space_group_name_H-M    P1
_symmetry_Int_Tables_number       1
_space_group_crystal_system       triclinic
_cell_length_a                    20.080046
_cell_length_b                    7.259015
_cell_length_c                    13.590637
_cell_angle_alpha                 90.000154
_cell_angle_beta                  102.9752
_cell_angle_gamma                 90.000249
_cell_volume                      1930.40973371

loop_
_atom_site_label
_atom_site_type_symbol
_atom_type_description
_atom_site_fract_x
_atom_site_fract_y
_atom_site_fract_z
_atom_type_partial_charge
O1    O     O_R   0.449560 0.506810 0.599700 -0.546267
O2    O     O_R   0.550440 0.006810 0.400300 -0.546237
O3    O     O_R   0.587960 0.180060 0.595760 -0.548453
O4    O     O_R   0.412040 0.680060 0.404240 -0.548506
C1    C     C_R   0.615634 0.344340 0.615529 0.802700
C2    C     C_R   0.384366 0.844339 0.384471 0.802749
O5    O     O_R   0.452380 0.177430 0.611700 -0.503299
O6    O     O_R   0.547620 0.677430 0.388300 -0.503309
O7    O     O_R   0.413900 0.001890 0.416350 -0.504142
O8    O     O_R   0.586100 0.501890 0.583650 -0.504272
C3    C     C_R   0.437697 0.345745 0.639295 0.851735
C4    C     C_R   0.562302 0.845744 0.360705 0.851789
O9    O     O_3   0.487530 0.337490 0.435890 -0.374848
O10   O     O_3   0.512470 0.837490 0.564110 -0.374928
V1    V     V_3+5 0.502310 0.064660 0.511890 1.714893
V2    V     V_3+5 0.497690 0.564660 0.488110 1.714750
C5    C     C_R   0.607935 0.802972 0.106735 -0.172012
C6    C     C_R   0.392065 0.303000 0.893266 -0.172040
H1    H     H_    0.692918 0.773363 0.983921 0.153646
H2    H     H_    0.307083 0.273400 0.016081 0.153702
H3    H     H_    0.583690 0.772654 0.028856 0.213133
H4    H     H_    0.416311 0.272696 0.971147 0.213145
C7    C     C_R   0.599960 0.851990 0.279925 -0.185753
C8    C     C_R   0.400039 0.351993 0.720074 -0.185719
C9    C     C_R   0.928809 0.907507 0.313414 -0.174788
C10   C     C_R   0.071190 0.407497 0.686585 -0.174770
C11   C     C_R   0.891760 0.937976 0.386639 -0.093759
C12   C     C_R   0.108239 0.437961 0.613359 -0.093750
C13   C     C_R   0.820701 0.928629 0.362006 -0.073782
C14   C     C_R   0.179298 0.428618 0.637991 -0.073730
C15   C     C_R   0.784621 0.881852 0.263184 0.085968
C16   C     C_R   0.215378 0.381850 0.736815 0.085997
C17   C     C_R   0.822952 0.853072 0.187995 0.064552
C18   C     C_R   0.177047 0.353078 0.812005 0.064526
C19   C     C_R   0.711868 0.864888 0.236286 0.071384
C20   C     C_R   0.288132 0.364891 0.763713 0.071418
C21   C     C_R   0.679117 0.824686 0.134698 0.037284
C22   C     C_R   0.320883 0.324704 0.865302 0.037246
C23   C     C_R   0.717633 0.803194 0.061729 -0.146759
C24   C     C_R   0.282368 0.303219 0.938272 -0.146730
C25   C     C_R   0.788382 0.816053 0.087861 -0.198340
C26   C     C_R   0.211619 0.316071 0.912140 -0.198325
C27   C     C_R   0.670569 0.880759 0.307397 -0.187929
C28   C     C_R   0.329430 0.380753 0.692600 -0.187918
C29   C     C_R   0.568031 0.814469 0.178597 0.454785
C30   C     C_R   0.431969 0.314491 0.821403 0.454809
C31   C     C_R   0.895210 0.866862 0.214178 -0.074603
C32   C     C_R   0.104790 0.366861 0.785821 -0.074604
H5    H     H_    0.691940 0.907491 0.386047 0.188878
H6    H     H_    0.308059 0.407473 0.613950 0.188779
H7    H     H_    0.983936 0.921845 0.333396 0.121252
H8    H     H_    0.016063 0.421831 0.666603 0.121255
H9    H     H_    0.795636 0.962869 0.421674 0.164089
H10   H     H_    0.204362 0.462850 0.578322 0.163978
H11   H     H_    0.918237 0.973625 0.462745 0.139117
H12   H     H_    0.081761 0.473602 0.537253 0.139088
H13   H     H_    0.815784 0.795916 0.028601 0.120197
H14   H     H_    0.184216 0.295939 0.971400 0.120207
C33   C     C_R   0.200665 0.987289 0.263487 -0.224813
C34   C     C_R   0.799331 0.487313 0.736528 -0.224745
H15   H     H_    0.163246 0.089166 0.273114 0.170376
H16   H     H_    0.836747 0.589208 0.726914 0.170437
C35   C     C_R   0.264639 0.982799 0.331480 0.410110
C36   C     C_R   0.735357 0.482832 0.668536 0.409482
C37   C     C_R   0.314364 0.851618 0.317953 -0.136637
C38   C     C_R   0.685636 0.351624 0.682047 -0.136448
C39   C     C_R   0.295979 0.721170 0.239768 -0.161830
C40   C     C_R   0.704024 0.221153 0.760220 -0.161447
H17   H     H_    0.332283 0.617764 0.228045 0.181970
H18   H     H_    0.667722 0.117738 0.771938 0.181730
C41   C     C_R   0.230907 0.722640 0.175251 -0.147964
C42   C     C_R   0.769096 0.222619 0.824737 -0.147891
H19   H     H_    0.218592 0.620696 0.115707 0.129819
H20   H     H_    0.781413 0.120659 0.884272 0.129756
C43   C     C_R   0.182984 0.857518 0.185758 -0.099213
C44   C     C_R   0.817016 0.357516 0.814242 -0.099195
O11   O     O_R   0.913920 0.203370 0.916260 -0.536099
O12   O     O_R   0.086080 0.703370 0.083740 -0.536112
O13   O     O_R   0.047620 0.535540 0.888290 -0.538177
O14   O     O_R   0.952380 0.035540 0.111710 -0.538180
C45   C     C_R   0.064253 0.368900 0.862925 0.682002
C46   C     C_R   0.935747 0.868900 0.137075 0.681989
O15   O     O_R   0.912040 0.532780 0.904220 -0.545718
O16   O     O_R   0.087960 0.032780 0.095780 -0.545709
O17   O     O_R   0.949550 0.708160 0.099720 -0.536332
O18   O     O_R   0.050450 0.208160 0.900280 -0.536326
C47   C     C_R   0.885496 0.364614 0.883478 0.701534
C48   C     C_R   0.114504 0.864615 0.116522 0.701545
O19   O     O_3   0.012480 0.375300 0.064060 -0.377256
O20   O     O_3   0.987520 0.875300 0.935940 -0.377244
V3    V     V_3+5 0.997690 0.648180 0.988110 1.435373
V4    V     V_3+5 0.002310 0.148180 0.011890 1.435386
S1    S     S_3+6 0.478767 0.779082 0.139972 -0.014607
O21   O     O_2   0.460963 0.599240 0.182488 -0.352769
O22   O     O_2   0.441893 0.933006 0.179239 -0.367950
O23   O     O_3   0.454245 0.772623 0.013215 -0.480061
H21   H     H_    0.405202 0.738878 0.998768 0.363665
S2    S     S_3+6 0.521235 0.279127 0.860029 -0.014652
O24   O     O_2   0.539045 0.099289 0.817517 -0.352791
O25   O     O_2   0.558103 0.433061 0.820761 -0.368022
O26   O     O_3   0.545756 0.272676 0.986786 -0.480065
H22   H     H_    0.594809 0.239055 0.001236 0.363665
S3    S     S_3+6 0.277076 0.133068 0.436553 -0.051466
O27   O     O_2   0.209640 0.207074 0.449280 -0.369831
O28   O     O_2   0.310612 0.030783 0.530815 -0.339643
O29   O     O_3   0.327101 0.309966 0.418849 -0.511501
H23   H     H_    0.302057 0.370036 0.355973 0.318217
S4    S     S_3+6 0.722913 0.633172 0.563492 -0.051259
O30   O     O_2   0.790343 0.707297 0.550806 -0.369604
O31   O     O_2   0.689409 0.530891 0.469211 -0.339632
O32   O     O_3   0.672854 0.809993 0.581198 -0.511292
H24   H     H_    0.697617 0.869160 0.644544 0.317943

loop_
_geom_bond_atom_site_label_1
_geom_bond_atom_site_label_2
_ccdc_geom_bond_type
O15   C47   A    
C35   C37   A    
O11   V4    S    
O4    V2    S    
S1    O21   D    
C7    C29   A    
C11   C13   A    
C38   C40   A    
O32   H24   S    
O1    C3    A    
C42   C44   A    
O2    C4    A    
C26   H14   S    
C2    O7    A    
C12   H12   S    
C23   C25   A    
S4    O30   D    
O5    C3    A    
C14   H10   S    
C4    C7    S    
O26   H22   S    
C16   C20   A    
C19   C21   A    
C5    C29   A    
H2    C24   S    
C11   H11   S    
O29   H23   S    
O12   C48   A    
C3    C8    S    
C7    C27   A    
C32   C45   S    
C34   H16   S    
C31   C46   S    
C2    C37   S    
C37   C39   A    
C18   C26   A    
C15   C17   A    
C14   C16   A    
C35   S3    S    
C19   C27   A    
C9    C31   A    
O13   V3    S    
C45   O18   A    
C10   C32   A    
C24   C26   A    
C30   S2    S    
C29   S1    S    
O6    V2    S    
C6    C30   A    
C36   S4    S    
O17   V3    S    
C21   C23   A    
C41   C43   A    
C33   H15   S    
C42   H20   S    
C41   H19   S    
C27   H5    S    
O5    V1    S    
C34   C44   A    
C5    H3    S    
C40   C42   A    
C39   H17   S    
C16   C18   A    
O14   V4    S    
C9    H7    S    
C10   H8    S    
O6    C4    A    
O23   H21   S    
S3    O28   D    
O1    V2    S    
C5    C21   A    
O19   V4    S    
O2    V1    S    
C44   C47   S    
H1    C23   S    
O4    C2    A    
S1    O23   S    
S2    O25   D    
C17   C31   A    
C15   C19   A    
C20   C28   A    
C18   C32   A    
C46   O17   A    
C33   C43   A    
O3    V1    S    
O13   C45   A    
C28   H6    S    
C6    H4    S    
C33   C35   A    
O16   C48   A    
C1    C38   S    
O3    C1    A    
O12   V3    S    
C9    C11   A    
S2    O26   S    
O15   V3    S    
C10   C12   A    
S4    O32   S    
C34   C36   A    
C8    C30   A    
C20   C22   A    
C6    C22   A    
C17   C25   A    
C1    O8    A    
C13   C15   A    
O8    V2    S    
C22   C24   A    
O20   V3    S    
C13   H9    S    
C8    C28   A    
C12   C14   A    
O14   C46   A    
S4    O31   D    
S3    O29   S    
C39   C41   A    
O7    V1    S    
C25   H13   S    
C43   C48   S    
O11   C47   A    
S1    O22   D    
S2    O24   D    
O9    V2    S    
S3    O27   D    
C40   H18   S    
O10   V1    S    
O18   V4    S    
O16   V4    S    
C36   C38   A    
