data_mof_unit_8283.cif
_audit_creation_date              2012-12-10T17:54:19-0500
_audit_creation_method            fapswitch 2.2
_symmetry_space_group_name_H-M    P1
_symmetry_Int_Tables_number       1
_space_group_crystal_system       triclinic
_cell_length_a                    27.684413
_cell_length_b                    10.654121
_cell_length_c                    9.869799
_cell_angle_alpha                 89.884538
_cell_angle_beta                  89.429275
_cell_angle_gamma                 91.320578
_cell_volume                      2910.20274564

loop_
_atom_site_label
_atom_site_type_symbol
_atom_type_description
_atom_site_fract_x
_atom_site_fract_y
_atom_site_fract_z
_atom_type_partial_charge
C1    C     C_R   0.503020 0.259377 0.500837 0.871722
C2    C     C_R   0.277698 0.490323 0.382001 -0.105039
C3    C     C_R   0.252639 0.475055 0.504712 0.273815
C4    C     C_R   0.101607 0.480549 0.487296 -0.054130
C5    C     C_R   0.125732 0.366731 0.469489 -0.024711
C6    C     C_R   0.099140 0.256579 0.442957 -0.122134
C7    C     C_R   0.128243 0.591054 0.517180 -0.024887
C8    C     C_R   0.353271 0.489975 0.502262 -0.048794
C9    C     C_R   0.646803 0.500980 0.496246 -0.045434
C10   C     C_R   0.972877 0.373787 0.465872 0.056981
C11   C     C_R   0.977168 0.605056 0.456877 -0.016789
C12   C     C_R   0.406005 0.497809 0.500645 0.869155
C13   C     C_R   0.949641 0.491497 0.462161 0.062464
C14   C     C_R   0.944345 0.263066 0.479861 -0.210083
C15   C     C_R   0.894490 0.267720 0.487963 -0.124587
C16   C     C_R   0.871318 0.382551 0.480454 -0.014645
C17   C     C_R   0.898627 0.495300 0.464712 -0.061574
C18   C     C_R   0.874908 0.611147 0.453107 -0.082745
C19   C     C_R   0.823935 0.609957 0.465329 0.511297
C20   C     C_R   0.821093 0.386896 0.488947 0.507933
C21   C     C_R   0.721653 0.513160 0.367801 -0.102676
C22   C     C_R   0.671552 0.513234 0.371784 -0.206963
C23   C     C_R   0.492969 0.738105 0.500682 0.899053
C24   C     C_R   0.672921 0.488946 0.616666 -0.215572
C25   C     C_R   0.723163 0.488464 0.612214 -0.096000
C26   C     C_R   0.747400 0.500550 0.487757 0.324464
C27   C     C_R   0.023885 0.370688 0.458884 0.044054
C28   C     C_R   0.050823 0.483874 0.475879 0.079727
C29   C     C_R   0.027358 0.600345 0.483549 0.048545
C30   C     C_R   0.049013 0.258128 0.438584 -0.213159
C31   C     C_R   0.104123 0.702875 0.540274 -0.126938
C32   C     C_R   0.953535 0.717706 0.422434 -0.062709
C33   C     C_R   0.902732 0.721923 0.425322 -0.047734
C34   C     C_R   0.594013 0.500391 0.499237 0.882564
C35   C     C_R   0.054371 0.706944 0.525807 -0.195760
C36   C     C_R   0.518453 0.107144 0.753340 -0.151425
C37   C     C_R   0.506244 0.048091 0.875450 -0.167517
C38   C     C_R   0.476610 0.941033 0.875314 -0.185296
C39   C     C_R   0.463653 0.884871 0.752533 0.028453
C40   C     C_R   0.481901 0.935878 0.628126 0.055434
C41   C     C_R   0.501795 0.057558 0.628637 0.085224
C42   C     C_R   0.503263 0.124360 0.503924 -0.111395
C43   C     C_R   0.495494 0.062209 0.381108 -0.207304
C44   C     C_R   0.487437 0.935086 0.380569 -0.191508
C45   C     C_R   0.176158 0.366532 0.477421 0.518170
C46   C     C_R   0.483386 0.870375 0.503341 -0.131130
C47   C     C_R   0.437695 0.333244 0.142121 -0.247773
C48   C     C_R   0.407382 0.249327 0.073162 -0.049316
C49   C     C_R   0.407185 0.250126 0.931734 -0.032486
C50   C     C_R   0.437443 0.334464 0.861298 -0.228065
C51   C     C_R   0.469186 0.418087 0.928566 0.151612
C52   C     C_R   0.469258 0.417839 0.073219 0.158497
C53   C     C_R   0.529237 0.578903 0.070646 -0.124285
C54   C     C_R   0.529227 0.578855 0.927231 -0.117439
C55   C     C_R   0.178519 0.586282 0.525257 0.520235
C56   C     C_R   0.277750 0.465040 0.626984 0.047043
C57   C     C_R   0.328048 0.472389 0.625315 -0.228669
C58   C     C_R   0.327796 0.497571 0.380495 -0.205124
H1    H     H_    0.346479 0.510103 0.284295 0.171997
H2    H     H_    0.123545 0.787699 0.570005 0.196364
H3    H     H_    0.743298 0.478712 0.704999 0.138240
H4    H     H_    0.037290 0.793514 0.553263 0.158119
H5    H     H_    0.258153 0.498180 0.287962 0.151398
H6    H     H_    0.463633 0.902258 0.970926 0.141817
H7    H     H_    0.553092 0.643217 0.123973 0.147952
H8    H     H_    0.553043 0.643217 0.872223 0.154181
H9    H     H_    0.116930 0.168289 0.426582 0.195875
H10   H     H_    0.874132 0.180408 0.501034 0.202078
H11   H     H_    0.030861 0.170221 0.415531 0.160252
H12   H     H_    0.347365 0.464423 0.719858 0.170151
N1    N     N_R   0.201194 0.475459 0.504046 -0.359928
N2    N     N_R   0.798806 0.499234 0.482301 -0.357844
N3    N     N_R   0.499540 0.498800 0.142780 -0.114280
N4    N     N_R   0.499520 0.498720 0.857170 -0.118083
O1    O     O_R   0.500000 0.316780 0.614690 -0.650774
O2    O     O_2   0.794499 0.279755 0.503372 -0.544869
O3    O     O_2   0.204712 0.691466 0.552692 -0.536521
O4    O     O_2   0.799296 0.717654 0.462050 -0.541606
O5    O     O_R   0.500000 0.316750 0.385360 -0.638546
O6    O     O_R   0.428760 0.500030 0.614650 -0.633035
O7    O     O_R   0.428750 0.500010 0.385320 -0.642124
O8    O     O_R   0.500000 0.683250 0.614640 -0.617358
O9    O     O_R   0.500000 0.683220 0.385310 -0.618414
O10   O     O_R   0.571250 0.499990 0.614680 -0.621629
O11   O     O_R   0.571240 0.499970 0.385350 -0.616665
O12   O     O_2   0.200084 0.258910 0.458500 -0.536725
Zn1   Zn    Zn3+2 0.500000 0.500020 0.653130 0.941192
Zn2   Zn    Zn3+2 0.500000 0.499980 0.346870 0.940897
C59   C     C_1   0.252322 0.448033 0.754214 0.205217
N5    N     N_1   0.231911 0.434380 0.856259 -0.177670
C60   C     C_1   0.980411 0.824376 0.364993 0.150440
N6    N     N_1   0.001615 0.909354 0.318852 -0.208936
H13   H     H_    0.654617 0.479255 0.713745 0.161029
C61   C     C_1   0.880164 0.840334 0.394346 0.290282
N7    N     N_1   0.862435 0.934872 0.369436 -0.162380
H14   H     H_    0.496565 0.111087 0.284676 0.168771
H15   H     H_    0.541581 0.190074 0.758206 0.168820
H16   H     H_    0.517822 0.088920 0.970453 0.147378
C62   C     C_1   0.425950 0.788990 0.756693 0.206741
N8    N     N_1   0.395307 0.713411 0.761507 -0.181402
H17   H     H_    0.486128 0.887182 0.283851 0.167421
H18   H     H_    0.435442 0.329499 0.249565 0.219737
C63   C     C_1   0.376691 0.163205 0.150150 0.177617
N9    N     N_1   0.352175 0.094271 0.211961 -0.155809
C64   C     C_1   0.376345 0.164819 0.856228 0.181681
N10   N     N_1   0.351737 0.096513 0.795573 -0.161795
H19   H     H_    0.435198 0.331620 0.753947 0.216907
H20   H     H_    0.652294 0.523012 0.277500 0.161869
H21   H     H_    0.740584 0.522381 0.271612 0.136883
H22   H     H_    0.959675 0.171486 0.490698 0.150439

loop_
_geom_bond_atom_site_label_1
_geom_bond_atom_site_label_2
_ccdc_geom_bond_type
C10   C27   A    
C21   C26   A    
C23   O8    A    
C45   N1    A    
C26   N2    S    
C41   C42   A    
O10   Zn1   S    
C7    C55   A    
C33   C61   S    
C19   N2    A    
C53   C54   A    
C40   C46   A    
C23   O9    A    
C28   C29   A    
O6    Zn1   S    
C38   C39   A    
C55   O3    S    
C9    C22   A    
C32   C60   S    
C15   C16   A    
C56   C57   A    
C20   O2    S    
C18   C19   A    
C37   H16   S    
C8    C58   A    
C54   N4    A    
C47   C48   A    
C16   C17   A    
C12   O7    A    
C51   N4    A    
C36   H15   S    
N4    Zn1   S    
C53   H7    S    
C16   C20   A    
O9    Zn2   S    
C23   C46   S    
C21   C22   A    
C27   C30   A    
C36   C41   A    
C34   O10   A    
C4    C7    A    
O5    Zn2   S    
C4    C28   A    
C44   C46   A    
C50   C51   A    
C38   H6    S    
C7    C31   A    
C51   C52   A    
C1    O1    A    
C24   C25   A    
C52   N3    A    
C10   C14   A    
C60   N6    T    
C49   C64   S    
C58   H1    S    
C48   C63   S    
C5    C45   A    
C34   O11   A    
C31   H2    S    
C19   O4    S    
C3    N1    S    
C43   C44   A    
N3    Zn2   S    
C37   C38   A    
C8    C57   A    
C43   H14   S    
C3    C56   A    
C39   C62   S    
C62   N8    T    
C8    C12   S    
C17   C18   A    
C25   H3    S    
O1    Zn1   S    
C40   C41   A    
C6    C30   A    
C11   C32   A    
C50   H19   S    
C1    O5    A    
C31   C35   A    
C42   C43   A    
C39   C40   A    
C30   H11   S    
C2    H5    S    
O11   Zn2   S    
C14   H22   S    
C56   C59   S    
C48   C49   A    
C53   N3    A    
C4    C5    A    
C10   C13   A    
C21   H21   S    
C44   H17   S    
C2    C58   A    
C9    C24   A    
C47   C52   A    
C54   H8    S    
C64   N10   T    
C29   C35   A    
C13   C17   A    
C32   C33   A    
C2    C3    A    
C25   C26   A    
C6    H9    S    
C24   H13   S    
C11   C13   A    
C5    C6    A    
C22   H20   S    
C15   H10   S    
C12   O6    A    
C9    C34   S    
C45   O12   S    
C35   H4    S    
C61   N7    T    
C18   C33   A    
O7    Zn2   S    
C57   H12   S    
C1    C42   S    
C11   C29   A    
C36   C37   A    
C49   C50   A    
C63   N9    T    
C47   H18   S    
C14   C15   A    
C20   N2    A    
C59   N5    T    
C55   N1    A    
O8    Zn1   S    
C27   C28   A    
