data_mof_unit_26780.cif
_audit_creation_date              2012-12-10T16:45:23-0500
_audit_creation_method            fapswitch 2.2
_symmetry_space_group_name_H-M    P1
_symmetry_Int_Tables_number       1
_space_group_crystal_system       triclinic
_cell_length_a                    7.414468
_cell_length_b                    8.740701
_cell_length_c                    15.792966
_cell_angle_alpha                 94.036519
_cell_angle_beta                  75.201091
_cell_angle_gamma                 102.466519
_cell_volume                      966.09601674

loop_
_atom_site_label
_atom_site_type_symbol
_atom_type_description
_atom_site_fract_x
_atom_site_fract_y
_atom_site_fract_z
_atom_type_partial_charge
C1    C     C_R   0.540869 0.798992 0.505417 0.884690
C2    C     C_R   0.459133 0.201008 0.494579 0.884705
C3    C     C_R   0.300270 0.354153 0.068613 0.171035
C4    C     C_R   0.699741 0.645858 0.931385 0.171039
C5    C     C_R   0.159700 0.343374 0.022862 -0.222272
C6    C     C_R   0.840306 0.656640 0.977140 -0.222275
C7    C     C_2   0.546467 0.962865 0.521310 -0.031691
C8    C     C_2   0.453536 0.037135 0.478683 -0.031721
C9    C     C_R   0.384140 0.488370 0.666399 0.787968
C10   C     C_R   0.615860 0.511631 0.333601 0.787960
C11   C     C_R   0.314229 0.474326 0.761910 -0.063214
C12   C     C_R   0.685773 0.525679 0.238090 -0.063211
C13   C     C_R   0.068377 0.377841 0.890232 -0.178210
C14   C     C_R   0.931625 0.622175 0.109771 -0.178213
C15   C     C_R   0.122393 0.414530 0.801580 -0.190370
C16   C     C_R   0.877607 0.585481 0.198422 -0.190370
C17   C     C_R   0.446509 0.510375 0.813429 -0.242885
C18   C     C_R   0.553496 0.489630 0.186570 -0.242892
C19   C     C_R   0.391312 0.491262 0.904392 0.082503
C20   C     C_R   0.608694 0.508750 0.095608 0.082500
C21   C     C_R   0.203778 0.409137 0.940664 0.103049
C22   C     C_R   0.796226 0.590878 0.059338 0.103049
C23   C     C_R   0.523113 0.535285 0.958049 -0.003928
C24   C     C_R   0.476895 0.464727 0.041950 -0.003924
Cu1   Cu    Cu3+1 0.322120 0.483240 0.490330 0.935190
Cu2   Cu    Cu3+1 0.677880 0.516760 0.509670 0.935191
H1    H     H_    0.021316 0.267591 0.046870 0.156190
H2    H     H_    0.978691 0.732422 0.953132 0.156190
H3    H     H_    0.404484 0.456196 0.218935 0.178041
H4    H     H_    0.595522 0.543801 0.781063 0.178040
H5    H     H_    0.982511 0.614431 0.236898 0.156416
H6    H     H_    0.017487 0.385579 0.763105 0.156413
H7    H     H_    0.922823 0.318918 0.918453 0.140372
H8    H     H_    0.077177 0.681100 0.081552 0.140371
H9    H     H_    0.004392 0.615070 0.568390 0.225908
H10   H     H_    0.995607 0.384929 0.431610 0.225909
N1    N     N_2   0.945180 0.542040 0.524240 -0.220398
N2    N     N_2   0.054820 0.457960 0.475760 -0.220395
O1    O     O_R   0.384450 0.714270 0.493720 -0.590974
O2    O     O_R   0.615550 0.285730 0.506280 -0.590973
O3    O     O_R   0.684880 0.742590 0.510050 -0.580995
O4    O     O_R   0.315120 0.257410 0.489950 -0.580995
O5    O     O_R   0.265540 0.477900 0.617090 -0.589501
O6    O     O_R   0.734460 0.522100 0.382910 -0.589503
O7    O     O_R   0.565970 0.506210 0.633420 -0.587461
O8    O     O_R   0.434030 0.493790 0.366580 -0.587463
C25   C     C_3   0.263765 0.227739 0.135202 -0.892614
H11   H     H_    0.397391 0.208954 0.148203 0.238466
H12   H     H_    0.163592 0.255766 0.196769 0.229757
H13   H     H_    0.197742 0.113399 0.109536 0.234044
C26   C     C_3   0.736262 0.772259 0.864786 -0.892610
H14   H     H_    0.836429 0.744213 0.803221 0.229756
H15   H     H_    0.602643 0.791055 0.851783 0.238466
H16   H     H_    0.802298 0.886602 0.890444 0.234043
C27   C     C_3   0.639904 0.037995 0.593622 -0.845469
H17   H     H_    0.669314 0.948634 0.632097 0.224215
H18   H     H_    0.778385 0.116727 0.565169 0.263850
H19   H     H_    0.544250 0.103977 0.640650 0.228283
C28   C     C_3   0.360042 0.961994 0.406391 -0.845433
H20   H     H_    0.330614 0.051350 0.367911 0.224210
H21   H     H_    0.455674 0.895995 0.359358 0.228290
H22   H     H_    0.221566 0.883279 0.434869 0.263854

loop_
_geom_bond_atom_site_label_1
_geom_bond_atom_site_label_2
_ccdc_geom_bond_type
Cu1   O4    S    
C14   H8    S    
C19   C23   A    
C23   C24   A    
Cu2   N1    S    
C13   H7    S    
N1    N2    D    
C6    H2    S    
Cu1   N2    S    
C25   H11   S    
C13   C15   A    
C7    C27   S    
C27   H17   S    
C26   H16   S    
Cu1   O5    S    
C11   C15   A    
H10   N2    S    
C13   C21   A    
C7    C8    D    
C25   H12   S    
C18   H3    S    
C1    C7    S    
Cu1   O1    S    
C16   H5    S    
C9    O7    A    
C17   H4    S    
C9    C11   S    
Cu2   O2    S    
C3    C24   A    
C10   C12   S    
C2    O4    A    
C12   C18   A    
C3    C25   S    
C19   C21   A    
C20   C22   A    
C25   H13   S    
C18   C20   A    
C27   H18   S    
C8    C28   S    
C14   C22   A    
C14   C16   A    
C9    O5    A    
C28   H21   S    
C1    O1    A    
C4    C26   S    
Cu2   O6    S    
C26   H14   S    
C6    C22   A    
C2    O2    A    
C10   O8    A    
C28   H20   S    
C5    C21   A    
C26   H15   S    
H9    N1    S    
C4    C6    A    
C27   H19   S    
C1    O3    A    
C4    C23   A    
C20   C24   A    
C11   C17   A    
C28   H22   S    
Cu2   O7    S    
C17   C19   A    
Cu1   Cu2   S    
C5    H1    S    
C10   O6    A    
Cu1   O8    S    
C2    C8    S    
C12   C16   A    
Cu2   O3    S    
C3    C5    A    
C15   H6    S    
