data_mof_unit_58398.cif
_audit_creation_date              2012-12-10T19:00:10-0500
_audit_creation_method            fapswitch 2.2
_symmetry_space_group_name_H-M    P1
_symmetry_Int_Tables_number       1
_space_group_crystal_system       triclinic
_cell_length_a                    9.541939
_cell_length_b                    10.817259
_cell_length_c                    13.424914
_cell_angle_alpha                 90.161801
_cell_angle_beta                  72.337305
_cell_angle_gamma                 90.037184
_cell_volume                      1320.36006762

loop_
_atom_site_label
_atom_site_type_symbol
_atom_type_description
_atom_site_fract_x
_atom_site_fract_y
_atom_site_fract_z
_atom_type_partial_charge
C1    C     C_R   0.499171 0.737693 0.502101 0.805535
C2    C     C_R   0.435808 0.490744 0.979091 0.033394
C3    C     C_R   0.467526 0.456269 0.872731 0.051014
C4    C     C_R   0.542696 0.467406 0.031190 0.042059
C5    C     C_R   0.672448 0.399494 0.979882 0.163216
C6    C     C_R   0.694211 0.354880 0.878163 0.105237
C7    C     C_R   0.591472 0.381609 0.826533 -0.243978
C8    C     C_R   0.524642 0.510194 0.133132 -0.239528
C9    C     C_R   0.750436 0.411578 0.135924 -0.246480
C10   C     C_R   0.373187 0.496111 0.815376 -0.122953
C11   C     C_R   0.369121 0.936343 0.512144 0.118429
C12   C     C_R   0.421137 0.495487 0.700267 0.794558
C13   C     C_R   0.494781 0.870810 0.512739 -0.097476
C14   C     C_R   0.614225 0.935740 0.528251 -0.212718
C15   C     C_R   0.614266 0.064644 0.528102 -0.224330
C16   C     C_R   0.494888 0.129256 0.512391 -0.095782
C17   C     C_R   0.369247 0.063544 0.511850 0.135371
C18   C     C_3   0.280567 0.069524 0.437439 -0.475165
C19   C     C_3   0.280053 0.929155 0.438011 -0.457390
C20   C     C_R   0.948227 0.409717 0.448226 0.251571
C21   C     C_R   0.900303 0.581671 0.559315 -0.075018
C22   C     C_R   0.049225 0.581676 0.559330 -0.089039
C23   C     C_R   0.499237 0.262306 0.501869 0.794342
C24   C     C_R   0.095683 0.409699 0.448165 0.255639
C25   C     C_3   0.149564 0.382452 0.333830 -0.489579
C26   C     C_3   0.990615 0.382520 0.334124 -0.517149
C27   C     C_R   0.578756 0.497177 0.299974 0.803567
C28   C     C_R   0.776412 0.374668 0.032561 -0.170320
C29   C     C_R   0.623163 0.477704 0.186904 -0.040414
C30   C     C_R   0.237379 0.550478 0.867845 -0.219770
C31   C     C_R   0.197732 0.572620 0.975241 0.208261
C32   C     C_R   0.297367 0.545544 0.029642 -0.177569
Cu1   Cu    Cu3+1 0.359330 0.500020 0.500010 0.938242
Cu2   Cu    Cu3+1 0.640670 0.499980 0.499990 0.934688
H1    H     H_    0.826877 0.384097 0.176962 0.149170
H2    H     H_    0.710268 0.112949 0.535213 0.160052
H3    H     H_    0.169965 0.110476 0.474025 0.194864
H4    H     H_    0.343174 0.109474 0.360562 0.195534
H5    H     H_    0.169213 0.889084 0.475249 0.195516
H6    H     H_    0.341853 0.887574 0.361415 0.200384
H7    H     H_    0.824717 0.649387 0.605685 0.140287
H8    H     H_    0.085379 0.649365 0.605700 0.137012
H9    H     H_    0.213781 0.459652 0.287475 0.214421
H10   H     H_    0.202508 0.290161 0.316808 0.192480
H11   H     H_    0.965291 0.460152 0.288325 0.213914
H12   H     H_    0.951382 0.290167 0.317659 0.193605
H13   H     H_    0.875763 0.322903 0.995484 0.176808
H14   H     H_    0.433449 0.568067 0.173902 0.135893
H15   H     H_    0.163887 0.579456 0.824648 0.149952
H16   H     H_    0.260736 0.565783 0.112087 0.130691
H17   H     H_    0.608910 0.339855 0.750485 0.168559
H18   H     H_    0.710215 0.887636 0.535415 0.160150
N1    N     N_R   0.852320 0.499070 0.499340 -0.184599
N2    N     N_R   0.148230 0.499110 0.499340 -0.183232
O1    O     O_R   0.381190 0.680360 0.500000 -0.581107
O2    O     O_R   0.618780 0.680320 0.499990 -0.583263
O3    O     O_R   0.323230 0.500000 0.650990 -0.581187
O4    O     O_R   0.560820 0.499960 0.650980 -0.584474
O5    O     O_R   0.381220 0.319680 0.500010 -0.575971
O6    O     O_R   0.618810 0.319640 0.500000 -0.591620
O7    O     O_R   0.439180 0.500040 0.349020 -0.584376
O8    O     O_R   0.676770 0.500000 0.349010 -0.579026
N3    N     N_3   0.821127 0.282068 0.826411 -0.613645
H19   H     H_    0.785117 0.196986 0.806209 0.220029
H20   H     H_    0.878568 0.327170 0.757243 0.224227
N4    N     N_3   0.059282 0.628746 0.029777 -0.588587
H21   H     H_    0.995738 0.641066 0.979336 0.219641
H22   H     H_    0.001756 0.566777 0.087251 0.217432

loop_
_geom_bond_atom_site_label_1
_geom_bond_atom_site_label_2
_ccdc_geom_bond_type
C6    N3    S    
Cu1   O1    S    
C31   N4    S    
C2    C4    A    
N3    H20   S    
C28   H13   S    
Cu2   O2    S    
C6    C7    A    
C27   O8    A    
C27   C29   S    
C5    C28   A    
C14   H18   S    
C10   C30   A    
N4    H22   S    
C31   C32   A    
Cu2   O6    S    
C17   C18   S    
C9    C29   A    
C30   C31   A    
C4    C8    A    
C12   O4    A    
C25   H9    S    
C8    H14   S    
C2    C3    A    
C18   H4    S    
C7    H17   S    
Cu1   O5    S    
C3    C10   A    
C8    C29   A    
C13   C14   A    
C23   O5    A    
C11   C13   A    
C11   C19   S    
C22   H8    S    
C20   C26   S    
Cu1   O7    S    
C21   H7    S    
C5    C6    A    
C21   N1    A    
C25   H10   S    
C2    C32   A    
C30   H15   S    
Cu1   Cu2   S    
C32   H16   S    
C16   C23   S    
C3    C7    A    
C22   N2    A    
C1    O1    A    
C23   O6    A    
C10   C12   S    
C9    H1    S    
C1    C13   S    
C19   H6    S    
C12   O3    A    
C24   N2    A    
N3    H19   S    
C16   C17   A    
C20   C24   A    
C15   H2    S    
Cu2   O8    S    
N4    H21   S    
C24   C25   S    
Cu2   N1    S    
C19   H5    S    
C18   C19   S    
Cu1   N2    S    
Cu2   O4    S    
C26   H12   S    
C14   C15   A    
C4    C5    A    
Cu1   O3    S    
C27   O7    A    
C26   H11   S    
C25   C26   S    
C21   C22   A    
C1    O2    A    
C11   C17   A    
C15   C16   A    
C9    C28   A    
C18   H3    S    
C20   N1    A    
