data_mof_unit_14473.cif
_audit_creation_date              2013-03-05T16:47:31-0500
_audit_creation_method            fapswitch 2.2
_symmetry_space_group_name_H-M    P1
_symmetry_Int_Tables_number       1
_space_group_crystal_system       triclinic
_cell_length_a                    11.118987
_cell_length_b                    11.030349
_cell_length_c                    9.979482
_cell_angle_alpha                 100.669642
_cell_angle_beta                  98.572766
_cell_angle_gamma                 93.811047
_cell_volume                      1183.7620025

loop_
_atom_site_label
_atom_site_type_symbol
_atom_site_description
_atom_site_fract_x
_atom_site_fract_y
_atom_site_fract_z
_atom_type_partial_charge
O1    O     O_R   0.517830 0.337490 0.617920 -0.551755
O2    O     O_R   0.482170 0.662510 0.382080 -0.551850
O3    O     O_R   0.482150 0.301790 0.382070 -0.593093
O4    O     O_R   0.517850 0.698210 0.617930 -0.593085
C1    C     C_R   0.501540 0.261844 0.497165 0.814711
C2    C     C_R   0.498466 0.738155 0.502835 0.814670
O5    O     O_R   0.337480 0.517860 0.617920 -0.549807
O6    O     O_R   0.662520 0.482140 0.382080 -0.549826
O7    O     O_R   0.301810 0.482160 0.382070 -0.581736
O8    O     O_R   0.698190 0.517840 0.617930 -0.581744
C3    C     C_R   0.262216 0.504025 0.499238 0.811861
C4    C     C_R   0.737786 0.495987 0.500761 0.811821
Cu1   Cu    Cu3+1 0.521120 0.521140 0.639640 1.005970
Cu2   Cu    Cu3+1 0.478880 0.478860 0.360360 1.005934
C5    C     C_R   0.155250 0.497549 0.053229 0.104081
C6    C     C_R   0.844761 0.502483 0.946755 0.104088
C7    C     C_R   0.122795 0.518412 0.184189 -0.113340
C8    C     C_R   0.877218 0.481625 0.815797 -0.113327
H1    H     H_    0.139889 0.610936 0.247315 0.178637
H2    H     H_    0.860124 0.389103 0.752668 0.178631
C9    C     C_R   0.073155 0.420745 0.237251 0.059608
C10   C     C_R   0.926855 0.579294 0.762739 0.059603
C11   C     C_R   0.046892 0.302565 0.152927 -0.198672
C12   C     C_R   0.953139 0.697467 0.847075 -0.198685
H3    H     H_    0.003273 0.227667 0.190414 0.196501
H4    H     H_    0.996773 0.772363 0.809599 0.196472
C13   C     C_R   0.071111 0.282813 0.017247 0.176876
C14   C     C_R   0.928927 0.717212 0.982759 0.176915
C15   C     C_R   0.128339 0.379180 0.968100 0.131054
C16   C     C_R   0.871674 0.620850 0.031890 0.130985
C17   C     C_R   0.916397 0.434716 0.387624 -0.159197
C18   C     C_R   0.083607 0.565332 0.612362 -0.159241
H5    H     H_    0.851594 0.387536 0.298781 0.192724
H6    H     H_    0.148413 0.612513 0.701203 0.192709
C19   C     C_R   0.872654 0.492344 0.505251 -0.091662
C20   C     C_R   0.127349 0.507691 0.494740 -0.091664
C21   C     C_R   0.959125 0.551934 0.622547 0.069167
C22   C     C_R   0.040880 0.448109 0.377441 0.069160
C23   C     C_R   0.274697 0.000364 0.015639 -0.153404
C24   C     C_R   0.725462 0.999662 0.984285 -0.153382
H7    H     H_    0.194415 0.943656 0.956783 0.215952
H8    H     H_    0.805757 0.056375 0.043093 0.215968
C25   C     C_R   0.307349 0.997131 0.154989 -0.196018
C26   C     C_R   0.692766 0.002848 0.844929 -0.196026
H9    H     H_    0.250688 0.939885 0.202228 0.198946
H10   H     H_    0.749414 0.060058 0.797634 0.198934
C27   C     C_R   0.416964 0.059493 0.231733 0.100909
C28   C     C_R   0.583119 0.940500 0.768254 0.100903
C29   C     C_R   0.492891 0.127101 0.164986 -0.101754
C30   C     C_R   0.507228 0.872917 0.835065 -0.101829
H11   H     H_    0.582684 0.168488 0.217259 0.188757
H12   H     H_    0.417421 0.831533 0.782843 0.188738
C31   C     C_R   0.455018 0.139055 0.028457 -0.266308
C32   C     C_R   0.545146 0.861010 0.971605 -0.266332
H13   H     H_    0.514219 0.192530 0.979780 0.196647
H14   H     H_    0.485960 0.807571 0.020338 0.196609
C33   C     C_R   0.346178 0.074062 0.951953 0.382316
C34   C     C_R   0.654000 0.926023 0.048050 0.382374
C35   C     C_R   0.450191 0.910320 0.385491 -0.110171
C36   C     C_R   0.549829 0.089676 0.614508 -0.110133
H15   H     H_    0.413618 0.839997 0.294778 0.177792
H16   H     H_    0.586429 0.159999 0.705214 0.177834
C37   C     C_R   0.495109 0.872948 0.508435 -0.068592
C38   C     C_R   0.504903 0.127048 0.491567 -0.068626
C39   C     C_R   0.541798 0.965137 0.627514 0.054675
C40   C     C_R   0.458226 0.034857 0.372486 0.054718
H17   H     H_    0.428507 0.410953 0.863772 0.216826
H18   H     H_    0.571474 0.589062 0.136227 0.216721
N1    N     N_2   0.447120 0.447110 0.150550 -0.284954
N2    N     N_2   0.552880 0.552890 0.849450 -0.284957
C41   C     C_2   0.507583 0.512268 0.079542 -0.000408
C42   C     C_2   0.492411 0.487735 0.920457 -0.000339
H19   H     H_    0.614803 0.623998 0.906428 0.214025
H20   H     H_    0.385210 0.375994 0.093574 0.214041
I1    I     I_    0.166860 0.343792 0.764819 -0.259344
I2    I     I_    0.833091 0.656242 0.235144 -0.259440
I3    I     I_    0.244460 0.650819 0.996044 -0.488487
I4    I     I_    0.755560 0.349203 0.003924 -0.488444
I5    I     I_    0.007421 0.111586 0.883379 -0.319336
I6    I     I_    0.992702 0.888403 0.116656 -0.319277
N3    N     N_R   0.312935 0.076172 0.807999 0.128695
O9    O     O_R   0.234812 0.990716 0.727071 -0.344797
O10   O     O_R   0.363405 0.162061 0.755801 -0.383735
N4    N     N_R   0.687270 0.924017 0.192027 0.128725
O11   O     O_R   0.636768 0.838237 0.244347 -0.383647
O12   O     O_R   0.765408 0.009510 0.272867 -0.344858

loop_
_geom_bond_atom_site_label_1
_geom_bond_atom_site_label_2
_geom_bond_distance
_ccdc_geom_bond_type
C37   C39   1.419208 A    
C13   C15   1.404107 A    
N3    O9    1.302087 A    
C27   C29   1.407286 A    
O5    C3    1.321738 A    
C30   C32   1.397869 A    
O1    C1    1.312908 A    
C18   C20   1.397704 A    
C10   C12   1.400945 A    
C3    C20   1.497015 S    
C19   C21   1.422041 A    
C12   H4    1.083040 S    
C13   I5    2.111682 S    
C35   C40   1.401784 A    
Cu1   N2    2.030500 S    
C6    C16   1.406255 A    
C23   C33   1.397307 A    
C36   H16   1.083930 S    
H17   C42   1.079330 S    
O4    Cu1   2.006692 S    
N1    C41   1.317975 D    
C9    C22   1.478131 S    
C29   H11   1.083186 S    
C30   H12   1.083177 S    
C17   H5    1.079315 S    
C11   C13   1.400224 A    
C28   C39   1.491023 S    
C27   C40   1.491015 S    
C6    I4    2.114413 S    
C24   H8    1.080021 S    
Cu1   Cu2   2.702807 S    
O2    C2    1.312904 A    
O2    Cu2   1.994261 S    
N3    O10   1.297310 A    
C26   H10   1.078792 S    
C5    C15   1.406256 A    
C31   H13   1.080283 S    
C9    C11   1.400949 A    
C32   H14   1.080303 S    
C35   H15   1.083920 S    
C24   C34   1.397289 A    
N4    O11   1.297274 A    
C23   H7    1.080051 S    
C31   C33   1.402833 A    
C23   C25   1.391595 A    
C10   C21   1.478121 S    
C7    C9    1.401761 A    
C1    C38   1.480707 S    
C38   C40   1.419210 A    
C2    C37   1.480672 S    
O7    Cu2   2.014540 S    
C34   N4    1.433934 S    
C16   I2    2.106940 S    
O5    Cu1   2.018152 S    
O6    C4    1.321728 A    
N2    H19   1.029041 S    
N1    H20   1.029016 S    
C18   C21   1.402946 A    
C4    C19   1.497021 S    
C28   C30   1.407294 A    
C25   H9    1.078775 S    
O3    Cu2   2.006692 S    
O8    C4    1.297065 A    
O4    C2    1.298479 A    
C36   C39   1.401803 A    
O7    C3    1.297051 A    
Cu2   N1    2.030500 S    
C17   C19   1.397707 A    
O1    Cu1   1.994261 S    
C32   C34   1.402836 A    
C5    C7    1.389786 A    
O6    Cu2   2.018150 S    
C8    C10   1.401750 A    
C12   C14   1.400221 A    
N4    O12   1.302064 A    
O3    C1    1.298493 A    
O8    Cu1   2.014540 S    
C15   I1    2.106951 S    
C35   C37   1.398802 A    
C17   C22   1.402940 A    
C36   C38   1.398804 A    
C14   C16   1.404106 A    
C41   C42   1.541792 S    
C5    I3    2.114442 S    
H18   C41   1.079328 S    
C29   C31   1.397838 A    
C20   C22   1.422032 A    
C7    H1    1.083972 S    
C8    H2    1.083970 S    
C11   H3    1.083038 S    
C14   I6    2.111680 S    
C33   N3    1.433936 S    
C24   C26   1.391590 A    
C6    C8    1.389772 A    
N2    C42   1.317979 D    
C25   C27   1.400143 A    
C26   C28   1.400135 A    
C18   H6    1.079326 S    
