data_mof_unit_10144.cif
_audit_creation_date              2012-12-10T19:44:39-0500
_audit_creation_method            fapswitch 2.2
_symmetry_space_group_name_H-M    P1
_symmetry_Int_Tables_number       1
_space_group_crystal_system       triclinic
_cell_length_a                    8.56756
_cell_length_b                    14.847859
_cell_length_c                    14.173666
_cell_angle_alpha                 89.90738
_cell_angle_beta                  98.631149
_cell_angle_gamma                 90.105095
_cell_volume                      1782.60688486

loop_
_atom_site_label
_atom_site_type_symbol
_atom_type_description
_atom_site_fract_x
_atom_site_fract_y
_atom_site_fract_z
_atom_type_partial_charge
C1    C     C_R   0.495591 0.327226 0.499713 0.890799
C2    C     C_R   0.428588 0.429805 0.888365 -0.275194
C3    C     C_R   0.499795 0.500011 0.053339 0.138971
C4    C     C_R   0.499736 0.500035 0.946600 0.135156
C5    C     C_R   0.201014 0.499954 0.475063 0.970428
C6    C     C_R   0.798983 0.499965 0.524929 0.975434
C7    C     C_2   0.035911 0.499957 0.461563 -0.393763
C8    C     C_2   0.964093 0.499816 0.538405 -0.387097
C9    C     C_R   0.359025 0.100477 0.566292 0.495166
C10   C     C_R   0.347100 0.898338 0.414169 0.494713
C11   C     C_R   0.396551 0.191398 0.570119 -0.274292
C12   C     C_R   0.496601 0.672711 0.499624 0.889693
C13   C     C_R   0.385719 0.807639 0.415200 -0.275082
C14   C     C_R   0.466826 0.231412 0.497406 -0.108527
C15   C     C_R   0.469482 0.768440 0.497320 -0.101170
C16   C     C_R   0.499873 0.180686 0.420017 -0.224717
C17   C     C_R   0.516468 0.819660 0.579048 -0.225490
C18   C     C_R   0.469011 0.089389 0.417279 -0.189671
C19   C     C_R   0.485308 0.910820 0.577562 -0.176643
C20   C     C_R   0.401461 0.048534 0.490738 -0.007194
C21   C     C_R   0.402683 0.950939 0.495334 -0.009005
C22   C     C_3   0.140176 0.039982 0.619611 0.081336
C23   C     C_R   0.375226 0.460930 0.094022 -0.276753
C24   C     C_3   0.034648 0.123998 0.614598 -0.392839
C25   C     C_3   0.859880 0.098723 0.601530 -0.921319
C26   C     C_3   0.115342 0.960734 0.337640 0.082734
C27   C     C_3   0.007906 0.879037 0.347160 -0.395534
C28   C     C_3   0.836167 0.907541 0.344531 -0.932502
C29   C     C_R   0.570874 0.570297 0.901082 -0.276287
C30   C     C_R   0.377936 0.461391 0.193511 0.017213
C31   C     C_R   0.570089 0.568826 0.801780 0.023154
C32   C     C_R   0.621905 0.538654 0.215412 0.020231
C33   C     C_R   0.429599 0.431277 0.789218 0.022971
C34   C     C_R   0.624438 0.539103 0.116415 -0.277070
H1    H     H_    0.973977 0.500131 0.388681 0.173325
H2    H     H_    0.625054 0.626958 0.941405 0.135896
H3    H     H_    0.281603 0.431015 0.223582 0.126853
H4    H     H_    0.625351 0.623176 0.768004 0.122105
H5    H     H_    0.718238 0.569181 0.262717 0.124372
H6    H     H_    0.374198 0.377005 0.745546 0.120701
H7    H     H_    0.724826 0.568861 0.089963 0.134124
H8    H     H_    0.374240 0.373175 0.918996 0.136722
H9    H     H_    0.109135 0.995350 0.676993 0.177483
H10   H     H_    0.115912 0.000144 0.552908 0.119828
H11   H     H_    0.064270 0.163421 0.681506 0.234513
H12   H     H_    0.026052 0.499606 0.611284 0.181972
H13   H     H_    0.055874 0.167174 0.553676 0.210841
H14   H     H_    0.826425 0.061403 0.533725 0.260673
H15   H     H_    0.787377 0.160828 0.599017 0.272941
H16   H     H_    0.833913 0.056362 0.661962 0.261336
H17   H     H_    0.067734 0.997379 0.271171 0.177181
H18   H     H_    0.111543 0.009434 0.396378 0.121459
H19   H     H_    0.015786 0.831204 0.287830 0.234274
H20   H     H_    0.046918 0.843759 0.415828 0.211553
H21   H     H_    0.825305 0.954372 0.404132 0.256970
H22   H     H_    0.762032 0.847265 0.352066 0.273659
H23   H     H_    0.368979 0.230717 0.629802 0.166486
H24   H     H_    0.791687 0.941171 0.275710 0.264802
H25   H     H_    0.347015 0.767542 0.352159 0.176676
H26   H     H_    0.553950 0.211037 0.363299 0.169917
H27   H     H_    0.581127 0.789674 0.642946 0.157036
H28   H     H_    0.505809 0.049880 0.360323 0.188017
H29   H     H_    0.532672 0.950750 0.639193 0.186024
H30   H     H_    0.274758 0.431206 0.049499 0.135213
N1    N     N_R   0.500000 0.499980 0.252470 -0.093096
N2    N     N_R   0.500000 0.500020 0.747530 -0.092956
O1    O     O_R   0.500010 0.369070 0.579480 -0.631535
O2    O     O_3   0.271828 0.935068 0.329367 -0.659040
O3    O     O_R   0.499990 0.630930 0.420520 -0.622912
O4    O     O_R   0.500010 0.369060 0.420520 -0.619126
O5    O     O_R   0.499990 0.630940 0.579480 -0.627281
O6    O     O_R   0.271750 0.500000 0.560890 -0.614623
O7    O     O_R   0.728250 0.500000 0.439110 -0.622398
O8    O     O_R   0.271750 0.499990 0.401930 -0.636467
O9    O     O_R   0.728250 0.500010 0.598070 -0.623209
O10   O     O_3   0.301932 0.062232 0.643682 -0.661594
Zn1   Zn    Zn3+2 0.500000 0.500010 0.606140 0.938092
Zn2   Zn    Zn3+2 0.500000 0.499990 0.393860 0.935340

loop_
_geom_bond_atom_site_label_1
_geom_bond_atom_site_label_2
_ccdc_geom_bond_type
C31   N2    A    
C12   O3    A    
O4    Zn2   S    
C3    C23   A    
O1    Zn1   S    
C22   O10   S    
C28   H22   S    
C27   H20   S    
C6    O9    A    
C29   H2    S    
C26   C27   S    
C24   H11   S    
C19   C21   A    
C5    O6    A    
C11   C14   A    
C16   H26   S    
C32   H5    S    
C5    O8    A    
C25   H16   S    
C17   H27   S    
C22   H10   S    
C19   H29   S    
O7    Zn2   S    
C9    O10   S    
C4    C29   A    
O3    Zn2   S    
C34   H7    S    
C28   H21   S    
C33   N2    A    
C25   H15   S    
C10   C21   A    
C33   H6    S    
C23   C30   A    
C7    C8    D    
C24   C25   S    
C5    C7    S    
C18   H28   S    
C6    C8    S    
C3    C34   A    
C1    O1    A    
C30   H3    S    
C32   C34   A    
C2    C4    A    
O6    Zn1   S    
C26   H18   S    
C9    C11   A    
C9    C20   A    
C22   H9    S    
C12   C15   S    
O9    Zn1   S    
C25   H14   S    
C2    C33   A    
C23   H30   S    
C12   O5    A    
C28   H24   S    
C13   C15   A    
C22   C24   S    
C3    C4    S    
O5    Zn1   S    
C6    O7    A    
C15   C17   A    
N2    Zn1   S    
N1    Zn2   S    
C14   C16   A    
C24   H13   S    
C7    H1    S    
C10   C13   A    
C27   H19   S    
C13   H25   S    
C10   O2    S    
C1    O4    A    
C31   H4    S    
C26   O2    S    
C29   C31   A    
C26   H17   S    
C2    H8    S    
C17   C19   A    
C18   C20   A    
C8    H12   S    
C30   N1    A    
C20   C21   S    
C16   C18   A    
O8    Zn2   S    
C27   C28   S    
C1    C14   S    
C11   H23   S    
C32   N1    A    
