data_mof_unit_48581.cif
_audit_creation_date              2012-12-11T15:53:47-0500
_audit_creation_method            fapswitch 2.2
_symmetry_space_group_name_H-M    P1
_symmetry_Int_Tables_number       1
_space_group_crystal_system       triclinic
_cell_length_a                    10.65992
_cell_length_b                    10.725867
_cell_length_c                    17.069282
_cell_angle_alpha                 80.489829
_cell_angle_beta                  99.287256
_cell_angle_gamma                 118.730627
_cell_volume                      1680.26189966

loop_
_atom_site_label
_atom_site_type_symbol
_atom_type_description
_atom_site_fract_x
_atom_site_fract_y
_atom_site_fract_z
_atom_type_partial_charge
C1    C     C_R   0.384323 0.284174 0.631904 0.522049
C2    C     C_R   0.513219 0.712087 0.734356 -0.155868
C3    C     C_R   0.491199 0.728212 0.809948 -0.143023
C4    C     C_3   0.092583 0.501305 0.769100 -0.248765
C5    C     C_3   0.116976 0.481996 0.687744 -0.239184
C6    C     C_R   0.397447 0.619487 0.685293 0.000660
C7    C     C_1   0.822379 0.656411 0.706139 -0.053333
C8    C     C_1   0.850165 0.684500 0.773799 -0.053177
C9    C     C_1   0.364554 0.233825 0.714292 -0.035708
C10   C     C_1   0.333549 0.186999 0.781506 -0.031012
C11   C     C_1   0.335000 0.666052 0.278048 0.082150
C12   C     C_R   0.413114 0.620605 0.601715 0.527007
C13   C     C_1   0.322146 0.675134 0.207342 0.034114
C14   C     C_R   0.867010 0.683607 0.166947 -0.070881
C15   C     C_R   0.918994 0.606664 0.224617 -0.078431
C16   C     C_R   0.906514 0.600317 0.303816 -0.014803
C17   C     C_R   0.820178 0.775957 0.272148 0.385207
C18   C     C_R   0.829753 0.778479 0.191504 -0.079584
C19   C     C_3   0.891436 0.455372 0.230209 -0.138957
C20   C     C_3   0.875157 0.446555 0.317692 0.298114
C21   C     C_R   0.844154 0.674260 0.328068 -0.021268
C22   C     C_R   0.307193 0.133340 0.168171 -0.033854
C23   C     C_R   0.776606 0.618712 0.626960 0.530282
C24   C     C_R   0.189867 0.121768 0.200568 -0.086108
C25   C     C_R   0.196163 0.133840 0.279572 0.016199
C26   C     C_R   0.429873 0.142082 0.301293 -0.130173
C27   C     C_R   0.423705 0.131652 0.220215 0.343241
C28   C     C_3   0.104458 0.200327 0.173526 0.325875
C29   C     C_3   0.111999 0.216621 0.260409 0.764550
C30   C     C_R   0.321058 0.155845 0.329814 -0.075012
C31   C     C_R   0.891553 0.701953 0.855895 0.545049
C32   C     C_R   0.315997 0.706464 0.898245 0.537469
C33   C     C_R   0.286604 0.118557 0.858354 0.543814
C34   C     C_R   0.350566 0.224955 0.400677 0.574793
C35   C     C_R   0.892450 0.693189 0.085758 0.552715
C36   C     C_R   0.312400 0.701474 0.124151 0.537438
C37   C     C_R   0.283778 0.104028 0.086447 0.561494
C38   C     C_R   0.364904 0.654718 0.360994 0.592171
C39   C     C_R   0.774089 0.624088 0.400658 0.560814
C40   C     C_R   0.352558 0.652901 0.836572 0.015306
C41   C     C_R   0.247162 0.541501 0.793818 0.013244
C42   C     C_R   0.269607 0.524518 0.719566 0.007469
Cr1   Cr    Cr6+3 0.608440 0.389080 0.519680 1.041914
Cr2   Cr    Cr6+3 0.288640 0.400090 0.490760 1.153812
Cr3   Cr    Cr6+3 0.602940 0.710800 0.489510 1.107282
Cr4   Cr    Cr6+3 0.052530 0.947560 0.964210 1.064941
Cr5   Cr    Cr6+3 0.059970 0.626800 0.992920 1.046635
Cr6   Cr    Cr6+3 0.373320 0.938440 0.995370 1.107563
H1    H     H_    0.789748 0.386873 0.195518 0.168839
H2    H     H_    0.765144 0.369492 0.333937 0.144965
H3    H     H_    0.525299 0.152940 0.339609 0.170982
H4    H     H_    0.578668 0.810136 0.843369 0.148712
H5    H     H_    0.068495 0.591608 0.767730 0.155426
H6    H     H_    0.058313 0.368946 0.673848 0.159585
H7    H     H_    0.105975 0.560612 0.639498 0.168298
H8    H     H_    0.987487 0.447862 0.219319 0.228002
O1    O     O_R   0.754020 0.497590 0.609930 -0.510268
O2    O     O_R   0.295080 0.533620 0.397890 -0.393066
O3    O     O_R   0.485280 0.746620 0.388440 -0.471090
O4    O     O_R   0.720550 0.696220 0.420010 -0.421895
O5    O     O_3   0.500010 0.499990 0.499980 -0.331388
O6    O     O_R   0.163320 0.092900 0.874450 -0.508485
O7    O     O_R   0.934650 0.822080 0.882840 -0.496938
O8    O     O_R   0.915520 0.604140 0.893670 -0.511182
O9    O     O_R   0.191760 0.638110 0.923230 -0.502444
O10   O     O_R   0.406180 0.826930 0.920660 -0.517166
O11   O     O_R   0.358620 0.062870 0.901950 -0.495617
O12   O     O_R   0.481420 0.271390 0.600630 -0.484369
O13   O     O_R   0.163910 0.085460 0.050210 -0.492145
O14   O     O_R   0.935200 0.815170 0.045770 -0.483659
O15   O     O_R   0.916120 0.596690 0.069430 -0.505532
O16   O     O_R   0.192310 0.631200 0.086170 -0.511011
O17   O     O_R   0.406770 0.819480 0.096420 -0.460071
O18   O     O_R   0.359170 0.055960 0.064880 -0.432272
O19   O     O_3   0.161940 0.837600 0.984160 -0.277176
O20   O     O_R   0.263810 0.254550 0.589590 -0.502165
O21   O     O_R   0.300820 0.531200 0.560890 -0.502850
O22   O     O_R   0.491480 0.744020 0.564270 -0.502754
O23   O     O_R   0.726290 0.693800 0.583010 -0.518769
O24   O     O_R   0.747830 0.500190 0.434090 -0.521534
O25   O     O_R   0.475680 0.273800 0.437630 -0.515421
O26   O     O_R   0.257620 0.257160 0.413750 -0.410688
H9    H     H_    0.617180 0.780062 0.712010 0.142740
F1    F     F_    0.983406 0.429371 0.367013 -0.562250
F2    F     F_    0.534114 0.127407 0.192772 -0.588632
F3    F     F_    0.966963 0.112408 0.142006 -0.585294
H10   H     H_    0.161788 0.302062 0.135532 0.095975
F4    F     F_    0.189711 0.357963 0.275342 -0.654492
F5    F     F_    0.980223 0.146639 0.291552 -0.474362
H11   H     H_    0.019279 0.399571 0.801958 0.156468
F6    F     F_    0.769472 0.859142 0.292887 -0.523732
H12   H     H_    0.800826 0.848502 0.148201 0.224497

loop_
_geom_bond_atom_site_label_1
_geom_bond_atom_site_label_2
_ccdc_geom_bond_type
C19   H8    S    
C37   O18   A    
Cr3   O4    S    
C16   C21   A    
C37   O13   A    
C4    H5    S    
C41   C42   A    
C14   C18   A    
C19   C20   S    
C17   F6    S    
C5    C42   S    
C29   F5    S    
C7    C8    T    
C15   C19   S    
Cr1   O5    S    
C26   C27   A    
Cr4   O6    S    
Cr2   O21   S    
Cr2   O26   S    
C6    C12   S    
C4    C41   S    
C15   C16   A    
C1    O12   A    
Cr2   O20   S    
C27   F2    S    
Cr6   O10   S    
C29   F4    S    
C20   H2    S    
C38   O2    A    
Cr3   O3    S    
C35   O14   A    
Cr2   O2    S    
C33   O6    A    
Cr4   O13   S    
C12   O22   A    
Cr3   O22   S    
C34   O25   A    
C9    C10   T    
C35   O15   A    
C8    C31   S    
Cr6   O19   S    
C2    H9    S    
C2    C6    A    
C31   O8    A    
Cr4   O19   S    
C4    H11   S    
C25   C29   S    
C30   C34   S    
Cr6   O18   S    
C5    H6    S    
C1    C9    S    
C24   C25   A    
C13   C36   S    
Cr5   O8    S    
Cr1   O12   S    
Cr1   O24   S    
C22   C37   S    
C17   C21   A    
C11   C38   S    
C31   O7    A    
C19   H1    S    
C21   C39   S    
C16   C20   S    
C12   O21   A    
C28   H10   S    
C17   C18   A    
Cr3   O23   S    
Cr5   O15   S    
C40   C41   A    
C3    C40   A    
C26   C30   A    
C22   C27   A    
C20   F1    S    
C28   F3    S    
Cr1   O25   S    
C22   C24   A    
C14   C35   S    
C33   O11   A    
C32   O10   A    
C25   C30   A    
C23   O1    A    
C28   C29   S    
C1    O20   A    
Cr6   O17   S    
C5    H7    S    
C24   C28   S    
C4    C5    S    
C3    H4    S    
Cr2   O5    S    
Cr4   O7    S    
C18   H12   S    
C39   O24   A    
C2    C3    A    
Cr5   O19   S    
C26   H3    S    
C11   C13   T    
C7    C23   S    
C39   O4    A    
Cr3   O5    S    
C10   C33   S    
C32   C40   S    
Cr6   O11   S    
Cr5   O16   S    
Cr4   O14   S    
C36   O17   A    
Cr1   O1    S    
C38   O3    A    
C6    C42   A    
C14   C15   A    
C34   O26   A    
C23   O23   A    
Cr5   O9    S    
C36   O16   A    
C32   O9    A    
