data_mof_unit_57874.cif
_audit_creation_date              2012-12-11T17:11:31-0500
_audit_creation_method            fapswitch 2.2
_symmetry_space_group_name_H-M    P1
_symmetry_Int_Tables_number       1
_space_group_crystal_system       triclinic
_cell_length_a                    14.980986
_cell_length_b                    6.932409
_cell_length_c                    13.646826
_cell_angle_alpha                 89.997648
_cell_angle_beta                  100.871828
_cell_angle_gamma                 90.001527
_cell_volume                      1391.8438799

loop_
_atom_site_label
_atom_site_type_symbol
_atom_type_description
_atom_site_fract_x
_atom_site_fract_y
_atom_site_fract_z
_atom_type_partial_charge
O1    O     O_R   0.398250 0.605080 0.401520 -0.540472
O2    O     O_R   0.898250 0.394920 0.901520 -0.535541
O3    O     O_R   0.584130 0.932110 0.405450 -0.542257
O4    O     O_R   0.084130 0.067890 0.905450 -0.539408
O5    O     O_R   0.601750 0.105090 0.598480 -0.528759
O6    O     O_R   0.101750 0.894910 0.098480 -0.534917
C1    C     C_R   0.613337 0.763958 0.384796 0.733038
C2    C     C_R   0.112452 0.236148 0.883769 0.740610
O7    O     O_R   0.397870 0.934620 0.389680 -0.541407
O8    O     O_R   0.897870 0.065380 0.889680 -0.541319
O9    O     O_R   0.414160 0.107620 0.582600 -0.520746
O10   O     O_R   0.914160 0.892380 0.082600 -0.545967
C3    C     C_R   0.363969 0.765719 0.362653 0.729380
C4    C     C_R   0.864041 0.234279 0.862552 0.728969
O11   O     O_R   0.585840 0.602550 0.417400 -0.546278
O12   O     O_R   0.085840 0.397450 0.917400 -0.546208
O13   O     O_3   0.505560 0.772440 0.563310 -0.354913
O14   O     O_3   0.005560 0.227560 0.063310 -0.368656
V1    V     V_3+5 0.498970 0.046250 0.488250 1.469460
V2    V     V_3+5 0.998970 0.953750 0.988250 1.413124
O15   O     O_R   0.415870 0.437500 0.594550 -0.550026
O16   O     O_R   0.915870 0.562500 0.094550 -0.533371
C5    C     C_R   0.388025 0.268583 0.616447 0.807184
C6    C     C_R   0.886405 0.731200 0.114490 0.745605
O17   O     O_R   0.602130 0.434980 0.610320 -0.542497
O18   O     O_R   0.102130 0.565020 0.110320 -0.539010
C7    C     C_R   0.635876 0.265862 0.637488 0.754833
C8    C     C_R   0.136007 0.734089 0.137318 0.735047
V3    V     V_3+5 0.501030 0.546580 0.511750 1.448849
V4    V     V_3+5 0.001030 0.453420 0.011750 1.424654
O19   O     O_3   0.494440 0.270520 0.436690 -0.380174
O20   O     O_3   0.994440 0.729480 0.936690 -0.377009
C9    C     C_1   0.716293 0.255118 0.716948 -0.159641
C10   C     C_1   0.216335 0.744800 0.216893 -0.186221
C11   C     C_1   0.783675 0.244934 0.783030 -0.178950
C12   C     C_1   0.283633 0.755004 0.283088 -0.183368
C13   C     C_2   0.298066 0.111369 0.732439 -0.025243
C14   C     C_2   0.763913 0.879537 0.191706 -0.020306
C15   C     C_2   0.314522 0.262108 0.675177 -0.336519
C16   C     C_2   0.826948 0.740777 0.189331 -0.405640
H1    H     H_    0.266219 0.380755 0.663294 0.106943
H2    H     H_    0.840030 0.635916 0.249599 0.138768
C17   C     C_2   0.209882 0.099463 0.767755 0.025278
C18   C     C_2   0.722388 0.900615 0.282148 0.123686
C19   C     C_2   0.185924 0.244977 0.824623 -0.323825
C20   C     C_2   0.672437 0.752867 0.309229 -0.346374
H3    H     H_    0.227798 0.374179 0.834875 0.121176
H4    H     H_    0.670240 0.617682 0.268418 0.142299
C21   C     C_2   0.365136 0.954561 0.765010 0.422591
H5    H     H_    0.342327 0.818007 0.790393 0.018953
O21   O     O_2   0.446566 0.979428 0.770058 -0.518487
C22   C     C_2   0.733649 0.012623 0.106081 0.404868
H6    H     H_    0.755324 0.991834 0.035408 0.056732
O22   O     O_2   0.681152 0.144652 0.112681 -0.536909
C23   C     C_3   0.152832 0.918621 0.740101 -0.319831
C24   C     C_3   0.060171 0.965055 0.674515 -0.272054
C25   C     C_3   0.003243 0.782622 0.650020 -0.773425
H7    H     H_    0.038519 0.678888 0.608302 0.217890
H8    H     H_    0.990947 0.713224 0.719646 0.239580
H9    H     H_    0.936598 0.820257 0.603217 0.211229
H10   H     H_    0.021353 0.068142 0.712487 0.185289
H11   H     H_    0.070825 0.032753 0.603752 0.184458
H12   H     H_    0.188790 0.819366 0.696590 0.138270
H13   H     H_    0.145049 0.837027 0.807897 0.190932
C26   C     C_3   0.739613 0.090101 0.339056 -0.265157
C27   C     C_3   0.797106 0.060395 0.443647 -0.346676
C28   C     C_3   0.823355 0.253175 0.495191 -0.779447
H14   H     H_    0.761582 0.338113 0.500416 0.223639
H15   H     H_    0.866470 0.337782 0.452940 0.223923
H16   H     H_    0.862389 0.227223 0.571678 0.216155
H17   H     H_    0.758998 0.974212 0.490637 0.194399
H18   H     H_    0.860258 0.980708 0.437598 0.194351
H19   H     H_    0.777952 0.189186 0.297949 0.178832
H20   H     H_    0.675017 0.165534 0.342543 0.196013

loop_
_geom_bond_atom_site_label_1
_geom_bond_atom_site_label_2
_ccdc_geom_bond_type
C14   C16   D    
C23   C24   S    
O13   V3    S    
O4    C2    A    
V1    O19   S    
C15   H1    S    
C7    C9    S    
C27   H18   S    
O9    V1    S    
O16   C6    A    
O3    C1    A    
C9    C11   T    
C25   H8    S    
C14   C22   S    
O12   V4    S    
C26   H19   S    
C24   C25   S    
O7    C3    A    
C2    C19   S    
O13   V1    S    
O5    C7    A    
O7    V1    S    
O6    C8    A    
O8    V2    S    
C21   O21   D    
C23   H12   S    
O3    V1    S    
O14   V4    S    
C10   C12   T    
C1    O11   A    
C27   C28   S    
C8    C10   S    
C2    O12   A    
C18   C26   S    
C22   O22   D    
O11   V3    S    
C19   H3    S    
O17   V3    S    
C20   H4    S    
C28   H14   S    
C1    C20   S    
C3    C12   S    
O8    C4    A    
C4    C11   S    
C25   H9    S    
C18   C20   D    
O15   V3    S    
C26   H20   S    
C28   H15   S    
C13   C17   S    
C14   C18   S    
C13   C21   S    
C27   H17   S    
C23   H13   S    
O10   V2    S    
O1    V3    S    
C17   C19   D    
C17   C23   S    
C21   H5    S    
O15   C5    A    
C24   H11   S    
O1    C3    A    
C22   H6    S    
V2    O20   S    
O16   V4    S    
C16   H2    S    
O18   V4    S    
O5    V1    S    
O17   C7    A    
O6    V2    S    
O10   C6    A    
O18   C8    A    
O2    V4    S    
C28   H16   S    
V3    O19   S    
V4    O20   S    
C25   H7    S    
C5    C15   S    
O9    C5    A    
C6    C16   S    
O14   V2    S    
O2    C4    A    
O4    V2    S    
C13   C15   D    
C26   C27   S    
C24   H10   S    
