data_mof_unit_46342.cif
_audit_creation_date              2012-12-10T19:26:45-0500
_audit_creation_method            fapswitch 2.2
_symmetry_space_group_name_H-M    P1
_symmetry_Int_Tables_number       1
_space_group_crystal_system       triclinic
_cell_length_a                    19.199372
_cell_length_b                    10.675988
_cell_length_c                    9.836318
_cell_angle_alpha                 88.445143
_cell_angle_beta                  89.129268
_cell_angle_gamma                 92.685213
_cell_volume                      2012.94329032

loop_
_atom_site_label
_atom_site_type_symbol
_atom_type_description
_atom_site_fract_x
_atom_site_fract_y
_atom_site_fract_z
_atom_type_partial_charge
C1    C     C_R   0.499422 0.257518 0.501284 0.893540
C2    C     C_3   0.543679 0.047548 0.403173 0.192732
C3    C     C_3   0.453430 0.421803 0.051787 0.287784
C4    C     C_3   0.547081 0.577610 0.949379 0.305986
C5    C     C_3   0.512729 0.390237 0.954805 -0.142486
C6    C     C_3   0.487512 0.609490 0.045816 -0.192342
C7    C     C_3   0.440158 0.530730 0.952214 -0.122363
C8    C     C_3   0.559843 0.468895 0.048741 -0.136010
C9    C     C_R   0.365311 0.501699 0.500988 0.906901
C10   C     C_R   0.633957 0.502387 0.499176 0.884295
C11   C     C_R   0.244750 0.454621 0.605479 0.067988
C12   C     C_R   0.500336 0.741917 0.498326 0.878571
C13   C     C_R   0.745711 0.618230 0.435682 0.068046
C14   C     C_R   0.172169 0.468880 0.600322 0.171582
C15   C     C_R   0.818669 0.631432 0.447204 0.169358
C16   C     C_R   0.144628 0.541727 0.495600 -0.083532
C17   C     C_R   0.854443 0.537925 0.516648 -0.098457
C18   C     C_R   0.187273 0.602464 0.395296 0.130709
C19   C     C_R   0.818140 0.435970 0.584336 0.161785
C20   C     C_R   0.259426 0.588321 0.397893 0.136653
C21   C     C_R   0.745629 0.423567 0.575664 0.129632
C22   C     C_R   0.288733 0.513299 0.501665 -0.203020
C23   C     C_3   0.518289 0.035018 0.622584 0.188651
C24   C     C_R   0.709725 0.512981 0.499323 -0.221455
C25   C     C_R   0.930060 0.541553 0.507545 0.358172
C26   C     C_R   0.069761 0.547027 0.488882 0.356717
C27   C     C_3   0.273539 0.376404 0.720919 -0.407239
C28   C     C_3   0.297465 0.251680 0.671656 -0.839557
C29   C     C_3   0.707049 0.718765 0.359944 -0.366428
C30   C     C_3   0.703797 0.693811 0.208543 -0.862621
C31   C     C_3   0.108386 0.477957 0.814841 -0.811716
C32   C     C_3   0.868730 0.844673 0.468518 -0.767904
C33   C     C_3   0.125766 0.615616 0.181837 -0.786868
C34   C     C_3   0.479173 0.961843 0.374763 0.170175
C35   C     C_3   0.888072 0.381647 0.780392 -0.767027
C36   C     C_3   0.302210 0.628711 0.164920 -0.732652
C37   C     C_3   0.702134 0.311753 0.783392 -0.701968
C38   C     C_3   0.687037 0.010581 0.573550 -0.794739
C39   C     C_3   0.309783 0.994123 0.421289 -0.821812
C40   C     C_3   0.558719 0.989700 0.852765 -0.851670
C41   C     C_3   0.441774 0.995576 0.139118 -0.857690
C42   C     C_3   0.363461 0.955526 0.773981 -0.819563
C43   C     C_3   0.630042 0.020644 0.221712 -0.821014
C44   C     C_3   0.401935 0.325798 0.119983 -0.402533
C45   C     C_3   0.563633 0.963377 0.524297 0.177319
C46   C     C_3   0.353167 0.265503 0.018534 -0.980610
C47   C     C_3   0.599804 0.679826 0.895379 -0.406131
C48   C     C_3   0.673552 0.635362 0.874216 -0.905252
C49   C     C_3   0.434019 0.034452 0.472846 0.126759
C50   C     C_3   0.499571 0.876308 0.495501 -0.290458
C51   C     C_3   0.498642 0.122039 0.502160 -0.300726
C52   C     C_3   0.453894 0.949483 0.593509 0.167035
H1    H     H_    0.390084 0.557920 0.908010 0.123749
H2    H     H_    0.756194 0.679730 0.164257 0.243792
H3    H     H_    0.670203 0.608953 0.191855 0.283204
H4    H     H_    0.681310 0.774498 0.154562 0.252512
H5    H     H_    0.653188 0.725496 0.399956 0.220423
H6    H     H_    0.732641 0.812251 0.374720 0.221851
H7    H     H_    0.133332 0.313168 0.717051 0.234443
H8    H     H_    0.155637 0.497384 0.875923 0.227673
H9    H     H_    0.068932 0.424019 0.879341 0.243030
H10   H     H_    0.086325 0.568378 0.783751 0.262500
H11   H     H_    0.846367 0.757362 0.285102 0.232888
H12   H     H_    0.609147 0.438093 0.093303 0.125915
H13   H     H_    0.837260 0.922797 0.431220 0.218050
H14   H     H_    0.924547 0.876453 0.461273 0.259658
H15   H     H_    0.854988 0.823259 0.577249 0.243047
H16   H     H_    0.127888 0.749142 0.331433 0.233010
H17   H     H_    0.072943 0.577356 0.212324 0.248159
H18   H     H_    0.157675 0.537625 0.148153 0.246949
H19   H     H_    0.120451 0.682327 0.094493 0.237738
H20   H     H_    0.883129 0.286065 0.597967 0.240437
H21   H     H_    0.938945 0.431187 0.755475 0.247879
H22   H     H_    0.897869 0.297906 0.845371 0.239346
H23   H     H_    0.524971 0.298272 0.914806 0.123968
H24   H     H_    0.855046 0.444437 0.839048 0.235978
H25   H     H_    0.299994 0.756467 0.318293 0.215807
H26   H     H_    0.261909 0.680437 0.110256 0.242238
H27   H     H_    0.292431 0.526279 0.153709 0.238034
H28   H     H_    0.352887 0.657988 0.116913 0.224252
H29   H     H_    0.665839 0.281938 0.586811 0.226279
H30   H     H_    0.718405 0.219827 0.823790 0.234752
H31   H     H_    0.646831 0.323002 0.813187 0.240679
H32   H     H_    0.734586 0.386655 0.831037 0.236385
H33   H     H_    0.631727 0.841403 0.616690 0.221890
H34   H     H_    0.478368 0.702743 0.087748 0.153169
H35   H     H_    0.737186 0.964188 0.584914 0.231945
H36   H     H_    0.676300 0.060512 0.668043 0.269455
H37   H     H_    0.692489 0.079355 0.487214 0.269201
H38   H     H_    0.367734 0.161139 0.382456 0.227749
H39   H     H_    0.310754 0.968427 0.313090 0.233754
H40   H     H_    0.259375 0.037053 0.442251 0.241927
H41   H     H_    0.312601 0.908729 0.487175 0.243215
H42   H     H_    0.499326 0.136143 0.792876 0.236880
H43   H     H_    0.571456 0.036904 0.948661 0.240481
H44   H     H_    0.606355 0.945420 0.817817 0.255305
H45   H     H_    0.258172 0.208178 0.603612 0.260837
H46   H     H_    0.516526 0.916609 0.872450 0.266678
H47   H     H_    0.420022 0.837502 0.260049 0.248280
H48   H     H_    0.431397 0.943181 0.045349 0.250350
H49   H     H_    0.485739 0.064326 0.118513 0.258568
H50   H     H_    0.394455 0.044787 0.165741 0.255842
H51   H     H_    0.382592 0.803938 0.654762 0.227835
H52   H     H_    0.343309 0.897579 0.862697 0.234435
H53   H     H_    0.318337 0.983781 0.713522 0.260379
H54   H     H_    0.392210 0.039120 0.812253 0.248085
H55   H     H_    0.569012 0.173979 0.242428 0.241524
H56   H     H_    0.348555 0.264139 0.618133 0.276182
H57   H     H_    0.594485 0.951270 0.172521 0.262479
H58   H     H_    0.666531 0.970485 0.286752 0.271847
H59   H     H_    0.661208 0.074240 0.141758 0.229672
H60   H     H_    0.316836 0.335903 0.982394 0.262537
H61   H     H_    0.383498 0.229421 0.932386 0.277297
H62   H     H_    0.321453 0.187253 0.068393 0.263831
H63   H     H_    0.431922 0.253426 0.171989 0.218186
H64   H     H_    0.369953 0.370621 0.197092 0.240518
H65   H     H_    0.710572 0.718145 0.862130 0.249546
H66   H     H_    0.690078 0.576710 0.961239 0.250630
H67   H     H_    0.302933 0.187945 0.760713 0.250798
H68   H     H_    0.677600 0.580764 0.781609 0.295902
H69   H     H_    0.581139 0.721090 0.799506 0.236271
H70   H     H_    0.602494 0.755154 0.970888 0.192072
H71   H     H_    0.315515 0.428967 0.773062 0.229066
H72   H     H_    0.234951 0.355462 0.803770 0.203935
N1    N     N_R   0.031705 0.445340 0.448265 -0.168721
N2    N     N_2   0.853664 0.341916 0.657730 -0.275155
N3    N     N_2   0.303772 0.661858 0.306381 -0.281849
N4    N     N_2   0.709467 0.315670 0.636430 -0.286906
N5    N     N_2   0.632080 0.917083 0.549553 -0.325660
N6    N     N_2   0.366274 0.083799 0.447601 -0.298490
N7    N     N_2   0.537237 0.081881 0.754086 -0.282795
N8    N     N_2   0.457921 0.908499 0.247154 -0.285318
N9    N     N_2   0.408354 0.882086 0.692589 -0.280914
N10   N     N_2   0.591179 0.105972 0.301525 -0.296332
N11   N     N_R   0.968270 0.643243 0.548257 -0.159203
N12   N     N_R   0.962687 0.443180 0.456211 -0.198493
N13   N     N_R   0.037354 0.645970 0.539257 -0.200872
N14   N     N_3   0.499950 0.500030 0.863290 -0.092555
N15   N     N_3   0.500050 0.499970 0.136710 -0.105753
N16   N     N_2   0.125036 0.406454 0.696600 -0.295666
N17   N     N_2   0.857254 0.736023 0.384970 -0.297586
N18   N     N_2   0.158443 0.681002 0.293138 -0.298786
O1    O     O_R   0.500000 0.313960 0.616610 -0.618793
O2    O     O_R   0.500000 0.686040 0.383390 -0.605198
O3    O     O_R   0.500030 0.313950 0.383350 -0.647725
O4    O     O_R   0.499970 0.686050 0.616650 -0.631233
O5    O     O_R   0.398120 0.499990 0.616660 -0.627472
O6    O     O_R   0.601880 0.500010 0.383340 -0.611194
O7    O     O_R   0.398150 0.499980 0.383410 -0.604027
O8    O     O_R   0.601850 0.500020 0.616590 -0.611864
Zn1   Zn    Zn3+2 0.499980 0.500010 0.655740 0.931865
Zn2   Zn    Zn3+2 0.500020 0.499990 0.344260 0.928973

loop_
_geom_bond_atom_site_label_1
_geom_bond_atom_site_label_2
_ccdc_geom_bond_type
C28   H45   S    
C35   H22   S    
C45   N5    S    
C23   C45   S    
C46   H60   S    
C43   N10   S    
C31   H9    S    
C1    O3    A    
C4    C8    S    
C26   N13   A    
C5    N14   S    
C48   H68   S    
C30   H2    S    
C38   H37   S    
C9    O7    A    
C2    N10   S    
H47   N8    S    
C8    N15   S    
C45   C50   S    
C13   C29   S    
C19   C21   A    
H55   N10   S    
C3    C7    S    
C40   H46   S    
C11   C14   A    
C9    C22   S    
C47   H69   S    
N15   Zn2   S    
C41   H50   S    
C15   C17   A    
C12   O4    A    
C6    N15   S    
C25   N12   A    
C39   H41   S    
H33   N5    S    
C15   N17   S    
C44   H63   S    
C49   C51   S    
C50   C52   S    
C37   H32   S    
H16   N18   S    
C43   H58   S    
H25   N3    S    
C33   H17   S    
C37   N4    S    
C2    C34   S    
O1    Zn1   S    
C34   N8    S    
C52   N9    S    
C31   H10   S    
C41   N8    S    
C43   H59   S    
C40   H44   S    
C39   H39   S    
C44   C46   S    
C2    C45   S    
C16   C26   S    
C35   H24   S    
C3    C44   S    
C34   C50   S    
C46   H62   S    
C38   N5    S    
C18   N18   S    
C20   N3    S    
C4    C6    S    
C36   H28   S    
O7    Zn2   S    
C27   H71   S    
C47   H70   S    
C48   H66   S    
C10   C24   S    
C30   H4    S    
C9    O5    A    
C12   O2    A    
C13   C24   A    
H20   N2    S    
C26   N1    A    
C31   H8    S    
C5    H23   S    
C35   N2    S    
O5    Zn1   S    
C29   C30   S    
C1    O1    A    
C5    C8    S    
C42   H54   S    
C23   C51   S    
C47   C48   S    
C11   C27   S    
C49   C52   S    
H11   N17   S    
C41   H48   S    
C23   N7    S    
C21   N4    S    
C1    C51   S    
C32   N17   S    
C6    C7    S    
C33   H18   S    
C8    H12   S    
C32   H15   S    
N1    N12   A    
C40   N7    S    
C20   C22   A    
C14   N16   S    
C42   N9    S    
H29   N4    S    
N14   Zn1   S    
C14   C16   A    
C37   H30   S    
C36   N3    S    
C3    N15   S    
C7    H1    S    
C40   H43   S    
C39   H40   S    
C32   H14   S    
C49   N6    S    
N11   N13   A    
C35   H21   S    
C34   C49   S    
C19   N2    S    
C46   H61   S    
O6    Zn2   S    
C29   H5    S    
C3    C5    S    
C36   H27   S    
C42   H52   S    
C7    N14   S    
C12   C50   S    
C27   H72   S    
C28   H67   S    
C48   H65   S    
C39   N6    S    
C33   N18   S    
C30   H3    S    
C11   C22   A    
H42   N7    S    
C6    H34   S    
C38   H35   S    
C17   C25   S    
C13   C15   A    
H51   N9    S    
O2    Zn2   S    
C36   H26   S    
C10   O8    A    
C23   C52   S    
H7    N16   S    
C28   H56   S    
C17   C19   A    
C41   H49   S    
C18   C20   A    
C25   N11   A    
C42   H53   S    
O3    Zn2   S    
C2    C51   S    
C33   H19   S    
C4    N14   S    
O4    Zn1   S    
H38   N6    S    
C29   H6    S    
C44   H64   S    
C16   C18   A    
C21   C24   A    
C38   H36   S    
C27   C28   S    
O8    Zn1   S    
C37   H31   S    
C43   H57   S    
C31   N16   S    
C10   O6    A    
C32   H13   S    
C4    C47   S    
