data_mof_unit_8690.cif
_audit_creation_date              2013-03-05T16:45:57-0500
_audit_creation_method            fapswitch 2.2
_symmetry_space_group_name_H-M    P1
_symmetry_Int_Tables_number       1
_space_group_crystal_system       triclinic
_cell_length_a                    9.849255
_cell_length_b                    10.676534
_cell_length_c                    16.867896
_cell_angle_alpha                 89.536213
_cell_angle_beta                  95.000429
_cell_angle_gamma                 90.093421
_cell_volume                      1766.94938762

loop_
_atom_site_label
_atom_site_type_symbol
_atom_site_description
_atom_site_fract_x
_atom_site_fract_y
_atom_site_fract_z
_atom_type_partial_charge
O1    O     O_R   0.614690 0.316790 0.499990 -0.620898
O2    O     O_R   0.385350 0.316760 0.500000 -0.623282
C1    C     C_R   0.500344 0.259881 0.502557 0.877500
O3    O     O_R   0.627460 0.498860 0.616130 -0.623402
O4    O     O_R   0.398120 0.498820 0.616130 -0.629764
C2    C     C_R   0.518138 0.498079 0.653304 0.859613
Zn1   Zn    Zn3+2 0.653130 0.500020 0.499990 0.950509
Zn2   Zn    Zn3+2 0.346870 0.499980 0.500010 0.977455
O5    O     O_R   0.614650 0.683240 0.500000 -0.626638
O6    O     O_R   0.385310 0.683210 0.500010 -0.615505
O7    O     O_R   0.601880 0.501180 0.383870 -0.621168
O8    O     O_R   0.372540 0.501140 0.383870 -0.573375
C3    C     C_R   0.500432 0.740101 0.502459 0.912745
C4    C     C_R   0.481459 0.502524 0.346794 0.938559
C5    C     C_R   0.528073 0.490944 0.739432 -0.024525
C6    C     C_R   0.412415 0.517821 0.778700 -0.235324
C7    C     C_R   0.415463 0.502006 0.859967 -0.156937
C8    C     C_R   0.534993 0.458435 0.903561 0.327090
C9    C     C_R   0.651670 0.435088 0.864615 -0.184813
C10   C     C_R   0.648479 0.450961 0.782592 -0.218297
C11   C     C_R   0.550898 0.400782 0.144472 -0.137063
C12   C     C_R   0.564779 0.421275 0.225491 -0.262750
C13   C     C_R   0.439091 0.451707 0.097896 0.265926
N1    N     N_2   0.543498 0.445122 0.987012 -0.189755
N2    N     N_2   0.430342 0.449700 0.014455 -0.192373
C14   C     C_R   0.467568 0.492447 0.260934 -0.161514
H1    H     H_    0.650977 0.380151 0.260669 0.182000
H2    H     H_    0.628231 0.347059 0.118008 0.163099
H3    H     H_    0.744613 0.403765 0.897891 0.146337
H4    H     H_    0.738617 0.429501 0.753000 0.153006
C15   C     C_R   0.353376 0.542240 0.214601 0.299241
C16   C     C_R   0.339000 0.517977 0.133284 -0.248131
H5    H     H_    0.324287 0.524690 0.888392 0.152949
H6    H     H_    0.254512 0.558320 0.096236 0.180033
H7    H     H_    0.318961 0.550626 0.746619 0.157561
C17   C     C_R   0.625611 0.063990 0.516572 0.119935
C18   C     C_R   0.502717 0.128437 0.515594 -0.096651
C19   C     C_R   0.382916 0.064194 0.530037 -0.215662
H8    H     H_    0.287833 0.112868 0.535541 0.165720
C20   C     C_R   0.383000 0.934699 0.529984 -0.205239
H9    H     H_    0.287951 0.885505 0.535528 0.168830
C21   C     C_R   0.502891 0.871279 0.515475 -0.096745
C22   C     C_R   0.625736 0.936212 0.516554 0.125553
C23   C     C_3   0.736101 0.930222 0.461182 -0.472479
C24   C     C_3   0.735816 0.072208 0.461131 -0.461163
H10   H     H_    0.831662 0.889382 0.490392 0.198543
H11   H     H_    0.700905 0.889426 0.402469 0.215414
H12   H     H_    0.831232 0.113156 0.490155 0.199752
H13   H     H_    0.700222 0.114154 0.402409 0.209310
C25   C     C_R   0.075621 0.400091 0.530424 0.218790
N3    N     N_R   0.142860 0.499130 0.500540 -0.116735
C26   C     C_R   0.066662 0.592671 0.462964 -0.093694
H14   H     H_    0.116912 0.668636 0.434342 0.187630
C27   C     C_R   0.922559 0.592583 0.462869 -0.120724
H15   H     H_    0.864001 0.668225 0.433961 0.156570
N4    N     N_R   0.857210 0.499170 0.500530 -0.111294
C28   C     C_R   0.932994 0.400189 0.530475 0.218605
C29   C     C_3   0.939627 0.352304 0.613920 -0.521039
C30   C     C_3   0.093784 0.351799 0.613824 -0.507878
H16   H     H_    0.902125 0.421765 0.655528 0.213420
H17   H     H_    0.894985 0.256986 0.617728 0.201000
H18   H     H_    0.144984 0.420347 0.655759 0.217896
H19   H     H_    0.138165 0.256080 0.617324 0.196851
N5    N     N_R   0.256260 0.622541 0.247870 0.212044
O9    O     O_R   0.128789 0.620200 0.220117 -0.396056
O10   O     O_R   0.297805 0.711013 0.296838 -0.408616

loop_
_geom_bond_atom_site_label_1
_geom_bond_atom_site_label_2
_geom_bond_distance
_ccdc_geom_bond_type
C7    C8    1.410129 A    
O4    Zn2   1.979578 S    
C19   C20   1.382571 A    
C22   C23   1.495402 S    
N1    N2    1.244698 D    
C20   H9    1.083446 S    
C18   C19   1.402445 A    
N4    C28   1.362804 A    
C30   H19   1.111269 S    
C9    C10   1.390186 A    
C23   H11   1.112367 S    
C24   H13   1.112390 S    
Zn2   O8    1.996959 S    
C13   C16   1.393005 A    
C26   C27   1.419174 A    
C29   H17   1.111533 S    
C20   C21   1.402998 A    
O2    C1    1.283250 A    
C29   C30   1.518492 S    
C14   C15   1.414348 A    
C6    H7    1.083455 S    
C10   H4    1.081471 S    
C11   C12   1.380729 A    
C4    C14   1.447668 S    
Zn1   O7    1.979578 S    
Zn2   N3    2.010151 S    
N5    O10   1.301670 A    
C28   C29   1.489727 S    
O4    C2    1.288930 A    
C7    H5    1.082871 S    
Zn1   N4    2.009298 S    
O3    Zn1   1.996959 S    
C8    N1    1.408876 S    
C25   C30   1.490491 S    
N5    O9    1.301414 A    
Zn2   O6    1.991955 S    
C17   C18   1.392071 A    
C11   H2    1.083162 S    
O8    C4    1.287994 A    
C25   N3    1.363097 A    
C12   H1    1.083893 S    
C13   N2    1.402928 S    
C11   C13   1.403466 A    
C5    C10   1.401694 A    
O7    C4    1.291759 A    
C27   N4    1.368003 A    
C21   C22   1.392308 A    
C29   H16   1.110622 S    
N3    C26   1.368082 A    
C9    H3    1.083171 S    
C17   C24   1.495240 S    
C19   H8    1.083158 S    
C23   C24   1.515918 S    
C1    C18   1.418646 S    
O3    C2    1.292368 A    
C8    C9    1.396244 A    
C12   C14   1.400381 A    
C24   H12   1.111712 S    
Zn1   O5    1.993141 S    
O5    C3    1.283184 A    
C27   H15   1.081072 S    
C3    C21   1.419229 S    
C17   C22   1.364230 A    
C23   H10   1.111651 S    
C30   H18   1.111421 S    
C2    C5    1.448933 S    
O1    Zn1   1.991955 S    
C25   C28   1.404846 A    
C15   N5    1.438373 S    
C5    C6    1.397999 A    
O2    Zn2   1.993142 S    
C15   C16   1.392951 A    
C26   H14   1.081585 S    
C6    C7    1.377537 A    
O1    C1    1.282682 A    
O6    C3    1.283082 A    
C16   H6    1.083821 S    
