data_mof_unit_54119.cif
_audit_creation_date              2012-12-10T17:22:01-0500
_audit_creation_method            fapswitch 2.2
_symmetry_space_group_name_H-M    P1
_symmetry_Int_Tables_number       1
_space_group_crystal_system       triclinic
_cell_length_a                    10.192476
_cell_length_b                    10.765109
_cell_length_c                    15.763116
_cell_angle_alpha                 90.414209
_cell_angle_beta                  81.470774
_cell_angle_gamma                 94.241589
_cell_volume                      1705.75254464

loop_
_atom_site_label
_atom_site_type_symbol
_atom_type_description
_atom_site_fract_x
_atom_site_fract_y
_atom_site_fract_z
_atom_type_partial_charge
Br1   Br    Br    0.391713 0.735268 0.129058 -0.239402
Br2   Br    Br    0.464980 0.059333 0.630447 -0.345874
Br3   Br    Br    0.329161 0.861008 0.407051 -0.279448
Br4   Br    Br    0.402629 0.150582 0.347646 -0.300252
Br5   Br    Br    0.740708 0.945246 0.508344 -0.290568
Br6   Br    Br    0.772670 0.434107 0.860420 -0.300582
Br7   Br    Br    0.702846 0.682832 0.076697 -0.215180
C1    C     C_R   0.553907 0.732755 0.488965 0.891143
C2    C     C_2   0.473823 0.931930 0.465219 0.215593
C3    C     C_2   0.419464 0.147403 0.467722 0.079694
C4    C     C_R   0.500578 0.501278 0.661374 0.916449
C5    C     C_2   0.453484 0.050023 0.508840 0.158445
C6    C     C_2   0.923736 0.510159 0.508531 -0.014632
C7    C     C_2   0.069858 0.490826 0.494542 0.011599
C8    C     C_R   0.445233 0.268319 0.501490 0.906520
C9    C     C_R   0.499353 0.498643 0.338538 0.882143
C10   C     C_3   0.403039 0.597036 0.960008 0.512836
C11   C     C_3   0.639129 0.524396 0.936360 -0.088859
C12   C     C_3   0.399048 0.581375 0.060110 -0.059839
C13   C     C_3   0.643090 0.517402 0.035832 0.489384
C14   C     C_1   0.496513 0.490126 0.250311 0.035083
C15   C     C_3   0.492806 0.491683 0.917083 -0.324356
C16   C     C_3   0.494220 0.478365 0.083897 -0.360435
C17   C     C_3   0.430714 0.343960 0.056096 0.455217
C18   C     C_3   0.449782 0.352482 0.954134 0.085702
C19   C     C_1   0.494676 0.482582 0.175399 0.253478
C20   C     C_1   0.496757 0.495779 0.825306 0.247535
C21   C     C_1   0.500260 0.499553 0.749876 0.031174
C22   C     C_2   0.576988 0.866807 0.479721 0.051849
H1    H     H_    0.298006 0.549874 0.086683 0.240088
H2    H     H_    0.307363 0.874739 0.898319 0.423419
H3    H     H_    0.879656 0.264060 0.037438 0.418608
H4    H     H_    0.506815 0.118052 0.846472 0.394920
H5    H     H_    0.063821 0.389432 0.124312 0.414060
H6    H     H_    0.105012 0.421693 0.447815 0.133862
H7    H     H_    0.882081 0.576079 0.555158 0.230420
H8    H     H_    0.882374 0.386082 0.421001 0.205007
H9    H     H_    0.672872 0.619743 0.913838 0.239145
H10   H     H_    0.544421 0.309839 0.935289 0.183321
H11   H     H_    0.093598 0.448576 0.887258 0.430648
H12   H     H_    0.461293 0.027524 0.152307 0.421457
H13   H     H_    0.208570 0.795600 0.687314 0.406025
N1    N     N_2   0.842720 0.448890 0.465540 -0.202647
N2    N     N_2   0.157250 0.551040 0.534500 0.062768
O1    O     O_R   0.431050 0.692470 0.506940 -0.556121
O2    O     O_2   0.237736 0.649492 0.844827 -0.254435
O3    O     O_3   0.171682 0.439765 0.916802 -0.427884
O4    O     O_2   0.593897 0.146752 0.017002 -0.193333
O5    O     O_2   0.599198 0.243655 0.157633 -0.232425
O6    O     O_3   0.405230 0.092917 0.137164 -0.372094
O7    O     O_2   0.044827 0.763511 0.568435 -0.242159
O8    O     O_2   0.012618 0.604645 0.682200 -0.244248
O9    O     O_3   0.242784 0.727961 0.649241 -0.451125
O10   O     O_2   0.582767 0.812393 0.957512 -0.182505
O11   O     O_2   0.496200 0.760605 0.825968 -0.291668
O12   O     O_R   0.651130 0.659650 0.484820 -0.586966
O13   O     O_3   0.341003 0.853166 0.951733 -0.367063
O14   O     O_2   0.908556 0.509897 0.025569 -0.177590
O15   O     O_2   0.779633 0.429171 0.157710 -0.262590
O16   O     O_3   0.796793 0.292178 0.020547 -0.426242
O17   O     O_2   0.212064 0.210272 0.938218 -0.096273
O18   O     O_2   0.347457 0.277828 0.805639 -0.283023
O19   O     O_3   0.427999 0.104384 0.891274 -0.430894
O20   O     O_2   0.204955 0.178919 0.098084 -0.102235
O21   O     O_2   0.251437 0.332260 0.204354 -0.296420
O22   O     O_3   0.140474 0.397347 0.077576 -0.488370
O23   O     O_R   0.389910 0.516410 0.633920 -0.538275
O24   O     O_R   0.609990 0.483590 0.611800 -0.612387
O25   O     O_R   0.348870 0.340350 0.515180 -0.610983
O26   O     O_R   0.568950 0.307530 0.493060 -0.586139
O27   O     O_R   0.390010 0.516410 0.388200 -0.614372
O28   O     O_R   0.610090 0.483590 0.366080 -0.582093
O29   O     O_2   0.143871 0.649260 0.996114 -0.158666
S1    S     S_3+6 0.235663 0.584751 0.929360 0.134804
S2    S     S_3+6 0.512816 0.207526 0.091094 0.171664
S3    S     S_3+6 0.109401 0.663361 0.609743 0.183353
S4    S     S_3+6 0.463155 0.757270 0.922191 0.139709
S5    S     S_3+6 0.782989 0.435098 0.062129 0.134739
S6    S     S_3+6 0.352763 0.238541 0.896151 0.164748
S7    S     S_3+6 0.255071 0.311816 0.109618 0.128720
Zn1   Zn    Zn3+2 0.353060 0.521920 0.514770 1.137124
Zn2   Zn    Zn3+2 0.646940 0.478080 0.485230 1.068204

loop_
_geom_bond_atom_site_label_1
_geom_bond_atom_site_label_2
_ccdc_geom_bond_type
H11   O3    S    
C14   C19   T    
C9    C14   S    
O29   S1    D    
C9    O28   A    
C6    N1    D    
Br2   C5    S    
H5    O22   S    
O19   S6    S    
O16   S5    S    
C1    C22   S    
C3    C8    S    
H13   O9    S    
O11   S4    D    
C16   C19   S    
N2    S3    S    
C1    O1    A    
C17   S7    S    
C15   C18   S    
C16   C17   S    
O5    S2    D    
C2    C22   D    
O10   S4    D    
O21   S7    D    
C18   S6    S    
C6    C7    S    
O20   S7    D    
O4    S2    D    
C1    O12   A    
C9    O27   A    
Br6   C11   S    
O15   S5    D    
C4    O23   A    
Br5   C22   S    
C8    O25   A    
Br1   C12   S    
O13   S4    S    
O18   S6    D    
O7    S3    D    
C6    H7    S    
N2    Zn1   S    
C7    H6    S    
H8    N1    S    
C12   C16   S    
Br3   C2    S    
C13   C16   S    
H4    O19   S    
C10   S4    S    
C17   C18   S    
C3    C5    D    
O23   Zn1   S    
C15   C20   S    
C10   S1    S    
O9    S3    S    
H3    O16   S    
Br4   C3    S    
H12   O6    S    
O2    S1    D    
C4    O24   A    
C7    N2    D    
C8    O26   A    
C11   C15   S    
O1    Zn1   S    
O3    S1    S    
O8    S3    D    
C17   S2    S    
O12   Zn2   S    
O22   S7    S    
C10   C15   S    
C13   S5    S    
O24   Zn2   S    
H2    O13   S    
C11   H9    S    
O6    S2    S    
C18   H10   S    
C4    C21   S    
O17   S6    D    
C10   C12   S    
C11   C13   S    
O26   Zn2   S    
C2    C5    S    
O25   Zn1   S    
O14   S5    D    
Br7   C13   S    
C20   C21   T    
N1    Zn2   S    
C12   H1    S    
O28   Zn2   S    
O27   Zn1   S    
