data_mof_unit_27746.cif
_audit_creation_date              2012-12-11T15:49:12-0500
_audit_creation_method            fapswitch 2.2
_symmetry_space_group_name_H-M    P1
_symmetry_Int_Tables_number       1
_space_group_crystal_system       triclinic
_cell_length_a                    21.616489
_cell_length_b                    7.181748
_cell_length_c                    14.874235
_cell_angle_alpha                 89.576311
_cell_angle_beta                  106.267024
_cell_angle_gamma                 89.819249
_cell_volume                      2216.60240617

loop_
_atom_site_label
_atom_site_type_symbol
_atom_type_description
_atom_site_fract_x
_atom_site_fract_y
_atom_site_fract_z
_atom_type_partial_charge
O1    O     O_R   0.335860 0.638190 0.002110 -0.541944
O2    O     O_R   0.664140 0.361810 0.997890 -0.541944
O3    O     O_R   0.164140 0.138190 0.997890 -0.542133
O4    O     O_R   0.835860 0.861810 0.002110 -0.542133
O5    O     O_R   0.217530 0.305920 0.861960 -0.535851
O6    O     O_R   0.782470 0.694080 0.138040 -0.535851
O7    O     O_R   0.282470 0.805920 0.138040 -0.536199
O8    O     O_R   0.717530 0.194080 0.861960 -0.536199
C1    C     C_R   0.205823 0.477644 0.825916 0.682019
C2    C     C_R   0.794177 0.522356 0.174084 0.682020
C3    C     C_R   0.294255 0.975834 0.174183 0.683787
C4    C     C_R   0.705745 0.024166 0.825817 0.683787
O9    O     O_R   0.338690 0.308320 0.993240 -0.515239
O10   O     O_R   0.661310 0.691680 0.006760 -0.515239
O11   O     O_R   0.161310 0.808320 0.006760 -0.514924
O12   O     O_R   0.838690 0.191680 0.993240 -0.514924
O13   O     O_R   0.286170 0.140430 0.130100 -0.539336
O14   O     O_R   0.713830 0.859570 0.869900 -0.539336
O15   O     O_R   0.213830 0.640430 0.869900 -0.540015
O16   O     O_R   0.786170 0.359570 0.130100 -0.540015
C5    C     C_R   0.364635 0.476623 0.996255 0.725972
C6    C     C_R   0.635365 0.523377 0.003745 0.725971
C7    C     C_R   0.135395 0.977049 0.003851 0.727886
C8    C     C_R   0.864605 0.022951 0.996149 0.727887
O17   O     O_3   0.232630 0.472410 0.044750 -0.364511
O18   O     O_3   0.767370 0.527590 0.955250 -0.364511
O19   O     O_3   0.267370 0.972410 0.955250 -0.364900
O20   O     O_3   0.732630 0.027590 0.044750 -0.364901
V1    V     V_3+5 0.253220 0.196620 0.991700 1.524545
V2    V     V_3+5 0.746780 0.803380 0.008300 1.524545
V3    V     V_3+5 0.246780 0.696620 0.008300 1.525078
V4    V     V_3+5 0.753220 0.303380 0.991700 1.525078
C9    C     C_R   0.038578 0.857508 0.052932 0.281630
C10   C     C_R   0.961423 0.142493 0.947069 0.281629
C11   C     C_R   0.462707 0.353094 0.951178 0.283277
C12   C     C_R   0.537293 0.646905 0.048823 0.283277
C13   C     C_R   0.973024 0.871109 0.048368 -0.183248
C14   C     C_R   0.026976 0.128891 0.951633 -0.183249
C15   C     C_R   0.528119 0.367868 0.955462 -0.180586
C16   C     C_R   0.471881 0.632132 0.044538 -0.180586
H1    H     H_    0.953095 0.771823 0.087753 0.157142
H2    H     H_    0.046905 0.228177 0.912247 0.157142
H3    H     H_    0.548896 0.265606 0.919067 0.164787
H4    H     H_    0.451104 0.734394 0.080933 0.164787
C17   C     C_R   0.933575 0.012984 0.996287 -0.137679
C18   C     C_R   0.066425 0.987016 0.003713 -0.137678
C19   C     C_R   0.566354 0.513944 0.003482 -0.146446
C20   C     C_R   0.433646 0.486056 0.996518 -0.146446
C21   C     C_R   0.677825 0.020768 0.724359 -0.032130
C22   C     C_R   0.322175 0.979232 0.275641 -0.032131
C23   C     C_R   0.822204 0.510138 0.275314 -0.028430
C24   C     C_R   0.177796 0.489862 0.724686 -0.028429
C25   C     C_R   0.687884 0.075260 0.568903 -0.159481
C26   C     C_R   0.312116 0.924741 0.431097 -0.159481
C27   C     C_R   0.811120 0.446912 0.429429 -0.158714
C28   C     C_R   0.188880 0.553089 0.570571 -0.158714
C29   C     C_R   0.715820 0.063042 0.665143 -0.152617
C30   C     C_R   0.284180 0.936959 0.334857 -0.152617
C31   C     C_R   0.783402 0.469628 0.333573 -0.151059
C32   C     C_R   0.216598 0.530372 0.666427 -0.151059
C33   C     C_R   0.611619 0.992113 0.687493 -0.211788
C34   C     C_R   0.388381 0.007887 0.312507 -0.211788
C35   C     C_R   0.888839 0.527763 0.312632 -0.210461
C36   C     C_R   0.111161 0.472237 0.687368 -0.210462
C37   C     C_R   0.581488 0.008916 0.590047 0.086008
C38   C     C_R   0.418512 0.991085 0.409953 0.086009
C39   C     C_R   0.918559 0.502839 0.409705 0.087013
C40   C     C_R   0.081441 0.497161 0.590295 0.087013
C41   C     C_R   0.621273 0.050077 0.531046 0.128619
C42   C     C_R   0.378727 0.949924 0.468954 0.128619
C43   C     C_R   0.878104 0.461984 0.467778 0.125684
C44   C     C_R   0.121896 0.538016 0.532222 0.125684
C45   C     C_R   0.513445 0.989413 0.549570 0.049583
C46   C     C_R   0.486555 0.010588 0.450430 0.049583
C47   C     C_R   0.986770 0.514775 0.450669 0.049058
C48   C     C_R   0.013230 0.485225 0.549331 0.049059
C49   C     C_R   0.528622 0.049466 0.395093 -0.167840
C50   C     C_R   0.471378 0.950535 0.604907 -0.167841
C51   C     C_R   0.970612 0.445240 0.603699 -0.168785
C52   C     C_R   0.029388 0.554760 0.396301 -0.168784
C53   C     C_R   0.594418 0.068538 0.434783 -0.176907
C54   C     C_R   0.405582 0.931464 0.565217 -0.176907
C55   C     C_R   0.904608 0.434412 0.563575 -0.178315
C56   C     C_R   0.095392 0.565588 0.436425 -0.178315
H5    H     H_    0.624624 0.099501 0.389429 0.145393
H6    H     H_    0.375376 0.900501 0.610570 0.145393
H7    H     H_    0.873942 0.402909 0.608200 0.154447
H8    H     H_    0.126058 0.597091 0.391800 0.154448
H9    H     H_    0.414833 0.037366 0.262593 0.105421
H10   H     H_    0.585167 0.962633 0.737406 0.105421
H11   H     H_    0.084223 0.442774 0.736671 0.101525
H12   H     H_    0.915777 0.557225 0.263329 0.101525
H13   H     H_    0.233017 0.912073 0.306416 0.135762
H14   H     H_    0.766983 0.087928 0.693584 0.135762
H15   H     H_    0.268202 0.545754 0.695314 0.125432
H16   H     H_    0.731798 0.454246 0.304686 0.125433
H17   H     H_    0.718246 0.107873 0.524028 0.118341
H18   H     H_    0.281753 0.892129 0.475972 0.118341
H19   H     H_    0.780208 0.415182 0.473616 0.118451
H20   H     H_    0.219792 0.584819 0.526384 0.118451
H21   H     H_    0.512468 0.066889 0.320244 0.147197
H22   H     H_    0.487532 0.933113 0.679755 0.147196
H23   H     H_    0.986460 0.420702 0.678084 0.152891
H24   H     H_    0.013539 0.579298 0.321916 0.152891
Br1   Br    Br    0.087645 0.665928 0.133004 -0.581474
Br2   Br    Br    0.912356 0.334077 0.866999 -0.581472
Br3   Br    Br    0.415820 0.154018 0.876902 -0.565938
Br4   Br    Br    0.584180 0.845979 0.123100 -0.565938

loop_
_geom_bond_atom_site_label_1
_geom_bond_atom_site_label_2
_ccdc_geom_bond_type
O17   V3    S    
C55   H7    S    
O1    C5    A    
C27   C31   A    
O19   V1    S    
O13   V1    S    
C45   C46   A    
O3    C7    A    
C48   C51   A    
C52   C56   A    
O15   V3    S    
C4    C21   S    
C21   C29   A    
O18   V4    S    
C52   H24   S    
C8    C17   S    
C36   C40   A    
O9    V1    S    
C30   H13   S    
C14   H2    S    
O16   V4    S    
O4    C8    A    
C12   Br4   S    
C2    C23   S    
C38   C46   A    
C34   H9    S    
O1    V3    S    
C37   C45   A    
C12   C19   A    
O2    V4    S    
O3    V1    S    
C24   C32   A    
C49   H21   S    
C1    O15   A    
C2    O16   A    
C28   C44   A    
C46   C49   A    
C35   H12   S    
O2    C6    A    
C45   C50   A    
O14   V2    S    
C47   C52   A    
C43   C55   A    
C40   C44   A    
C5    C20   S    
O11   C7    A    
C6    C19   S    
C25   C41   A    
O12   C8    A    
C7    C18   S    
C9    C18   A    
C27   H19   S    
C51   H23   S    
C1    C24   S    
O10   V2    S    
C11   C20   A    
C53   H5    S    
O7    C3    A    
O5    V1    S    
C35   C39   A    
O7    V3    S    
C34   C38   A    
O9    C5    A    
C22   C30   A    
C12   C16   A    
C23   C35   A    
C24   C36   A    
C25   C29   A    
C15   H3    S    
C25   H17   S    
C54   H6    S    
C9    C13   A    
C28   C32   A    
O8    V4    S    
C11   C15   A    
C47   C48   A    
O5    C1    A    
C50   C54   A    
C26   C42   A    
C49   C53   A    
O8    C4    A    
C9    Br1   S    
C10   C17   A    
C40   C48   A    
C44   C56   A    
C41   C53   A    
O6    V2    S    
C29   H14   S    
C22   C34   A    
C23   C31   A    
C31   H16   S    
C28   H20   S    
C13   C17   A    
C33   H10   S    
C15   C19   A    
C26   C30   A    
C16   C20   A    
C3    O13   A    
C10   C14   A    
C56   H8    S    
O6    C2    A    
O11   V3    S    
O12   V4    S    
O10   C6    A    
O20   V2    S    
C3    C22   S    
C51   C55   A    
C21   C33   A    
C38   C42   A    
C37   C41   A    
C10   Br2   S    
C39   C43   A    
C13   H1    S    
C42   C54   A    
O4    V2    S    
C14   C18   A    
C11   Br3   S    
C32   H15   S    
C33   C37   A    
C16   H4    S    
C39   C47   A    
C4    O14   A    
C26   H18   S    
C50   H22   S    
C36   H11   S    
C27   C43   A    
