data_mof_unit_24470.cif
_audit_creation_date              2012-10-26T20:32:53-0400
_audit_creation_method            fapswitch 2.2
_symmetry_space_group_name_H-M    P1
_symmetry_Int_Tables_number       1
_space_group_crystal_system       triclinic
_cell_length_a                    27.798373
_cell_length_b                    10.822281
_cell_length_c                    9.541874
_cell_angle_alpha                 90.121076
_cell_angle_beta                  90.39031
_cell_angle_gamma                 90.649777
_cell_volume                      2870.33650294

loop_
_atom_site_label
_atom_site_type_symbol
_atom_type_description
_atom_site_fract_x
_atom_site_fract_y
_atom_site_fract_z
_atom_type_partial_charge
C1    C     C_R   0.498690 0.262362 0.499820 0.543621
C2    C     C_R   0.973869 0.375363 0.520611 0.018097
C3    C     C_R   0.974185 0.588386 0.427717 0.018184
C4    C     C_R   0.407440 0.499536 0.499487 0.542486
C5    C     C_R   0.948761 0.481342 0.473521 0.034611
C6    C     C_R   0.946646 0.273106 0.569863 -0.140268
C7    C     C_R   0.896685 0.274110 0.570307 -0.109423
C8    C     C_R   0.871714 0.376927 0.522022 0.025906
C9    C     C_R   0.897577 0.480575 0.472924 -0.026484
C10   C     C_R   0.872116 0.583782 0.423974 0.023830
C11   C     C_R   0.821638 0.582096 0.426599 0.401609
C12   C     C_R   0.279014 0.500348 0.367952 -0.056218
C13   C     C_R   0.821202 0.379351 0.523824 0.402225
C14   C     C_R   0.717517 0.407779 0.399535 -0.054552
C15   C     C_R   0.667519 0.413414 0.405488 -0.164187
C16   C     C_R   0.499243 0.737734 0.500034 0.595284
C17   C     C_R   0.673502 0.573937 0.583971 0.088112
C18   C     C_R   0.723794 0.566918 0.577851 -0.027286
C19   C     C_R   0.745805 0.484475 0.485691 0.217509
C20   C     C_R   0.025039 0.375443 0.518461 0.018335
C21   C     C_R   0.050418 0.484552 0.478923 0.034383
C22   C     C_R   0.025271 0.591705 0.435686 0.018369
C23   C     C_R   0.253465 0.492863 0.493613 0.242297
C24   C     C_R   0.052014 0.269796 0.554556 -0.140731
C25   C     C_R   0.102258 0.700654 0.409132 -0.111565
C26   C     C_R   0.947354 0.688745 0.374960 -0.140456
C27   C     C_R   0.897415 0.686363 0.373627 -0.109788
C28   C     C_R   0.592407 0.499558 0.500095 0.591497
C29   C     C_R   0.052340 0.699468 0.403502 -0.140846
C30   C     C_R   0.492197 0.064122 0.625342 -0.008651
C31   C     C_R   0.493262 0.129333 0.499425 0.009365
C32   C     C_R   0.487500 0.063850 0.372833 -0.157539
C33   C     C_R   0.487815 0.934968 0.373112 -0.137562
C34   C     C_R   0.101591 0.486651 0.482982 -0.026947
C35   C     C_R   0.494498 0.870777 0.499657 0.030312
C36   C     C_R   0.493580 0.937015 0.625315 0.032917
C37   C     C_3   0.526080 0.935278 0.751367 -0.022537
C38   C     C_3   0.523513 0.075905 0.752655 -0.245339
C39   C     C_R   0.526415 0.586432 0.074706 0.199920
C40   C     C_R   0.177703 0.384641 0.525772 0.398594
C41   C     C_R   0.470699 0.422473 0.073648 -0.027118
C42   C     C_R   0.470664 0.422563 0.924751 -0.017445
C43   C     C_R   0.526627 0.585360 0.927052 0.124997
C44   C     C_3   0.579809 0.601385 0.922137 -0.221549
C45   C     C_R   0.127186 0.380590 0.522541 0.024574
C46   C     C_3   0.579871 0.604229 0.081058 0.127309
C47   C     C_R   0.177798 0.595160 0.452728 0.398568
C48   C     C_R   0.278391 0.487818 0.621479 -0.055524
C49   C     C_R   0.328584 0.490425 0.623749 -0.142059
C50   C     C_R   0.329153 0.502663 0.369871 -0.142508
C51   C     C_R   0.101978 0.272688 0.556784 -0.111468
C52   C     C_R   0.127313 0.594896 0.447676 0.024456
C53   C     C_R   0.354436 0.497811 0.497842 0.006288
C54   C     C_R   0.645165 0.495234 0.498293 0.054548
Cu1   Cu    Cu3+1 0.500000 0.499980 0.640670 0.963076
Cu2   Cu    Cu3+1 0.500000 0.500020 0.359330 0.983182
H1    H     H_    0.348051 0.508284 0.271175 0.131183
H2    H     H_    0.509447 0.889603 0.843668 0.191864
H3    H     H_    0.259932 0.504031 0.268758 0.131073
H4    H     H_    0.503445 0.112450 0.843894 0.123009
H5    H     H_    0.558181 0.124456 0.731293 0.149814
H6    H     H_    0.447723 0.357944 0.128951 0.118434
H7    H     H_    0.447643 0.358128 0.868242 0.120169
H8    H     H_    0.598233 0.519027 0.879300 0.139204
H9    H     H_    0.590079 0.690168 0.872716 0.217995
H10   H     H_    0.599341 0.525451 0.128671 0.115948
H11   H     H_    0.120819 0.189312 0.585629 0.168517
H12   H     H_    0.258814 0.482325 0.719029 0.131541
H13   H     H_    0.646166 0.353384 0.337934 0.120515
H14   H     H_    0.734324 0.344565 0.327189 0.148893
H15   H     H_    0.877662 0.193589 0.609718 0.169864
H16   H     H_    0.962710 0.190989 0.611830 0.111136
H17   H     H_    0.035761 0.182042 0.579982 0.109543
H18   H     H_    0.347076 0.486355 0.723865 0.129821
H19   H     H_    0.676902 0.711192 0.732356 0.242179
H20   H     H_    0.636462 0.730891 0.603403 0.274582
H21   H     H_    0.588113 0.935335 0.631786 0.248242
H22   H     H_    0.596688 0.912154 0.804384 0.265796
H23   H     H_    0.121177 0.785585 0.383275 0.168459
H24   H     H_    0.572473 0.939799 0.131508 0.362420
H25   H     H_    0.963729 0.770648 0.331739 0.111407
H26   H     H_    0.878670 0.766099 0.333164 0.170694
H27   H     H_    0.746057 0.627084 0.642675 0.135133
H28   H     H_    0.036158 0.786011 0.375916 0.109576
H29   H     H_    0.485087 0.111553 0.273395 0.134429
H30   H     H_    0.485090 0.886408 0.274024 0.179256
N1    N     N_R   0.201868 0.490918 0.491125 -0.398529
N2    N     N_R   0.797300 0.481363 0.477442 -0.399024
N3    N     N_R   0.500300 0.500930 0.147930 -0.262396
N4    N     N_R   0.500310 0.500890 0.852020 -0.243560
N5    N     N_3   0.651200 0.664995 0.670518 -0.619814
N6    N     N_3   0.574198 0.889774 0.719580 -0.617774
O1    O     O_R   0.500000 0.319640 0.618810 -0.510238
O2    O     O_R   0.569730 0.499960 0.618810 -0.484803
O3    O     O_R   0.569740 0.500000 0.381220 -0.489628
O4    O     O_2   0.202504 0.282986 0.562146 -0.491807
O5    O     O_2   0.597587 0.749742 0.306898 -0.270893
O6    O     O_2   0.647707 0.782534 0.100020 -0.267304
O7    O     O_3   0.559706 0.861142 0.092226 -0.584261
O8    O     O_2   0.796193 0.281319 0.573297 -0.489384
O9    O     O_2   0.202673 0.698938 0.420313 -0.490923
O10   O     O_2   0.797014 0.680335 0.378673 -0.473363
O11   O     O_R   0.500010 0.319680 0.381230 -0.520025
O12   O     O_R   0.430260 0.500000 0.618780 -0.509882
O13   O     O_R   0.430270 0.500040 0.381190 -0.512493
O14   O     O_R   0.499990 0.680320 0.618770 -0.481769
O15   O     O_R   0.500000 0.680360 0.381190 -0.466605
S1    S     S_3+6 0.597740 0.752326 0.149558 -0.002634

loop_
_geom_bond_atom_site_label_1
_geom_bond_atom_site_label_2
_ccdc_geom_bond_type
C10   C27   A    
Cu2   O3    S    
C41   N3    A    
Cu1   Cu2   S    
H21   N6    S    
C8    C13   A    
C47   O9    S    
C22   C29   A    
C4    C53   S    
C41   C42   A    
C35   C36   A    
C17   N5    S    
Cu1   O1    S    
C7    C8    A    
C44   H8    S    
C6    H16   S    
O7    S1    S    
C12   C23   A    
C26   C27   A    
C28   O3    A    
C40   N1    A    
C36   C37   S    
C46   H10   S    
Cu1   N4    S    
C16   C35   S    
C7    H15   S    
C30   C31   A    
C24   H17   S    
C45   C51   A    
C1    C31   S    
O6    S1    D    
C30   C38   S    
C28   O2    A    
C18   C19   A    
C16   O15   A    
O5    S1    D    
C20   C24   A    
C8    C9    A    
C46   S1    S    
C9    C10   A    
C1    O11   A    
C37   H2    S    
H19   N5    S    
C38   H5    S    
C24   C51   A    
C23   N1    S    
C21   C22   A    
C14   H14   S    
C44   H9    S    
C2    C6    A    
C41   H6    S    
C40   O4    S    
Cu1   O2    S    
C44   C46   S    
C18   H27   S    
C27   H26   S    
C25   C29   A    
C40   C45   A    
C15   H13   S    
C43   N4    A    
Cu1   O14   S    
C2    C20   A    
C50   C53   A    
C15   C54   A    
C29   H28   S    
C19   N2    S    
C28   C54   S    
C39   C43   A    
C21   C34   A    
H22   N6    S    
Cu1   O12   S    
C42   N4    A    
C47   N1    A    
C43   C44   S    
Cu2   O15   S    
C5    C9    A    
C37   C38   S    
C31   C32   A    
C14   C15   A    
C11   N2    A    
C17   C18   A    
C34   C45   A    
C51   H11   S    
C48   H12   S    
C17   C54   A    
C47   C52   A    
C39   C46   S    
C38   H4    S    
C48   C49   A    
C26   H25   S    
H24   O7    S    
C2    C5    A    
Cu2   N3    S    
C23   C48   A    
C37   N6    S    
C25   H23   S    
C50   H1    S    
C14   C19   A    
C3    C26   A    
Cu2   O11   S    
C3    C5    A    
C12   C50   A    
C6    C7    A    
C16   O14   A    
C4    O13   A    
C34   C52   A    
C30   C36   A    
C32   C33   A    
C13   O8    S    
C25   C52   A    
C49   C53   A    
C32   H29   S    
C4    O12   A    
C13   N2    A    
C33   C35   A    
C11   O10   S    
C12   H3    S    
Cu2   O13   S    
C10   C11   A    
H20   N5    S    
C20   C21   A    
C1    O1    A    
C49   H18   S    
C3    C22   A    
C42   H7    S    
C39   N3    A    
C33   H30   S    
