data_mof_unit_22178.cif
_audit_creation_date              2013-03-05T15:45:11-0500
_audit_creation_method            fapswitch 2.2
_symmetry_space_group_name_H-M    P1
_symmetry_Int_Tables_number       1
_space_group_crystal_system       triclinic
_cell_length_a                    10.800323
_cell_length_b                    11.05566
_cell_length_c                    9.843562
_cell_angle_alpha                 111.072737
_cell_angle_beta                  98.369303
_cell_angle_gamma                 90.684211
_cell_volume                      1082.45136548

loop_
_atom_site_label
_atom_site_type_symbol
_atom_site_description
_atom_site_fract_x
_atom_site_fract_y
_atom_site_fract_z
_atom_type_partial_charge
O1    O     O_R   0.511700 0.332330 0.577400 -0.593729
O2    O     O_R   0.474680 0.295500 0.332650 -0.547786
C1    C     C_R   0.491151 0.254221 0.440785 0.901550
O3    O     O_R   0.338160 0.518420 0.622400 -0.600909
O4    O     O_R   0.301140 0.481590 0.377650 -0.535504
C2    C     C_R   0.262737 0.503404 0.501935 0.845922
Cu1   Cu    Cu3+1 0.521920 0.521810 0.644910 1.010118
Cu2   Cu    Cu3+1 0.478080 0.478190 0.355090 1.006561
O5    O     O_R   0.525320 0.704500 0.667350 -0.564517
O6    O     O_R   0.488300 0.667670 0.422600 -0.588739
O7    O     O_R   0.698860 0.518410 0.622350 -0.555024
O8    O     O_R   0.661840 0.481580 0.377600 -0.581061
C3    C     C_R   0.509234 0.745773 0.559229 0.826264
C4    C     C_R   0.737293 0.505896 0.500234 0.803021
C5    C     C_R   0.160231 0.720093 0.716756 -0.216641
H1    H     H_    0.260526 0.726431 0.720533 0.173711
C6    C     C_R   0.110892 0.822157 0.820177 -0.191777
H2    H     H_    0.174228 0.899893 0.900657 0.188410
C7    C     C_R   0.981362 0.826354 0.817262 0.384941
C8    C     C_R   0.901715 0.726462 0.708924 -0.210620
H3    H     H_    0.801779 0.734568 0.704395 0.185321
C9    C     C_R   0.950265 0.618600 0.607797 0.046179
C10   C     C_R   0.081331 0.615278 0.610932 0.060407
C11   C     C_R   0.128978 0.509413 0.504821 -0.209048
C12   C     C_R   0.046920 0.412146 0.393514 0.320128
H4    H     H_    0.856454 0.339787 0.308857 0.198055
C13   C     C_R   0.918893 0.417141 0.391863 -0.226918
C14   C     C_R   0.870818 0.515767 0.500180 -0.135888
H5    H     H_    0.481540 0.864950 0.368559 0.190040
H6    H     H_    0.520792 0.135033 0.631473 0.185613
C15   C     C_2   0.486385 0.115024 0.407521 -0.280789
C16   C     C_2   0.503364 0.069516 0.516638 -0.139692
H7    H     H_    0.531789 0.950716 0.707202 0.180927
C17   C     C_2   0.514657 0.884940 0.592535 -0.307262
C18   C     C_2   0.498594 0.930461 0.483411 -0.132488
H8    H     H_    0.468906 0.049199 0.292879 0.167091
H9    H     H_    0.417525 0.418796 0.848582 0.130954
H10   H     H_    0.582553 0.582032 0.159154 0.192234
N1    N     N_2   0.445130 0.445430 0.137370 -0.291018
C19   C     C_2   0.510907 0.510884 0.083301 -0.046492
N2    N     N_2   0.554930 0.554500 0.862630 -0.097219
C20   C     C_2   0.490521 0.490863 0.920961 0.015869
H11   H     H_    0.376887 0.377765 0.064831 0.218085
N3    N     N_R   0.092243 0.305860 0.282552 0.147531
O9    O     O_R   0.175465 0.234461 0.319696 -0.349025
O10   O     O_R   0.041866 0.273152 0.144837 -0.292658
I1    I     I_    0.697793 0.695121 0.989750 -0.207071
N4    N     N_R   0.930820 0.932041 0.923891 0.143555
O11   O     O_R   0.000159 0.000551 0.048613 -0.273844
O12   O     O_R   0.814019 0.957352 0.900026 -0.346765

loop_
_geom_bond_atom_site_label_1
_geom_bond_atom_site_label_2
_geom_bond_distance
_ccdc_geom_bond_type
O4    Cu2   1.954977 S    
C1    C15   1.452232 S    
C10   C11   1.420352 A    
C5    C6    1.392777 A    
Cu2   N1    2.016828 S    
C12   C13   1.382453 A    
N2    C20   1.305241 D    
H5    C18   1.088121 S    
C7    C8    1.400078 A    
O8    C4    1.291749 A    
Cu2   O8    1.963070 S    
C13   C14   1.390684 A    
C2    C11   1.450892 S    
C19   C20   1.514321 S    
C6    H2    1.082921 S    
N2    I1    2.084521 S    
Cu1   Cu2   2.684690 S    
C9    C14   1.413156 A    
C11   C12   1.410530 A    
Cu1   O7    1.954977 S    
N4    O12   1.301633 A    
H4    C13   1.084938 S    
O3    Cu1   1.963070 S    
C12   N3    1.435223 S    
C5    C10   1.415648 A    
N4    O11   1.300733 A    
H10   C19   1.081633 S    
C8    C9    1.414624 A    
O2    C1    1.291929 A    
O1    Cu1   1.952986 S    
O4    C2    1.290294 A    
O7    C4    1.289732 A    
N1    C19   1.298594 D    
C5    H1    1.079004 S    
H6    C16   1.088066 S    
C16   C18   1.450743 S    
C3    C17   1.451790 S    
H7    C17   1.087572 S    
C8    H3    1.079887 S    
O3    C2    1.292775 A    
C17   C18   1.331843 D    
H9    C20   1.085008 S    
Cu1   O5    1.950540 S    
O5    C3    1.291672 A    
C9    C10   1.412600 A    
C6    C7    1.396754 A    
N1    H11   1.030645 S    
C7    N4    1.437017 S    
C4    C14   1.445028 S    
C15   H8    1.087593 S    
Cu2   O6    1.952986 S    
O2    Cu2   1.950540 S    
N3    O9    1.301334 A    
C15   C16   1.331892 D    
Cu1   N2    2.016999 S    
N3    O10   1.300981 A    
O1    C1    1.294931 A    
O6    C3    1.295076 A    
