data_mof_unit_42638.cif
_audit_creation_date              2013-03-05T16:10:40-0500
_audit_creation_method            fapswitch 2.2
_symmetry_space_group_name_H-M    P1
_symmetry_Int_Tables_number       1
_space_group_crystal_system       triclinic
_cell_length_a                    9.917761
_cell_length_b                    10.662562
_cell_length_c                    15.506776
_cell_angle_alpha                 90.220016
_cell_angle_beta                  67.632231
_cell_angle_gamma                 89.015886
_cell_volume                      1516.12309863

loop_
_atom_site_label
_atom_site_type_symbol
_atom_site_description
_atom_site_fract_x
_atom_site_fract_y
_atom_site_fract_z
_atom_type_partial_charge
O1    O     O_R   0.385370 0.683250 0.500010 -0.579780
O2    O     O_R   0.614630 0.316750 0.499990 -0.563265
O3    O     O_R   0.614700 0.683220 0.500000 -0.639861
O4    O     O_R   0.385300 0.316780 0.500000 -0.637762
C1    C     C_R   0.499602 0.739629 0.499217 0.898450
C2    C     C_R   0.500235 0.260398 0.500964 0.903129
O5    O     O_R   0.319830 0.500020 0.632250 -0.623549
O6    O     O_R   0.680170 0.499980 0.367750 -0.594651
O7    O     O_R   0.549160 0.499990 0.632240 -0.612112
O8    O     O_R   0.450840 0.500010 0.367760 -0.605618
C3    C     C_R   0.408540 0.501870 0.675949 0.853947
C4    C     C_R   0.591478 0.502411 0.324222 0.848252
Zn1   Zn    Zn3+2 0.346870 0.500020 0.500000 0.959432
Zn2   Zn    Zn3+2 0.653130 0.499980 0.500000 0.975775
C5    C     C_R   0.351357 0.507899 0.777631 -0.070769
C6    C     C_R   0.647053 0.524540 0.224247 -0.047871
C7    C     C_R   0.160975 0.477834 0.928813 -0.123881
C8    C     C_R   0.804915 0.634110 0.088171 -0.160949
C9    C     C_R   0.205875 0.483430 0.832156 -0.151963
C10   C     C_R   0.770607 0.596074 0.179856 -0.130371
C11   C     C_R   0.447900 0.536779 0.820210 -0.229055
C12   C     C_R   0.558023 0.493070 0.177393 -0.214748
C13   C     C_R   0.404882 0.535746 0.916892 0.082727
C14   C     C_R   0.577429 0.546271 0.091430 0.078494
C15   C     C_R   0.261556 0.496401 0.971886 0.022487
C16   C     C_R   0.707306 0.612478 0.043408 0.020638
C17   C     C_R   0.504871 0.565553 0.958914 0.016877
C18   C     C_R   0.470092 0.534338 0.052814 0.012715
C19   C     C_R   0.327221 0.496407 0.106836 -0.282851
C20   C     C_R   0.636581 0.628550 0.910657 -0.282090
C21   C     C_R   0.223331 0.477507 0.068023 0.298998
C22   C     C_R   0.735118 0.655343 0.952628 0.295040
H1    H     H_    0.470548 0.429371 0.211246 0.148297
H2    H     H_    0.559917 0.553167 0.776244 0.161618
H3    H     H_    0.837100 0.626743 0.217001 0.195503
H4    H     H_    0.128380 0.464491 0.800131 0.176604
H5    H     H_    0.048011 0.457404 0.968650 0.191187
H6    H     H_    0.905026 0.684092 0.054617 0.193584
H7    H     H_    0.291727 0.483768 0.181103 0.188155
H8    H     H_    0.660888 0.666622 0.842104 0.174750
C23   C     C_R   0.565301 0.932688 0.551646 -0.309524
C24   C     C_R   0.433240 0.067377 0.449546 -0.317431
H9    H     H_    0.613685 0.879626 0.592536 0.155892
H10   H     H_    0.384945 0.120342 0.408566 0.156398
C25   C     C_R   0.564785 0.061704 0.555089 0.218903
C26   C     C_R   0.433149 0.938444 0.446446 0.220577
C27   C     C_R   0.499934 0.127929 0.502398 -0.075204
C28   C     C_R   0.499057 0.872144 0.498499 -0.072388
C29   C     C_R   0.947574 0.395088 0.473102 0.295694
C30   C     C_R   0.050741 0.603063 0.531725 0.283965
C31   C     C_R   0.091594 0.396983 0.471455 -0.187335
C32   C     C_R   0.907971 0.602930 0.529297 -0.145311
H11   H     H_    0.160950 0.314026 0.449366 0.148473
H12   H     H_    0.835045 0.683049 0.554010 0.156883
N1    N     N_R   0.142780 0.500030 0.500020 -0.118395
N2    N     N_R   0.857220 0.499970 0.499980 -0.100028
N3    N     N_R   0.082795 0.433242 0.127458 0.183426
O9    O     O_R   0.028484 0.335311 0.103162 -0.407849
O10   O     O_R   0.027010 0.470942 0.213970 -0.463224
N4    N     N_R   0.861947 0.726613 0.901782 0.195942
O11   O     O_R   0.935617 0.701971 0.813901 -0.437328
O12   O     O_R   0.887674 0.829556 0.937686 -0.391725
N5    N     N_2   0.626478 0.123935 0.612499 -0.294358
H13   H     H_    0.712783 0.075483 0.619331 0.217903
C33   C     C_3   0.520973 0.166932 0.701644 -0.709990
H14   H     H_    0.470074 0.085383 0.745826 0.238435
H15   H     H_    0.434505 0.226301 0.692287 0.225679
H16   H     H_    0.576450 0.224110 0.737885 0.241879
N6    N     N_2   0.370409 0.876311 0.389594 -0.281138
H17   H     H_    0.281966 0.923689 0.384804 0.223630
C34   C     C_3   0.474851 0.836942 0.299113 -0.718046
H18   H     H_    0.521875 0.920166 0.255867 0.235709
H19   H     H_    0.419750 0.779047 0.263069 0.246543
H20   H     H_    0.564214 0.779630 0.306498 0.223822
N7    N     N_2   0.894010 0.279314 0.455390 -0.287521
H21   H     H_    0.923762 0.204535 0.486835 0.193867
C35   C     C_3   0.923703 0.252818 0.358419 -0.615791
H22   H     H_    0.881485 0.158967 0.351766 0.210528
H23   H     H_    0.043004 0.253038 0.316686 0.229396
H24   H     H_    0.866813 0.322534 0.331015 0.303653
N8    N     N_2   0.097419 0.706124 0.571495 -0.254891
H25   H     H_    0.130522 0.681780 0.624746 0.280755
C36   C     C_3   0.022890 0.826746 0.583540 -0.775747
H26   H     H_    0.088206 0.898644 0.601212 0.257258
H27   H     H_    0.914260 0.823157 0.641456 0.247582
H28   H     H_    0.011172 0.855098 0.517824 0.224920

loop_
_geom_bond_atom_site_label_1
_geom_bond_atom_site_label_2
_geom_bond_distance
_ccdc_geom_bond_type
C15   C21   1.407653 A    
Zn2   N2    2.023996 S    
N5    C33   1.446973 S    
C16   C22   1.407257 A    
C8    C16   1.410686 A    
O7    Zn2   1.912837 S    
N8    H25   1.030565 S    
C35   H22   1.110783 S    
O5    C3    1.299185 A    
O1    C1    1.287596 A    
C18   C19   1.411372 A    
C14   C16   1.420302 A    
C9    H4    1.083138 S    
N3    O10   1.300267 A    
N4    O12   1.301131 A    
C24   C26   1.375435 A    
O4    Zn1   1.984201 S    
N6    C34   1.446430 S    
C26   N6    1.424951 S    
C10   H3    1.081048 S    
C3    C5    1.459222 S    
C4    C6    1.455959 S    
C33   H15   1.110833 S    
C30   C32   1.430739 A    
C29   N7    1.418614 S    
C13   C17   1.417780 A    
C8    C10   1.393766 A    
O6    C4    1.296626 A    
C25   C27   1.403100 A    
C17   C20   1.416879 A    
C23   H9    1.085091 S    
O2    C2    1.287974 A    
C24   H10   1.085034 S    
N8    C36   1.447692 S    
C32   H12   1.079373 S    
C35   H23   1.111804 S    
C1    C28   1.412971 S    
C26   C28   1.403073 A    
C2    C27   1.412757 S    
O4    C2    1.284724 A    
C34   H19   1.110640 S    
C11   H2    1.077353 S    
O6    Zn2   1.964435 S    
C29   C31   1.419333 A    
C25   N5    1.425198 S    
N4    O11   1.301073 A    
C31   H11   1.081811 S    
C5    C9    1.396748 A    
N7    H21   1.031978 S    
N7    C35   1.443789 S    
C36   H26   1.110399 S    
C5    C11   1.391863 A    
C6    C10   1.396898 A    
C33   H16   1.111063 S    
C19   H7    1.078253 S    
C20   H8    1.079157 S    
C7    H5    1.080237 S    
O7    C3    1.297800 A    
O3    Zn2   1.984201 S    
O8    C4    1.298695 A    
C36   H27   1.110863 S    
C11   C13   1.394017 A    
C12   C14   1.396439 A    
O1    Zn1   1.997101 S    
C22   N4    1.436647 S    
C35   H24   1.105448 S    
C12   H1    1.079761 S    
C6    C12   1.384445 A    
C14   C18   1.413247 A    
O3    C1    1.285296 A    
O8    Zn1   1.912839 S    
C34   H20   1.109603 S    
C29   N2    1.380243 A    
C30   N1    1.379023 A    
C7    C15   1.411832 A    
C21   N3    1.436352 S    
C8    H6    1.080585 S    
C34   H18   1.111494 S    
C19   C21   1.393801 A    
C20   C22   1.397309 A    
N3    O9    1.301220 A    
C7    C9    1.393549 A    
C23   C28   1.396478 A    
C31   N1    1.359306 A    
C24   C27   1.396157 A    
C13   C15   1.422825 A    
N6    H17   1.031879 S    
O2    Zn2   1.997101 S    
N5    H13   1.032000 S    
O5    Zn1   1.964434 S    
C36   H28   1.111144 S    
C33   H14   1.112067 S    
C17   C18   1.405459 A    
C23   C25   1.376323 A    
C32   N2    1.361809 A    
C30   N8    1.425406 S    
Zn1   N1    2.023997 S    
