data_mof_unit_29342.cif
_audit_creation_date              2012-12-10T19:07:07-0500
_audit_creation_method            fapswitch 2.2
_symmetry_space_group_name_H-M    P1
_symmetry_Int_Tables_number       1
_space_group_crystal_system       triclinic
_cell_length_a                    27.817209
_cell_length_b                    10.853262
_cell_length_c                    9.534602
_cell_angle_alpha                 90.029931
_cell_angle_beta                  90.078095
_cell_angle_gamma                 90.686842
_cell_volume                      2878.35752738

loop_
_atom_site_label
_atom_site_type_symbol
_atom_type_description
_atom_site_fract_x
_atom_site_fract_y
_atom_site_fract_z
_atom_type_partial_charge
C1    C     C_R   0.499754 0.262740 0.499791 0.787043
C2    C     C_R   0.973729 0.390386 0.581843 0.079073
C3    C     C_R   0.974914 0.609575 0.512664 -0.034817
C4    C     C_R   0.407335 0.499187 0.499823 0.820731
C5    C     C_R   0.949062 0.499403 0.544127 0.063861
C6    C     C_R   0.946487 0.281716 0.606505 -0.203087
C7    C     C_R   0.896687 0.280602 0.595829 -0.123289
C8    C     C_R   0.872074 0.388009 0.561881 -0.020652
C9    C     C_R   0.898116 0.498027 0.537596 -0.045696
C10   C     C_R   0.873107 0.606425 0.506226 -0.052088
C11   C     C_R   0.822672 0.602541 0.497748 0.554603
C12   C     C_R   0.276513 0.489739 0.382099 -0.188176
C13   C     C_R   0.821745 0.387942 0.551373 0.538685
C14   C     C_R   0.719755 0.470919 0.635153 -0.097828
C15   C     C_R   0.669711 0.471452 0.630117 -0.233681
C16   C     C_R   0.499749 0.737341 0.499925 0.826292
C17   C     C_R   0.672738 0.514744 0.381051 -0.164991
C18   C     C_R   0.722874 0.514177 0.386177 -0.097867
C19   C     C_R   0.746567 0.492891 0.513432 0.344565
C20   C     C_R   0.024700 0.392655 0.590275 -0.022527
C21   C     C_R   0.050379 0.496164 0.538278 0.074939
C22   C     C_R   0.025455 0.602032 0.491986 0.077179
C23   C     C_R   0.252977 0.492996 0.511603 0.278487
C24   C     C_R   0.050938 0.293599 0.646041 -0.295603
C25   C     C_R   0.101321 0.689979 0.409052 -0.148291
C26   C     C_R   0.948725 0.721705 0.501491 -0.026662
C27   C     C_R   0.898565 0.717425 0.491191 -0.176712
C28   C     C_R   0.592590 0.498529 0.500412 0.818430
C29   C     C_R   0.051549 0.693136 0.417827 -0.149158
C30   C     C_R   0.501696 0.062543 0.621022 0.001064
C31   C     C_R   0.499772 0.130263 0.498028 -0.124600
C32   C     C_R   0.497852 0.064513 0.370371 -0.178560
C33   C     C_R   0.497518 0.935358 0.370738 -0.173905
C34   C     C_R   0.101347 0.493429 0.530369 -0.111881
C35   C     C_R   0.499531 0.870003 0.498529 -0.078901
C36   C     C_R   0.501262 0.938244 0.621538 0.006308
C37   C     C_3   0.501440 0.928277 0.777753 -0.460638
C38   C     C_3   0.501507 0.070485 0.778344 0.361558
C39   C     C_R   0.522092 0.593607 0.073839 0.201493
C40   C     C_R   0.177651 0.393854 0.575296 0.568034
C41   C     C_R   0.474508 0.414337 0.074304 -0.026485
C42   C     C_R   0.474303 0.414703 0.925396 -0.036952
C43   C     C_R   0.522501 0.592712 0.926052 0.253185
C44   C     C_3   0.574722 0.624870 0.920059 -0.539669
C45   C     C_R   0.126927 0.391564 0.582851 -0.126393
C46   C     C_3   0.574268 0.627151 0.079453 -0.264212
C47   C     C_R   0.177010 0.590504 0.463595 0.549603
C48   C     C_R   0.279855 0.497684 0.635482 -0.101099
C49   C     C_R   0.329873 0.499703 0.630240 -0.293557
C50   C     C_R   0.326884 0.489219 0.375246 0.466924
C51   C     C_3   0.346215 0.371222 0.187257 -0.302514
C52   C     C_2   0.970898 0.845725 0.520690 0.809985
C53   C     C_3   0.585249 0.121222 0.768385 -0.186732
C54   C     C_2   0.583373 0.752325 0.143480 0.897961
C55   C     C_3   0.120314 0.089839 0.606147 -0.194184
C56   C     C_R   0.101133 0.290702 0.640012 0.511928
C57   C     C_R   0.126698 0.592483 0.468293 0.000848
C58   C     C_R   0.354108 0.496589 0.500759 -0.143203
C59   C     C_R   0.645611 0.494826 0.503293 -0.039501
Cu1   Cu    Cu3+1 0.500000 0.499980 0.640670 0.955250
Cu2   Cu    Cu3+1 0.500000 0.500020 0.359330 0.979026
H1    H     H_    0.261892 0.500854 0.736098 0.162518
H2    H     H_    0.255571 0.487629 0.286256 0.160232
H3    H     H_    0.534886 0.886813 0.818423 0.226965
H4    H     H_    0.467315 0.108785 0.818665 0.081580
H5    H     H_    0.454803 0.343298 0.130089 0.128775
H6    H     H_    0.454155 0.344420 0.869425 0.127051
H7    H     H_    0.596507 0.548342 0.878113 0.204164
H8    H     H_    0.581774 0.715104 0.868881 0.207231
H9    H     H_    0.596096 0.552801 0.125841 0.157780
H10   H     H_    0.649999 0.452834 0.725555 0.150704
H11   H     H_    0.737773 0.453969 0.733908 0.145787
H12   H     H_    0.119795 0.764005 0.354261 0.183320
H13   H     H_    0.877532 0.194618 0.614201 0.199455
H14   H     H_    0.962748 0.194512 0.629790 0.147372
H15   H     H_    0.033475 0.217379 0.698494 0.168581
H16   H     H_    0.349551 0.504238 0.728237 0.187411
H17   H     H_    0.308314 0.342377 0.167247 0.162815
H18   H     H_    0.364434 0.302742 0.255422 0.151518
H19   H     H_    0.364924 0.372129 0.084607 0.177207
H20   H     H_    0.972218 0.024756 0.464174 0.325857
H21   H     H_    0.583847 0.186901 0.679237 0.152364
H22   H     H_    0.593417 0.026855 0.730808 0.152891
H23   H     H_    0.655471 0.531786 0.281841 0.166088
H24   H     H_    0.615403 0.151141 0.837103 0.179784
H25   H     H_    0.616202 0.850512 0.296303 0.337130
H26   H     H_    0.134022 0.112629 0.499422 0.154541
H27   H     H_    0.082503 0.055750 0.600034 0.161769
H28   H     H_    0.142383 0.013546 0.647588 0.206493
H29   H     H_    0.879121 0.802716 0.478699 0.220251
H30   H     H_    0.743353 0.530452 0.291336 0.147107
H31   H     H_    0.033860 0.766223 0.361864 0.149953
H32   H     H_    0.496176 0.112047 0.270650 0.178461
H33   H     H_    0.495155 0.887399 0.271448 0.197429
H34   H     H_    0.467586 0.886521 0.818651 0.172422
N1    N     N_R   0.201377 0.492561 0.517236 -0.461550
N2    N     N_R   0.798129 0.494234 0.519667 -0.468526
N3    N     N_R   0.500300 0.500930 0.147930 -0.198636
N4    N     N_R   0.500310 0.500890 0.852020 -0.184967
O1    O     O_R   0.500000 0.319640 0.618810 -0.577657
O2    O     O_R   0.569730 0.499960 0.618810 -0.587359
O3    O     O_R   0.569740 0.500000 0.381220 -0.578386
O4    O     O_2   0.203244 0.298151 0.624117 -0.487363
O5    O     O_3   0.349161 0.490512 0.245641 -0.554988
O6    O     O_2   0.003325 0.861109 0.605949 -0.598055
O7    O     O_R   0.953717 0.945731 0.443865 -0.761614
O8    O     O_3   0.542228 0.124602 0.847124 -0.549908
O9    O     O_2   0.564728 0.844113 0.093889 -0.616285
O10   O     O_R   0.613190 0.762624 0.260995 -0.765232
O11   O     O_3   0.124778 0.191406 0.697975 -0.535041
O12   O     O_2   0.796589 0.282382 0.571897 -0.531012
O13   O     O_2   0.201499 0.686430 0.407129 -0.536743
O14   O     O_2   0.798300 0.706433 0.469480 -0.521911
O15   O     O_R   0.500010 0.319680 0.381230 -0.592688
O16   O     O_R   0.430260 0.500000 0.618780 -0.596575
O17   O     O_R   0.430270 0.500040 0.381190 -0.529883
O18   O     O_R   0.499990 0.680320 0.618770 -0.577854
O19   O     O_R   0.500000 0.680360 0.381190 -0.583719

loop_
_geom_bond_atom_site_label_1
_geom_bond_atom_site_label_2
_ccdc_geom_bond_type
C10   C27   A    
C50   O5    S    
C8    C13   A    
C22   C29   A    
C41   C42   A    
C4    O16   A    
Cu2   N3    S    
Cu1   N4    S    
C33   H33   S    
C19   N2    S    
C6    H14   S    
C12   C23   A    
C30   C38   S    
C26   C27   A    
C18   H30   S    
C36   C37   S    
C43   N4    A    
C16   O19   A    
C16   C35   S    
C30   C31   A    
C47   O13   S    
C1    C31   S    
C23   N1    S    
C37   H34   S    
C27   H29   S    
C18   C19   A    
C38   O8    S    
C51   H19   S    
C28   O2    A    
C20   C24   A    
C45   C56   A    
C8    C9    A    
C34   C57   A    
C47   N1    A    
C9    C10   A    
C3    C22   A    
C32   H32   S    
C52   O7    S    
C21   C22   A    
C55   H26   S    
C2    C6    A    
C25   C57   A    
C40   N1    A    
C1    O1    A    
C56   O11   S    
C44   C46   S    
C7    H13   S    
C25   C29   A    
C40   C45   A    
C2    C20   A    
C50   C58   A    
C44   H8    S    
H25   O10   S    
C53   H22   S    
C12   H2    S    
C24   H15   S    
C39   N3    A    
C39   C43   A    
C21   C34   A    
C3    C5    A    
C51   O5    S    
C49   C58   A    
C54   O10   S    
Cu1   Cu2   S    
C35   C36   A    
C43   C44   S    
C5    C9    A    
C37   C38   S    
C26   C52   S    
C47   C57   A    
C53   O8    S    
C48   H1    S    
C31   C32   A    
C38   H4    S    
C46   C54   S    
Cu2   O17   S    
C17   C18   A    
Cu1   O18   S    
C34   C45   A    
C6    C7    A    
C17   C59   A    
C39   C46   S    
C48   C49   A    
C52   O6    D    
C55   O11   S    
C42   H6    S    
C44   H7    S    
C2    C5    A    
C1    O15   A    
Cu1   O2    S    
C37   H3    S    
C28   C59   S    
H20   O7    S    
C23   C48   A    
Cu2   O19   S    
C14   C15   A    
C15   C59   A    
C14   C19   A    
C4    O17   A    
C3    C26   A    
Cu1   O1    S    
C12   C50   A    
C41   H5    S    
C54   O9    D    
C24   C56   A    
C15   H10   S    
C30   C36   A    
C11   N2    A    
C17   H23   S    
C14   H11   S    
C32   C33   A    
Cu2   O3    S    
C51   H17   S    
C13   O12   S    
C42   N4    A    
C40   O4    S    
C33   C35   A    
C49   H16   S    
C55   H27   S    
C25   H12   S    
C13   N2    A    
C11   O14   S    
C51   H18   S    
C46   H9    S    
C7    C8    A    
C10   C11   A    
C28   O3    A    
C20   C21   A    
C55   H28   S    
C4    C58   S    
Cu2   O15   S    
C41   N3    A    
C53   H21   S    
Cu1   O16   S    
C53   H24   S    
C16   O18   A    
C29   H31   S    
