data_mof_unit_45458.cif
_audit_creation_date              2013-03-05T16:08:44-0500
_audit_creation_method            fapswitch 2.2
_symmetry_space_group_name_H-M    P1
_symmetry_Int_Tables_number       1
_space_group_crystal_system       triclinic
_cell_length_a                    27.660265
_cell_length_b                    11.611681
_cell_length_c                    10.755677
_cell_angle_alpha                 90.332552
_cell_angle_beta                  90.749633
_cell_angle_gamma                 89.963483
_cell_volume                      3454.17732112

loop_
_atom_site_label
_atom_site_type_symbol
_atom_site_description
_atom_site_fract_x
_atom_site_fract_y
_atom_site_fract_z
_atom_type_partial_charge
O1    O     O_R   0.500000 0.334450 0.602530 -0.644321
O2    O     O_R   0.500000 0.665550 0.397470 -0.636494
O3    O     O_R   0.500000 0.665550 0.602530 -0.559572
O4    O     O_R   0.500000 0.334450 0.397470 -0.553744
C1    C     C_R   0.499619 0.281073 0.499725 0.968570
C2    C     C_R   0.499331 0.718919 0.500239 0.966333
O5    O     O_R   0.428750 0.500000 0.602520 -0.563763
O6    O     O_R   0.571250 0.500000 0.397480 -0.567502
O7    O     O_R   0.571250 0.500000 0.602520 -0.581861
O8    O     O_R   0.428750 0.500000 0.397480 -0.574783
C3    C     C_R   0.405494 0.499328 0.499035 0.987848
C4    C     C_R   0.594402 0.500838 0.500883 1.006980
Zn1   Zn    Zn3+2 0.500000 0.500000 0.636920 1.119224
Zn2   Zn    Zn3+2 0.500000 0.500000 0.363080 1.126195
C5    C     C_R   0.173674 0.416395 0.452021 0.625983
C6    C     C_R   0.820539 0.619218 0.448473 0.617181
C7    C     C_R   0.176990 0.621229 0.464593 0.637327
C8    C     C_R   0.826304 0.439664 0.555401 0.619578
O9    O     O_2   0.196456 0.314808 0.467873 -0.433542
O10   O     O_2   0.791463 0.696545 0.392341 -0.430030
O11   O     O_2   0.203626 0.718124 0.457841 -0.453365
O12   O     O_2   0.803384 0.347160 0.601668 -0.430170
N1    N     N_R   0.199490 0.516427 0.462652 -0.348329
N2    N     N_R   0.799770 0.526188 0.503544 -0.353935
C9    C     C_R   0.275116 0.567386 0.571524 -0.139192
C10   C     C_R   0.724805 0.436382 0.430071 -0.120691
C11   C     C_R   0.277596 0.447368 0.387634 -0.124419
C12   C     C_R   0.721934 0.593121 0.578689 -0.119228
C13   C     C_R   0.325453 0.565921 0.581256 0.291551
C14   C     C_R   0.674531 0.427998 0.429469 0.291436
C15   C     C_R   0.327485 0.436275 0.399919 0.383246
C16   C     C_R   0.671632 0.589265 0.578245 0.388952
C17   C     C_R   0.251223 0.510979 0.473620 0.109315
C18   C     C_R   0.748268 0.518060 0.504483 0.119009
C19   C     C_R   0.099771 0.526294 0.448188 -0.161380
C20   C     C_R   0.899053 0.536481 0.491938 -0.149544
C21   C     C_R   0.123419 0.419675 0.431562 -0.194047
C22   C     C_R   0.871399 0.630153 0.445136 -0.185638
C23   C     C_R   0.126359 0.627872 0.469683 -0.159192
C24   C     C_R   0.876884 0.444192 0.554602 -0.195722
C25   C     C_R   0.095698 0.321076 0.397985 0.373547
C26   C     C_R   0.895850 0.726229 0.391658 0.279027
C27   C     C_R   0.101566 0.730828 0.499748 0.314778
C28   C     C_R   0.906174 0.359788 0.613610 0.260309
C29   C     C_R   0.352366 0.499193 0.494991 -0.325438
C30   C     C_R   0.647329 0.505711 0.503201 -0.334052
H1    H     H_    0.258631 0.404183 0.312033 0.228831
H2    H     H_    0.741213 0.655801 0.635293 0.216850
H3    H     H_    0.254046 0.614693 0.638840 0.222832
H4    H     H_    0.746228 0.379072 0.373211 0.206234
C31   C     C_R   0.975357 0.432628 0.500864 -0.025386
C32   C     C_R   0.024741 0.636611 0.448772 -0.011964
C33   C     C_R   0.973623 0.633478 0.435656 -0.027305
C34   C     C_R   0.023230 0.426557 0.457717 -0.038012
C35   C     C_R   0.949307 0.534939 0.477638 -0.068710
C36   C     C_R   0.049279 0.530083 0.450344 -0.068287
C37   C     C_R   0.954390 0.345197 0.573678 0.425420
C38   C     C_R   0.051353 0.739282 0.472404 0.412779
C39   C     C_R   0.946466 0.721862 0.379029 0.438040
C40   C     C_R   0.045253 0.323764 0.415009 0.446952
C41   C     C_1   0.499186 0.160934 0.499303 -0.060322
C42   C     C_1   0.498933 0.839065 0.500631 -0.053708
C43   C     C_1   0.498922 0.059152 0.499613 0.065315
C44   C     C_1   0.498811 0.940851 0.500311 0.069331
N3    N     N_1   0.500000 0.500000 0.180630 -0.044642
N4    N     N_1   0.500000 0.500000 0.819370 -0.040290
C45   C     C_1   0.499993 0.499995 0.069699 0.151588
C46   C     C_1   0.499993 0.500004 0.930300 0.157976
S1    S     S_3+6 0.356157 0.337810 0.297614 0.064155
O13   O     O_2   0.380056 0.403296 0.195138 -0.277240
O14   O     O_2   0.393456 0.268847 0.367631 -0.315096
O15   O     O_3   0.315102 0.247166 0.234546 -0.493580
H5    H     H_    0.333957 0.194859 0.180558 0.401744
S2    S     S_3+6 0.641065 0.695239 0.666921 0.065566
O16   O     O_2   0.603885 0.753677 0.586243 -0.327711
O17   O     O_2   0.616659 0.639243 0.774975 -0.262935
O18   O     O_3   0.680249 0.794715 0.721497 -0.503688
H6    H     H_    0.660140 0.850659 0.767689 0.404979
S3    S     S_3+6 0.352645 0.653423 0.698837 0.084580
O19   O     O_2   0.391698 0.725933 0.643203 -0.264565
O20   O     O_2   0.315936 0.731803 0.757109 -0.240847
O21   O     O_3   0.377117 0.569539 0.809996 -0.500519
H7    H     H_    0.350126 0.520817 0.838661 0.362552
S4    S     S_3+6 0.647525 0.316101 0.339648 0.091244
O22   O     O_2   0.623012 0.367010 0.227221 -0.218678
O23   O     O_2   0.684957 0.231079 0.297236 -0.217756
O24   O     O_3   0.606254 0.246702 0.424441 -0.557258
H8    H     H_    0.623954 0.221749 0.500275 0.355246
S5    S     S_3+6 0.122409 0.201706 0.319702 0.094611
O25   O     O_2   0.162074 0.243751 0.237153 -0.237888
O26   O     O_2   0.143479 0.121547 0.414904 -0.190612
O27   O     O_3   0.082082 0.129109 0.231159 -0.559204
H9    H     H_    0.100493 0.063921 0.195416 0.384872
S6    S     S_3+6 0.866081 0.856154 0.345331 0.137568
O28   O     O_2   0.837765 0.834231 0.227360 -0.171252
O29   O     O_2   0.832208 0.895623 0.445202 -0.205128
O30   O     O_3   0.905377 0.963505 0.319232 -0.484596
H10   H     H_    0.920675 0.979141 0.401290 0.345619
S7    S     S_3+6 0.129192 0.832331 0.603403 0.096249
O31   O     O_2   0.157993 0.917411 0.530455 -0.190836
O32   O     O_2   0.091837 0.895288 0.678054 -0.253262
O33   O     O_3   0.166500 0.762601 0.702287 -0.523791
H11   H     H_    0.184653 0.824111 0.746746 0.408904
S8    S     S_3+6 0.887101 0.294051 0.754273 0.105788
O34   O     O_2   0.862221 0.182009 0.724566 -0.191274
O35   O     O_2   0.929595 0.271264 0.839230 -0.265325
O36   O     O_3   0.848301 0.380742 0.829479 -0.453091
H12   H     H_    0.866433 0.453173 0.844342 0.345065
O37   O     O_3   0.984279 0.260927 0.624516 -0.568846
C47   C     C_3   0.966453 0.149159 0.597375 -0.012086
H13   H     H_    0.940059 0.145751 0.518237 0.113999
H14   H     H_    0.950244 0.110847 0.681107 0.214817
H15   H     H_    0.997449 0.093301 0.573362 0.192445
O38   O     O_3   0.026718 0.841871 0.492027 -0.598799
C48   C     C_3   0.044387 0.928934 0.412757 -0.021448
H16   H     H_    0.062653 0.895601 0.327909 0.132416
H17   H     H_    0.068965 0.987257 0.465016 0.236115
H18   H     H_    0.013491 0.982279 0.380495 0.206039
O39   O     O_3   0.968832 0.798060 0.300208 -0.586065
C49   C     C_3   0.973199 0.745643 0.182274 -0.211844
H19   H     H_    0.937195 0.721642 0.142537 0.186355
H20   H     H_    0.997285 0.668915 0.186334 0.138944
H21   H     H_    0.989813 0.808437 0.118342 0.212818
O40   O     O_3   0.017991 0.227595 0.383916 -0.611767
C50   C     C_3   0.989030 0.250797 0.277688 -0.174493
H22   H     H_    0.009711 0.294405 0.203207 0.186822
H23   H     H_    0.956732 0.302469 0.302148 0.140661
H24   H     H_    0.975800 0.167677 0.238985 0.231350

loop_
_geom_bond_atom_site_label_1
_geom_bond_atom_site_label_2
_geom_bond_distance
_ccdc_geom_bond_type
C25   S5    1.782551 S    
O24   H8    0.990481 S    
C48   H17   1.105848 S    
N4    C46   1.193129 T    
S4    O24   1.679654 S    
O3    C2    1.265781 A    
S8    O35   1.503607 D    
O38   C48   1.417510 S    
C28   S8    1.784579 S    
C34   C40   1.416610 A    
O18   H6    0.990569 S    
C11   C17   1.393597 A    
O5    C3    1.278243 A    
C7    N1    1.366660 A    
S2    O17   1.503013 D    
C21   C25   1.420639 A    
O1    C1    1.264382 A    
C19   C21   1.411379 A    
C27   S7    1.783151 S    
C22   C26   1.432275 A    
C10   H4    1.082712 S    
C16   S2    1.773375 S    
C48   H16   1.116081 S    
C9    C13   1.394998 A    
C40   O40   1.384775 S    
C7    C23   1.404291 A    
S1    O14   1.502793 D    
O7    Zn1   2.009976 S    
C47   H13   1.114653 S    
C5    C21   1.405048 A    
C20   C24   1.413768 A    
C42   C44   1.181936 T    
C27   C38   1.419384 A    
C5    O9    1.347668 S    
C10   C18   1.392707 A    
C37   O37   1.390435 S    
N3    C45   1.193137 T    
S2    O18   1.682440 S    
C50   H24   1.109292 S    
C39   O39   1.381098 S    
O36   H12   0.990627 S    
C31   C37   1.414999 A    
S5    O26   1.499756 D    
O3    Zn1   1.959684 S    
C49   H21   1.109140 S    
C6    O10   1.345437 S    
C5    N1    1.367328 A    
C12   C18   1.390525 A    
C6    N2    1.365619 A    
C26   S6    1.788498 S    
C14   S4    1.774070 S    
O33   H11   0.990520 S    
S8    O34   1.502949 D    
C49   H20   1.112866 S    
O30   H10   0.989666 S    
C47   H14   1.107002 S    
Zn1   N4    1.962372 S    
C33   C35   1.407265 A    
C33   C39   1.408105 A    
C34   C36   1.405080 A    
S2    O16   1.501228 D    
C11   C15   1.390518 A    
C45   C46   1.499331 S    
C12   C16   1.392085 A    
S4    O22   1.502577 D    
C4    C30   1.464987 S    
O8    Zn2   2.009976 S    
S3    O20   1.503657 D    
O15   H5    0.990713 S    
C23   C27   1.415762 A    
S6    O30   1.681628 S    
N1    C17   1.435632 S    
C43   C44   1.373736 S    
N2    C18   1.427913 S    
O2    C2    1.264410 A    
C13   C29   1.422807 A    
S1    O15   1.682445 S    
C19   C23   1.406758 A    
C15   S1    1.775965 S    
S7    O31   1.500857 D    
C13   S3    1.777240 S    
O5    Zn1   2.000461 S    
C28   C37   1.416237 A    
O6    C4    1.276068 A    
C48   H18   1.108379 S    
C41   C43   1.181914 T    
C1    C41   1.395050 S    
S6    O28   1.502906 D    
S5    O27   1.681026 S    
S6    O29   1.503935 D    
C47   H15   1.107073 S    
C32   C38   1.421423 A    
S7    O32   1.503539 D    
C10   C14   1.393975 A    
C50   H22   1.114660 S    
C8    N2    1.361618 A    
C3    C29   1.469611 S    
O1    Zn1   1.955469 S    
C32   C33   1.419588 A    
C38   O38   1.388413 S    
C11   H1    1.082709 S    
C12   H2    1.082399 S    
O6    Zn2   2.000461 S    
C19   C36   1.397772 A    
C8    O12   1.348578 S    
C16   C30   1.422046 A    
C14   C30   1.419775 A    
C25   C40   1.409971 A    
S4    O23   1.503535 D    
O4    C1    1.265740 A    
C26   C39   1.409237 A    
S3    O21   1.681627 S    
O39   C49   1.410318 S    
C31   C34   1.410435 A    
C2    C42   1.395123 S    
C20   C22   1.420144 A    
C20   C35   1.400610 A    
O37   C47   1.416095 S    
O27   H9    0.990638 S    
Zn2   N3    1.962373 S    
C31   C35   1.410879 A    
O4    Zn2   1.959685 S    
S1    O13   1.503151 D    
O2    Zn2   1.955468 S    
O7    C4    1.274240 A    
C9    H3    1.082426 S    
O8    C3    1.274920 A    
S3    O19   1.502589 D    
C24   C28   1.418618 A    
S7    O33   1.682819 S    
C8    C24   1.400207 A    
O21   H7    0.990503 S    
C15   C29   1.423590 A    
C9    C17   1.396056 A    
C50   H23   1.109490 S    
C49   H19   1.113535 S    
S5    O25   1.503873 D    
S8    O36   1.682634 S    
C32   C36   1.410651 A    
C6    C22   1.413557 A    
O40   C50   1.413875 S    
C7    O11   1.348107 S    
