data_mof_unit_18682.cif
_audit_creation_date              2012-10-26T20:51:10-0400
_audit_creation_method            fapswitch 2.2
_symmetry_space_group_name_H-M    P1
_symmetry_Int_Tables_number       1
_space_group_crystal_system       triclinic
_cell_length_a                    12.936826
_cell_length_b                    10.804775
_cell_length_c                    9.593924
_cell_angle_alpha                 90.241399
_cell_angle_beta                  96.624429
_cell_angle_gamma                 91.453219
_cell_volume                      1331.61780236

loop_
_atom_site_label
_atom_site_type_symbol
_atom_type_description
_atom_site_fract_x
_atom_site_fract_y
_atom_site_fract_z
_atom_type_partial_charge
C1    C     C_R   0.505564 0.262698 0.500452 0.546047
C2    C     C_R   0.518421 0.935013 0.373241 -0.160449
C3    C     C_R   0.519095 0.870629 0.500701 0.006124
C4    C     C_R   0.300745 0.501385 0.473694 0.552480
C5    C     C_R   0.542966 0.938188 0.624611 -0.005227
C6    C     C_3   0.513675 0.930826 0.770364 -0.261582
C7    C     C_3   0.517791 0.073080 0.771289 -0.122714
C8    C     C_R   0.568806 0.573980 0.084137 0.147934
C9    C     C_R   0.421387 0.442175 0.058908 0.069014
C10   C     C_R   0.424160 0.440020 0.911401 -0.013624
C11   C     C_R   0.568739 0.573789 0.937511 0.151737
C12   C     C_R   0.027052 0.469852 0.559059 0.047393
C13   C     C_3   0.684458 0.572657 0.948813 -0.271747
C14   C     C_3   0.684793 0.574897 0.107046 -0.282026
C15   C     C_R   0.503885 0.737555 0.500602 0.548218
C16   C     C_R   0.699347 0.499311 0.526845 0.541868
C17   C     C_R   0.812165 0.494534 0.543175 0.001751
C18   C     C_R   0.188254 0.509157 0.460345 0.014343
C19   C     C_R   0.028662 0.590081 0.344423 -0.145892
C20   C     C_R   0.135822 0.577504 0.351828 -0.128801
C21   C     C_R   0.133963 0.456082 0.564195 -0.130151
C22   C     C_R   0.604841 0.128403 0.874337 0.060850
C23   C     C_R   0.973952 0.536526 0.447505 0.045953
C24   C     C_R   0.710823 0.120997 0.853617 -0.083793
C25   C     C_R   0.788286 0.173449 0.951444 -0.130342
C26   C     C_R   0.761305 0.232062 0.071563 -0.124583
C27   C     C_R   0.656819 0.238407 0.093878 -0.119805
C28   C     C_R   0.579120 0.187323 0.995583 -0.086983
C29   C     C_R   0.324419 0.390036 0.105430 0.068297
C30   C     C_R   0.230510 0.450804 0.067228 -0.109607
C31   C     C_R   0.135369 0.396055 0.092511 -0.121287
C32   C     C_R   0.133036 0.280849 0.157533 -0.104880
C33   C     C_R   0.225556 0.218560 0.193052 -0.122702
C34   C     C_R   0.866928 0.548620 0.440858 -0.136468
C35   C     C_R   0.320355 0.271763 0.164135 -0.067744
C36   C     C_R   0.865061 0.431213 0.655915 -0.143586
C37   C     C_R   0.972392 0.418624 0.663723 -0.143091
C38   C     C_R   0.544886 0.064698 0.624368 0.011909
C39   C     C_R   0.522491 0.130437 0.500441 -0.002217
C40   C     C_R   0.521705 0.064314 0.373467 -0.167619
Cu1   Cu    Cu3+1 0.499990 0.499980 0.640670 0.935238
Cu2   Cu    Cu3+1 0.500010 0.500020 0.359330 0.927994
H1    H     H_    0.826228 0.600350 0.356229 0.104496
H2    H     H_    0.988828 0.642340 0.259176 0.098978
H3    H     H_    0.012325 0.367989 0.750283 0.102694
H4    H     H_    0.177961 0.622614 0.274211 0.123829
H5    H     H_    0.175109 0.404711 0.649364 0.106981
H6    H     H_    0.518713 0.110798 0.274143 0.121286
H7    H     H_    0.510152 0.886626 0.273299 0.137430
H8    H     H_    0.433793 0.891236 0.773339 0.131942
H9    H     H_    0.733947 0.074936 0.762193 0.109714
H10   H     H_    0.869321 0.168277 0.934309 0.100510
H11   H     H_    0.821322 0.272358 0.147434 0.106949
H12   H     H_    0.575047 0.887334 0.843595 0.137003
H13   H     H_    0.636004 0.283089 0.187381 0.146971
H14   H     H_    0.498630 0.192854 0.013923 0.078540
H15   H     H_    0.230963 0.539861 0.015821 0.094508
H16   H     H_    0.063534 0.443390 0.062477 0.105474
H17   H     H_    0.059480 0.239086 0.178329 0.106443
H18   H     H_    0.223634 0.127724 0.239964 0.103901
H19   H     H_    0.389445 0.219101 0.183444 0.102608
H20   H     H_    0.440292 0.114175 0.776753 0.118857
H21   H     H_    0.363985 0.390147 0.844120 0.115010
H22   H     H_    0.713940 0.484879 0.909548 0.160526
H23   H     H_    0.718043 0.658638 0.907013 0.122722
H24   H     H_    0.716818 0.489928 0.157986 0.149704
H25   H     H_    0.717057 0.663380 0.155377 0.115924
H26   H     H_    0.823106 0.388516 0.735298 0.123793
N1    N     N_R   0.500660 0.500930 0.148010 -0.239804
N2    N     N_R   0.500660 0.500890 0.852110 -0.236346
O1    O     O_R   0.500000 0.319640 0.618810 -0.496174
O2    O     O_R   0.500010 0.319680 0.381230 -0.522175
O3    O     O_R   0.348990 0.499960 0.599490 -0.515158
O4    O     O_R   0.349000 0.500000 0.361910 -0.485399
O5    O     O_R   0.499990 0.680320 0.618770 -0.495601
O6    O     O_R   0.500000 0.680360 0.381190 -0.507113
O7    O     O_R   0.651000 0.500000 0.638090 -0.504058
O8    O     O_R   0.651010 0.500040 0.400510 -0.515200

loop_
_geom_bond_atom_site_label_1
_geom_bond_atom_site_label_2
_ccdc_geom_bond_type
C15   O5    A    
C18   C21   A    
Cu1   Cu2   S    
C10   H21   S    
C28   H14   S    
C11   N2    A    
C13   H23   S    
C12   C23   A    
C26   C27   A    
C1    O1    A    
C31   H16   S    
C36   C37   A    
C9    N1    A    
Cu1   O7    S    
C30   C31   A    
C27   H13   S    
C30   H15   S    
C16   O7    A    
C12   C37   A    
C19   C20   A    
C16   C17   S    
C14   H25   S    
C17   C36   A    
C9    C10   A    
C4    O4    A    
C9    C29   S    
Cu1   O1    S    
C4    C18   S    
C24   H9    S    
C15   O6    A    
C22   C28   A    
C5    C38   A    
C6    H12   S    
C38   C39   A    
Cu2   O4    S    
C1    O2    A    
C24   C25   A    
C39   C40   A    
C8    N1    A    
C25   C26   A    
C12   C21   A    
Cu2   N1    S    
C19   C23   A    
C7    H20   S    
C29   C30   A    
C2    H7    S    
Cu1   O5    S    
C31   C32   A    
C23   C34   A    
Cu2   O2    S    
C14   H24   S    
C35   H19   S    
C6    H8    S    
C4    O3    A    
C10   N2    A    
Cu2   O8    S    
C33   H18   S    
C22   C24   A    
C17   C34   A    
C37   H3    S    
C26   H11   S    
C3    C15   S    
C19   H2    S    
C16   O8    A    
C40   H6    S    
C8    C14   S    
C34   H1    S    
C3    C5    A    
C36   H26   S    
C6    C7    S    
C7    C22   S    
C29   C35   A    
Cu2   O6    S    
C32   C33   A    
C2    C3    A    
C25   H10   S    
C11   C13   S    
C5    C6    S    
C13   H22   S    
C8    C11   A    
C33   C35   A    
C7    C38   S    
C18   C20   A    
C1    C39   S    
Cu1   O3    S    
C2    C40   A    
C27   C28   A    
C32   H17   S    
C13   C14   S    
C20   H4    S    
Cu1   N2    S    
C21   H5    S    
