data_mof_unit_14537.cif
_audit_creation_date              2012-12-10T16:56:32-0500
_audit_creation_method            fapswitch 2.2
_symmetry_space_group_name_H-M    P1
_symmetry_Int_Tables_number       1
_space_group_crystal_system       triclinic
_cell_length_a                    7.874949
_cell_length_b                    8.567401
_cell_length_c                    15.712239
_cell_angle_alpha                 92.262081
_cell_angle_beta                  85.05549
_cell_angle_gamma                 94.325858
_cell_volume                      1052.53721907

loop_
_atom_site_label
_atom_site_type_symbol
_atom_type_description
_atom_site_fract_x
_atom_site_fract_y
_atom_site_fract_z
_atom_type_partial_charge
C1    C     C_R   0.545812 0.794404 0.497869 0.949945
C2    C     C_R   0.454188 0.205595 0.502131 0.949948
C3    C     C_R   0.501460 0.503905 0.661605 0.884437
C4    C     C_R   0.498540 0.496096 0.338394 0.884440
C5    C     C_2   0.569293 0.958564 0.496582 -0.375630
C6    C     C_2   0.430707 0.041435 0.503416 -0.375620
C7    C     C_3   0.468105 0.644119 0.033246 0.333154
C8    C     C_3   0.531909 0.355906 0.966755 0.333223
C9    C     C_3   0.622107 0.606822 0.970014 0.390600
C10   C     C_3   0.377911 0.393200 0.029986 0.390614
C11   C     C_1   0.503872 0.509963 0.750375 -0.189501
C12   C     C_1   0.496130 0.490044 0.249624 -0.189498
C13   C     C_3   0.347225 0.538907 0.979717 -0.183097
C14   C     C_3   0.652789 0.461116 0.020284 -0.183061
C15   C     C_3   0.501867 0.501736 0.916597 -0.138397
C16   C     C_3   0.498148 0.498286 0.083403 -0.138390
C17   C     C_1   0.504120 0.510417 0.825635 0.045389
C18   C     C_1   0.495886 0.489594 0.174364 0.045357
H1    H     H_    0.699855 0.010597 0.490008 0.182441
H2    H     H_    0.300145 0.989403 0.509991 0.182441
H3    H     H_    0.011508 0.380500 0.435692 0.195524
H4    H     H_    0.988491 0.619500 0.564308 0.195522
N1    N     N_2   0.950320 0.457950 0.477300 -0.173209
N2    N     N_2   0.049680 0.542050 0.522700 -0.173209
O1    O     O_R   0.389250 0.738570 0.505570 -0.612324
O2    O     O_R   0.610750 0.261430 0.494430 -0.612324
O3    O     O_R   0.678390 0.711630 0.491020 -0.627419
O4    O     O_R   0.321610 0.288370 0.508980 -0.627417
O5    O     O_R   0.355460 0.513480 0.630490 -0.607632
O6    O     O_R   0.644540 0.486520 0.369510 -0.607631
O7    O     O_R   0.644600 0.486540 0.615950 -0.613657
O8    O     O_R   0.355400 0.513460 0.384050 -0.613661
Zn1   Zn    Zn3+2 0.306940 0.517990 0.509710 0.953348
Zn2   Zn    Zn3+2 0.693060 0.482010 0.490290 0.953349
O9    O     O_3   0.749914 0.700953 0.923360 -0.589187
C19   C     C_3   0.776416 0.849271 0.963083 0.125983
H5    H     H_    0.826870 0.838414 0.026129 0.135391
H6    H     H_    0.656841 0.909967 0.970234 0.225676
C20   C     C_3   0.905046 0.949643 0.906874 -0.798312
H7    H     H_    0.871773 0.941952 0.839558 0.263096
H8    H     H_    0.903783 0.073832 0.929670 0.234627
H9    H     H_    0.035525 0.910242 0.909071 0.244102
O10   O     O_3   0.250114 0.299062 0.076641 -0.589213
C21   C     C_3   0.223636 0.150732 0.036933 0.125994
H10   H     H_    0.343233 0.090053 0.029764 0.225674
H11   H     H_    0.173141 0.161555 0.973891 0.135394
C22   C     C_3   0.095031 0.050372 0.093162 -0.798420
H12   H     H_    0.964560 0.089747 0.090966 0.244084
H13   H     H_    0.096285 0.926181 0.070394 0.234659
H14   H     H_    0.128299 0.058103 0.160466 0.263129
O11   O     O_3   0.428687 0.794826 0.067189 -0.632472
C23   C     C_3   0.513062 0.833606 0.142264 0.086404
H15   H     H_    0.638639 0.781716 0.141632 0.124372
H16   H     H_    0.429630 0.792105 0.198679 0.178684
C24   C     C_3   0.547252 0.010316 0.154222 -0.864428
H17   H     H_    0.426223 0.066557 0.170635 0.272482
H18   H     H_    0.629223 0.035926 0.207880 0.219287
H19   H     H_    0.614205 0.061977 0.095855 0.264153
O12   O     O_3   0.571345 0.205201 0.932816 -0.632393
C25   C     C_3   0.486880 0.166379 0.857765 0.086356
H20   H     H_    0.570199 0.207963 0.801324 0.178627
H21   H     H_    0.361237 0.218166 0.858447 0.124298
C26   C     C_3   0.452873 0.989647 0.845803 -0.864205
H22   H     H_    0.386359 0.937847 0.904252 0.264309
H23   H     H_    0.370580 0.963967 0.792270 0.219270
H24   H     H_    0.573977 0.933592 0.829186 0.272325
C27   C     C_1   0.811508 0.425221 0.053965 0.235766
N3    N     N_1   0.935126 0.398903 0.083257 -0.139655
C28   C     C_1   0.188505 0.574783 0.946029 0.235725
N4    N     N_1   0.064888 0.601082 0.916729 -0.139639

loop_
_geom_bond_atom_site_label_1
_geom_bond_atom_site_label_2
_ccdc_geom_bond_type
C2    O2    A    
C3    O7    A    
C24   H17   S    
C21   C22   S    
C7    C9    S    
C5    H1    S    
C8    O12   S    
C4    C12   S    
C6    H2    S    
N2    Zn1   S    
C23   C24   S    
N1    N2    D    
N1    Zn2   S    
C26   H23   S    
O1    Zn1   S    
C19   H6    S    
C9    C15   S    
O7    Zn2   S    
C7    O11   S    
O12   C25   S    
C22   H13   S    
C16   C18   S    
C10   C16   S    
C23   H15   S    
C27   N3    T    
C1    O1    A    
C13   C15   S    
C3    O5    A    
C2    C6    S    
C19   C20   S    
C13   C28   S    
O10   C21   S    
C25   C26   S    
C1    C5    S    
C5    C6    D    
C25   H21   S    
C19   H5    S    
C23   H16   S    
O4    Zn1   S    
C22   H14   S    
H4    N2    S    
C24   H18   S    
O3    Zn2   S    
C28   N4    T    
C14   C16   S    
C26   H24   S    
C4    O6    A    
C3    C11   S    
C2    O4    A    
C4    O8    A    
C14   C27   S    
C9    O9    S    
O11   C23   S    
C22   H12   S    
O5    Zn1   S    
C7    C13   S    
C21   H10   S    
C20   H8    S    
C1    O3    A    
C24   H19   S    
C12   C18   T    
C20   H7    S    
C15   C17   S    
C9    C14   S    
O6    Zn2   S    
C20   H9    S    
C7    C16   S    
C8    C14   S    
C8    C15   S    
C25   H20   S    
C10   O10   S    
H3    N1    S    
O2    Zn2   S    
C8    C10   S    
C11   C17   T    
O9    C19   S    
O8    Zn1   S    
C21   H11   S    
C26   H22   S    
C10   C13   S    
