data_mof_unit_67592.cif
_audit_creation_date              2012-10-26T19:41:52-0400
_audit_creation_method            fapswitch 2.2
_symmetry_space_group_name_H-M    P1
_symmetry_Int_Tables_number       1
_space_group_crystal_system       triclinic
_cell_length_a                    11.186571
_cell_length_b                    11.29846
_cell_length_c                    10.056889
_cell_angle_alpha                 91.015625
_cell_angle_beta                  92.299545
_cell_angle_gamma                 108.10844
_cell_volume                      1206.55959842

loop_
_atom_site_label
_atom_site_type_symbol
_atom_type_description
_atom_site_fract_x
_atom_site_fract_y
_atom_site_fract_z
_atom_type_partial_charge
C1    C     C_R   0.506180 0.265924 0.500452 0.559928
C2    C     C_R   0.538656 0.077817 0.621321 -0.037008
C3    C     C_R   0.521808 0.138167 0.502695 -0.012726
C4    C     C_R   0.255493 0.480946 0.499738 0.622616
C5    C     C_R   0.516026 0.072379 0.382352 0.186897
C6    C     C_R   0.475157 0.939892 0.377587 0.225962
C7    C     C_R   0.478989 0.871436 0.498830 0.021939
C8    C     C_R   0.719542 0.687477 0.148209 0.238278
C9    C     C_R   0.829256 0.738305 0.071182 0.255441
C10   C     C_R   0.836745 0.667559 0.962926 0.209781
C11   C     C_R   0.730831 0.641760 0.874155 0.201132
C12   C     C_3   0.954372 0.486096 0.392758 0.176487
C13   C     C_R   0.606064 0.580934 0.930952 0.050651
C14   C     C_R   0.604470 0.587352 0.081544 0.038463
C15   C     C_R   0.413784 0.410806 0.066739 0.255680
C16   C     C_R   0.488834 0.735280 0.499651 0.662068
C17   C     C_R   0.413931 0.409071 0.919867 0.303170
C18   C     C_R   0.733789 0.481691 0.501157 0.644624
C19   C     C_3   0.015188 0.403562 0.621487 0.244938
C20   C     C_3   0.908905 0.329792 0.521674 0.266764
C21   C     C_3   0.859699 0.445261 0.502526 -0.069802
C22   C     C_3   0.963914 0.515074 0.606864 -0.104357
C23   C     C_3   0.002614 0.373960 0.410425 0.198754
C24   C     C_3   0.054820 0.560883 0.496216 0.163226
C25   C     C_3   0.108522 0.451319 0.508211 -0.063578
C26   C     C_R   0.615474 0.141400 0.734852 0.304382
C27   C     C_R   0.643808 0.072655 0.837507 0.398817
C28   C     C_R   0.569976 0.950283 0.850324 0.299704
C29   C     C_R   0.485579 0.890340 0.746969 -0.029193
C30   C     C_R   0.496910 0.944480 0.621041 -0.073949
Cl1   Cl    Cl    0.831240 0.166651 0.534938 -0.468033
Cl2   Cl    Cl    0.607102 0.860986 0.974527 -0.502641
Cl3   Cl    Cl    0.044509 0.337535 0.771922 -0.298894
Cl4   Cl    Cl    0.007858 0.257908 0.294055 -0.365370
Cl5   Cl    Cl    0.703949 0.299585 0.749963 -0.444926
Cl6   Cl    Cl    0.786617 0.134788 0.931754 -0.236273
Cu1   Cu    Cu3+1 0.499990 0.499990 0.640660 1.207394
Cu2   Cu    Cu3+1 0.500010 0.500010 0.359340 1.249126
H1    H     H_    0.429177 0.795597 0.761510 0.211406
H2    H     H_    0.149377 0.903151 0.486428 0.383154
H3    H     H_    0.140514 0.547131 0.205155 0.380821
H4    H     H_    0.765964 0.103076 0.224327 0.421595
H5    H     H_    0.930868 0.562277 0.683280 0.263634
H6    H     H_    0.434607 0.721274 0.129343 0.372320
H7    H     H_    0.181049 0.392822 0.028974 0.361523
H8    H     H_    0.702666 0.936852 0.365787 0.373581
H9    H     H_    0.956147 0.079059 0.101660 0.438588
H10   H     H_    0.182123 0.718894 0.001133 0.389888
H11   H     H_    0.901366 0.805162 0.593131 0.439825
H12   H     H_    0.243264 0.194731 0.631064 0.369396
N1    N     N_R   0.501210 0.501210 0.147910 -0.282023
N2    N     N_R   0.501250 0.501290 0.852040 -0.272688
O1    O     O_R   0.499990 0.319640 0.618810 -0.434743
O2    O     O_2   0.436967 0.947016 0.105485 -0.160521
O3    O     O_3   0.368785 0.722887 0.190975 -0.482546
O4    O     O_2   0.288700 0.165110 0.101377 -0.111854
O5    O     O_2   0.286937 0.296775 0.288081 -0.232063
O6    O     O_3   0.154892 0.314952 0.078851 -0.379493
O7    O     O_2   0.708232 0.705594 0.430740 -0.249627
O8    O     O_2   0.873754 0.851134 0.346203 -0.170085
O9    O     O_3   0.665226 0.875214 0.292234 -0.473870
O10   O     O_2   0.046227 0.898413 0.209143 -0.084872
O11   O     O_2   0.038575 0.928962 0.978938 -0.117673
O12   O     O_R   0.500000 0.319660 0.381240 -0.430685
O13   O     O_3   0.889237 0.001242 0.120638 -0.409014
O14   O     O_2   0.980664 0.530378 0.899398 -0.195815
O15   O     O_2   0.035739 0.738259 0.800914 -0.209241
O16   O     O_3   0.103700 0.723301 0.040315 -0.367594
O17   O     O_2   0.685091 0.818210 0.692534 -0.270756
O18   O     O_2   0.868419 0.878521 0.816444 -0.165480
O19   O     O_3   0.853644 0.724632 0.629823 -0.476564
O20   O     O_2   0.396956 0.178693 0.833852 -0.259853
O21   O     O_2   0.195877 0.198718 0.881901 -0.120639
O22   O     O_3   0.281542 0.281002 0.667449 -0.486682
O23   O     O_R   0.316850 0.499960 0.618770 -0.448023
O24   O     O_2   0.220663 0.742429 0.639666 -0.290405
O25   O     O_2   0.244460 0.714397 0.403221 -0.265072
O26   O     O_3   0.082701 0.821977 0.471230 -0.400187
O27   O     O_2   0.821574 0.470300 0.162391 -0.197954
O28   O     O_2   0.969762 0.669584 0.250324 -0.193900
O29   O     O_3   0.062574 0.505725 0.150619 -0.403709
O30   O     O_2   0.523712 0.193196 0.147416 -0.145999
O31   O     O_2   0.700802 0.273295 0.305565 -0.265762
O32   O     O_3   0.682415 0.073773 0.177407 -0.364651
O33   O     O_R   0.316860 0.499980 0.381190 -0.452989
O34   O     O_R   0.500000 0.680340 0.618760 -0.477174
O35   O     O_R   0.500010 0.680360 0.381190 -0.407800
O36   O     O_R   0.683140 0.500020 0.618810 -0.443487
O37   O     O_R   0.683150 0.500040 0.381230 -0.420725
O38   O     O_2   0.261734 0.888060 0.240733 -0.129559
S1    S     S_3+6 0.388510 0.874176 0.225217 0.165688
S2    S     S_3+6 0.604550 0.157140 0.250983 0.147284
S3    S     S_3+6 0.288505 0.294032 0.140260 0.158406
S4    S     S_3+6 0.742939 0.774052 0.307516 0.122476
S5    S     S_3+6 0.955282 0.890950 0.094360 0.258842
S6    S     S_3+6 0.990226 0.664198 0.921173 0.140279
S7    S     S_3+6 0.777192 0.764817 0.752478 0.107387
S8    S     S_3+6 0.320336 0.266348 0.827258 0.139969
S9    S     S_3+6 0.153680 0.715032 0.505213 0.074747
S10   S     S_3+6 0.946537 0.533885 0.232837 0.151493

loop_
_geom_bond_atom_site_label_1
_geom_bond_atom_site_label_2
_ccdc_geom_bond_type
C18   C21   S    
Cu1   O36   S    
C19   C20   S    
C4    C25   S    
O22   S8    S    
O20   S8    D    
O24   S9    D    
O31   S2    D    
O19   S7    S    
C12   C23   S    
C26   C27   A    
O16   S6    S    
C21   C22   S    
C28   C29   A    
O6    S3    S    
H12   O22   S    
C5    C6    A    
C6    S1    S    
C24   S9    S    
O11   S5    D    
O30   S2    D    
C1    O1    A    
C4    O23   A    
O3    S1    S    
C14   N1    A    
C8    C9    A    
C16   O35   A    
O7    S4    D    
C15   N1    A    
C29   C30   A    
C9    C10   A    
C9    S5    S    
O18   S7    D    
Cu1   O1    S    
Cu1   O23   S    
C7    C30   A    
O5    S3    D    
O10   S5    D    
O28   S10   D    
C16   O34   A    
O4    S3    D    
C17   N2    A    
Cu2   O12   S    
O21   S8    D    
H7    O6    S    
H8    O9    S    
Cu1   O34   S    
C28   Cl2   S    
C19   C22   S    
H4    O32   S    
C24   C25   S    
C19   Cl3   S    
Cu1   N2    S    
O9    S4    S    
C4    O33   A    
Cu2   O33   S    
C12   C21   S    
C18   O36   A    
C1    C3    S    
Cu1   Cu2   S    
C13   N2    A    
O27   S10   D    
C22   H5    S    
Cu2   O37   S    
C20   C23   S    
C10   S6    S    
C23   Cl4   S    
H3    O29   S    
C29   H1    S    
C8    S4    S    
C2    C26   A    
H10   O16   S    
C7    C16   S    
O15   S6    D    
C22   C24   S    
C1    O12   A    
C27   C28   A    
O14   S6    D    
C17   S8    S    
C15   C17   A    
C8    C14   A    
C18   O37   A    
C3    C5    A    
C15   S3    S    
C6    C7    A    
Cu2   N1    S    
O29   S10   S    
C27   Cl6   S    
C12   C24   S    
C11   S7    S    
Cu2   O35   S    
C2    C30   A    
C2    C3    A    
O2    S1    D    
C11   C13   A    
H6    O3    S    
O38   S1    D    
O25   S9    D    
H2    O26   S    
C23   C25   S    
C19   C25   S    
C12   S10   S    
C5    S2    S    
C10   C11   A    
C26   Cl5   S    
O13   S5    S    
C20   C21   S    
H11   O19   S    
O26   S9    S    
O32   S2    S    
C13   C14   A    
H9    O13   S    
O8    S4    D    
C20   Cl1   S    
O17   S7    D    
