data_mof_unit_67721.cif
_audit_creation_date              2012-10-26T19:56:18-0400
_audit_creation_method            fapswitch 2.2
_symmetry_space_group_name_H-M    P1
_symmetry_Int_Tables_number       1
_space_group_crystal_system       triclinic
_cell_length_a                    11.492146
_cell_length_b                    10.922978
_cell_length_c                    9.648506
_cell_angle_alpha                 94.99741
_cell_angle_beta                  90.278159
_cell_angle_gamma                 89.907573
_cell_volume                      1206.54293278

loop_
_atom_site_label
_atom_site_type_symbol
_atom_type_description
_atom_site_fract_x
_atom_site_fract_y
_atom_site_fract_z
_atom_type_partial_charge
C1    C     C_R   0.500821 0.259377 0.494749 0.590978
C2    C     C_3   0.407128 0.051534 0.559001 0.193789
C3    C     C_3   0.497107 0.879188 0.513183 -0.078008
C4    C     C_3   0.502893 0.120811 0.486817 -0.078009
C5    C     C_3   0.499013 0.979997 0.635556 0.210266
C6    C     C_3   0.500987 0.020003 0.364443 0.210266
C7    C     C_3   0.482929 0.606688 0.058206 0.303364
C8    C     C_3   0.517071 0.393311 0.941794 0.303364
C9    C     C_3   0.402182 0.537630 0.952012 0.315122
C10   C     C_3   0.597818 0.462370 0.047988 0.315122
C11   C     C_3   0.581191 0.570114 0.954542 0.115820
C12   C     C_R   0.499179 0.740623 0.505251 0.590978
C13   C     C_3   0.418809 0.429886 0.045458 0.115820
C14   C     C_R   0.262447 0.495557 0.497556 0.593851
C15   C     C_R   0.737553 0.504443 0.502444 0.593851
C16   C     C_R   0.098226 0.361825 0.017194 0.299712
C17   C     C_R   0.901774 0.638175 0.982806 0.299712
C18   C     C_R   0.110636 0.420250 0.152624 0.227665
C19   C     C_R   0.889364 0.579750 0.847376 0.227665
C20   C     C_R   0.098658 0.351394 0.269223 -0.013248
C21   C     C_R   0.901342 0.648606 0.730777 -0.013248
C22   C     C_R   0.095253 0.221248 0.246187 0.215157
C23   C     C_R   0.872293 0.502640 0.507615 0.048245
C24   C     C_R   0.904747 0.778752 0.753812 0.215157
C25   C     C_R   0.094612 0.163880 0.108875 0.119932
C26   C     C_R   0.905388 0.836120 0.891124 0.119932
C27   C     C_R   0.082250 0.235348 0.996502 0.246518
C28   C     C_R   0.917750 0.764652 0.003498 0.246518
C29   C     C_R   0.932667 0.414554 0.419495 0.271723
C30   C     C_R   0.067333 0.585446 0.580505 0.271723
C31   C     C_R   0.127707 0.497360 0.492385 0.048245
C32   C     C_R   0.943544 0.583759 0.597606 0.039765
C33   C     C_R   0.056456 0.416241 0.402394 0.039765
C34   C     C_3   0.595992 0.049688 0.563133 0.082945
C35   C     C_3   0.404008 0.950312 0.436866 0.082945
C36   C     C_3   0.592871 0.948466 0.440999 0.193789
Cl1   Cl    Cl    0.065575 0.166257 0.825175 -0.291446
Cl2   Cl    Cl    0.854285 0.421964 0.824475 -0.416736
Cl3   Cl    Cl    0.088233 0.131511 0.388238 -0.335892
Cl4   Cl    Cl    0.911767 0.868489 0.611762 -0.335891
Cl5   Cl    Cl    0.852075 0.289384 0.341516 -0.390809
Cl6   Cl    Cl    0.147925 0.710616 0.658484 -0.390809
Cl7   Cl    Cl    0.714081 0.872123 0.360893 -0.324146
Cl8   Cl    Cl    0.285919 0.127877 0.639107 -0.324146
Cl9   Cl    Cl    0.472894 0.960672 0.813575 -0.288762
Cl10  Cl    Cl    0.527106 0.039328 0.186425 -0.288762
Cl11  Cl    Cl    0.934425 0.833743 0.174824 -0.291446
Cl12  Cl    Cl    0.295364 0.640294 0.898780 -0.295546
Cl13  Cl    Cl    0.704636 0.359706 0.101220 -0.295546
Cl14  Cl    Cl    0.448594 0.758623 0.130140 -0.345924
Cl15  Cl    Cl    0.551406 0.241377 0.869860 -0.345924
Cl16  Cl    Cl    0.122636 0.438973 0.868993 -0.410087
Cl17  Cl    Cl    0.877363 0.561027 0.131007 -0.410087
Cl18  Cl    Cl    0.145715 0.578036 0.175525 -0.416736
Cu1   Cu    Cu3+1 0.500030 0.499990 0.643150 1.203074
Cu2   Cu    Cu3+1 0.499970 0.500010 0.356850 1.203074
I1    I     I_    0.644545 0.732179 0.884159 -0.074578
I2    I     I_    0.355455 0.267820 0.115840 -0.074578
I3    I     I_    0.162027 0.983878 0.059669 0.159498
I4    I     I_    0.837973 0.016122 0.940331 0.159498
I5    I     I_    0.754868 0.140477 0.621588 0.176020
I6    I     I_    0.245132 0.859523 0.378411 0.176021
N1    N     N_3   0.500090 0.499970 0.858290 -0.323702
N2    N     N_3   0.499910 0.500030 0.141710 -0.323703
O1    O     O_R   0.500060 0.316850 0.620870 -0.444779
O2    O     O_R   0.499940 0.683150 0.379130 -0.444779
O3    O     O_R   0.500000 0.316860 0.379090 -0.468777
O4    O     O_R   0.500000 0.683140 0.620910 -0.468777
O5    O     O_R   0.319670 0.500010 0.620890 -0.414042
O6    O     O_R   0.680330 0.499990 0.379110 -0.414042
O7    O     O_R   0.319620 0.500010 0.379110 -0.496962
O8    O     O_R   0.680380 0.499990 0.620890 -0.496962

loop_
_geom_bond_atom_site_label_1
_geom_bond_atom_site_label_2
_ccdc_geom_bond_type
C2    C35   S    
Cu1   Cu2   S    
C28   Cl11  S    
C8    C13   S    
C14   O7    A    
C14   C31   S    
Cu1   O4    S    
C7    C11   S    
C15   O8    A    
C12   O4    A    
C23   C29   A    
C19   C21   A    
C24   C26   A    
C11   N1    S    
C30   C31   A    
C29   C33   A    
C6    C35   S    
C9    C13   S    
C3    C12   S    
C17   C19   A    
C2    Cl8   S    
C22   C25   A    
Cu1   N1    S    
C1    O1    A    
Cu2   N2    S    
C18   C20   A    
Cu1   O8    S    
C16   C27   A    
C15   C23   S    
Cu1   O1    S    
C21   C32   S    
C4    C34   S    
C4    C6    S    
C13   I2    S    
C5    Cl9   S    
C34   I5    S    
C2    C4    S    
C19   Cl2   S    
C3    C35   S    
Cu2   O7    S    
C5    C34   S    
C31   C33   A    
C8    Cl15  S    
Cu1   O5    S    
C20   C33   S    
C8    C10   S    
C20   C22   A    
Cu2   O6    S    
C14   O5    A    
C2    C5    S    
C17   Cl17  S    
C7    C9    S    
C15   O6    A    
C6    Cl10  S    
C29   Cl5   S    
C9    N1    S    
C17   C28   A    
C10   N2    S    
C16   Cl16  S    
C7    Cl14  S    
C3    C5    S    
C1    O3    A    
C25   C27   A    
Cu2   O3    S    
C26   C28   A    
C1    C4    S    
C23   C32   A    
C30   C32   A    
C13   N2    S    
C12   O2    A    
C3    C36   S    
C27   Cl1   S    
Cu2   O2    S    
C22   Cl3   S    
C24   Cl4   S    
C6    C36   S    
C35   I6    S    
C34   C36   S    
C7    N2    S    
C10   C11   S    
C18   Cl18  S    
C8    N1    S    
C9    Cl12  S    
C16   C18   A    
C21   C24   A    
C30   Cl6   S    
C36   Cl7   S    
C25   I3    S    
C11   I1    S    
C10   Cl13  S    
C26   I4    S    
