data_mof_unit_44354.cif
_audit_creation_date              2012-12-10T20:31:09-0500
_audit_creation_method            fapswitch 2.2
_symmetry_space_group_name_H-M    P1
_symmetry_Int_Tables_number       1
_space_group_crystal_system       triclinic
_cell_length_a                    14.91468
_cell_length_b                    10.723673
_cell_length_c                    9.868632
_cell_angle_alpha                 90.671051
_cell_angle_beta                  89.856746
_cell_angle_gamma                 90.337969
_cell_volume                      1578.25011751

loop_
_atom_site_label
_atom_site_type_symbol
_atom_type_description
_atom_site_fract_x
_atom_site_fract_y
_atom_site_fract_z
_atom_type_partial_charge
Br1   Br    Br    0.651341 0.870574 0.834228 -0.544848
Br2   Br    Br    0.910852 0.891156 0.578992 -0.492758
C1    C     C_R   0.498195 0.260318 0.498930 0.878142
C2    C     C_R   0.186409 0.383198 0.477450 0.023964
C3    C     C_R   0.232289 0.495727 0.500516 -0.085496
C4    C     C_R   0.327302 0.498772 0.500139 0.872335
C5    C     C_R   0.188012 0.607136 0.524405 -0.261466
C6    C     C_R   0.545955 0.067358 0.598045 -0.041202
C7    C     C_R   0.501847 0.128554 0.494488 -0.109388
C8    C     C_R   0.468312 0.060852 0.382052 0.105057
C9    C     C_R   0.470723 0.932012 0.384871 -0.255861
C10   C     C_R   0.504787 0.871607 0.498701 -0.144760
C11   C     C_R   0.548242 0.939877 0.600521 0.077067
C12   C     C_R   0.907467 0.615900 0.520124 0.045431
C13   C     C_3   0.543397 0.938351 0.753054 0.349726
C14   C     C_3   0.538602 0.081075 0.749025 -0.170134
C15   C     C_R   0.444843 0.420853 0.070531 0.155691
C16   C     C_R   0.501066 0.739770 0.500612 0.895744
C17   C     C_R   0.561107 0.568436 0.072679 0.144800
C18   C     C_R   0.561600 0.566704 0.928302 -0.137796
C19   C     C_R   0.445189 0.420291 0.928001 0.127756
C20   C     C_3   0.345000 0.415073 0.923266 -0.108503
C21   C     C_3   0.344968 0.416398 0.077599 -0.478908
C22   C     C_R   0.672668 0.499836 0.499751 0.865696
C23   C     C_R   0.951707 0.274135 0.462997 -0.158671
C24   C     C_R   0.813364 0.614710 0.514079 0.041363
C25   C     C_R   0.768021 0.500446 0.499171 -0.146056
C26   C     C_R   0.812395 0.386884 0.483576 0.013726
C27   C     C_R   0.905464 0.386536 0.482699 0.135576
C28   C     C_R   0.953140 0.500224 0.501902 -0.061981
C29   C     C_R   0.044353 0.272815 0.460844 -0.195648
C30   C     C_R   0.092841 0.383631 0.480037 0.139234
C31   C     C_R   0.047009 0.497677 0.502099 0.037874
C32   C     C_R   0.095391 0.609214 0.523802 0.073891
C33   C     C_R   0.051247 0.721653 0.544772 -0.257027
C34   C     C_R   0.958333 0.727016 0.543169 0.315138
H1    H     H_    0.440969 0.879828 0.301425 0.169642
H2    H     H_    0.089518 0.806592 0.562501 0.177969
H3    H     H_    0.718748 0.725257 0.600841 0.235665
H4    H     H_    0.725814 0.735423 0.429569 0.196188
H5    H     H_    0.456309 0.902087 0.908117 0.185525
H6    H     H_    0.405212 0.917311 0.757456 0.153198
H7    H     H_    0.673952 0.128916 0.751859 0.243080
H8    H     H_    0.604519 0.240943 0.807653 0.210598
H9    H     H_    0.613927 0.737438 0.116343 0.209441
H10   H     H_    0.688306 0.619062 0.115602 0.189656
H11   H     H_    0.326348 0.296277 0.762396 0.204886
H12   H     H_    0.473524 0.120756 0.783518 0.139371
H13   H     H_    0.344951 0.222076 0.908316 0.179223
H14   H     H_    0.721653 0.260398 0.552727 0.187893
H15   H     H_    0.722823 0.277174 0.381866 0.207052
H16   H     H_    0.273437 0.280621 0.364772 0.197527
H17   H     H_    0.276700 0.252400 0.533205 0.172483
H18   H     H_    0.460142 0.095438 0.181495 0.195447
H19   H     H_    0.360268 0.088132 0.262528 0.169913
H20   H     H_    0.610916 0.620096 0.873606 0.200353
H21   H     H_    0.313746 0.498600 0.877667 0.194365
H22   H     H_    0.316019 0.503129 0.121794 0.203574
H23   H     H_    0.320112 0.328792 0.124072 0.205208
H24   H     H_    0.916606 0.186361 0.448097 0.211703
H25   H     H_    0.077606 0.184368 0.444483 0.188749
H26   H     H_    0.226160 0.692420 0.541721 0.140065
N1    N     N_R   0.499390 0.499140 0.142800 -0.105280
N2    N     N_3   0.426161 0.121268 0.270196 -0.444660
N3    N     N_R   0.499390 0.499180 0.857150 -0.127489
N4    N     N_3   0.763034 0.728377 0.518808 -0.376201
N5    N     N_3   0.461436 0.879749 0.804988 -0.430165
N6    N     N_3   0.616186 0.145000 0.809771 -0.389010
N7    N     N_3   0.623657 0.645055 0.145351 -0.388856
N8    N     N_3   0.311187 0.297411 0.865784 -0.427830
N9    N     N_3   0.763110 0.271769 0.468133 -0.445378
N10   N     N_3   0.234144 0.269234 0.451586 -0.476749
O1    O     O_R   0.500010 0.316790 0.614690 -0.646601
O2    O     O_R   0.500000 0.316760 0.385350 -0.590189
O3    O     O_R   0.367850 0.499990 0.614680 -0.628658
O4    O     O_R   0.367840 0.499950 0.385340 -0.624334
O5    O     O_R   0.500000 0.683240 0.614650 -0.589015
O6    O     O_R   0.499990 0.683210 0.385310 -0.612848
O7    O     O_R   0.632160 0.500050 0.614660 -0.621057
O8    O     O_R   0.632150 0.500010 0.385320 -0.601258
Zn1   Zn    Zn3+2 0.500010 0.500020 0.653130 0.943999
Zn2   Zn    Zn3+2 0.499990 0.499980 0.346870 0.965100

loop_
_geom_bond_atom_site_label_1
_geom_bond_atom_site_label_2
_ccdc_geom_bond_type
C23   C29   A    
C21   H22   S    
C6    C11   A    
C29   H25   S    
C33   C34   A    
C22   C25   S    
C18   H20   S    
C14   H12   S    
C20   H21   S    
C4    O3    A    
H5    N5    S    
C21   H23   S    
C24   C25   A    
C15   C21   S    
C1    C7    S    
C26   C27   A    
O2    Zn2   S    
C12   C34   A    
C3    C4    S    
C13   C14   S    
C32   C33   A    
C9    H1    S    
C1    O2    A    
H10   N7    S    
C22   O8    A    
C17   C18   A    
C17   N1    A    
C6    C7    A    
C14   N6    S    
C23   H24   S    
C7    C8    A    
C6    C14   S    
H4    N4    S    
C19   C20   S    
H15   N9    S    
C12   C28   A    
O1    Zn1   S    
C23   C27   A    
N1    Zn2   S    
H9    N7    S    
C24   N4    S    
C18   N3    A    
C33   H2    S    
O8    Zn2   S    
O4    Zn2   S    
O7    Zn1   S    
O3    Zn1   S    
H11   N8    S    
C15   C19   A    
H14   N9    S    
C5    H26   S    
C27   C28   A    
H16   N10   S    
O6    Zn2   S    
C22   O7    A    
N3    Zn1   S    
C29   C30   A    
O5    Zn1   S    
C16   O6    A    
C13   N5    S    
H19   N2    S    
C31   C32   A    
C12   C24   A    
C2    C30   A    
Br1   C13   S    
H13   N8    S    
C11   C13   S    
H6    N5    S    
C5    C32   A    
C17   N7    S    
C26   N9    S    
C2    N10   S    
C3    C5    A    
Br2   C34   S    
C28   C31   A    
C19   N3    A    
C8    N2    S    
C2    C3    A    
C9    C10   A    
C4    O4    A    
H7    N6    S    
C30   C31   A    
C15   N1    A    
H18   N2    S    
C16   O5    A    
H3    N4    S    
C1    O1    A    
H8    N6    S    
C8    C9    A    
C10   C11   A    
C10   C16   S    
C25   C26   A    
C20   C21   S    
H17   N10   S    
C20   N8    S    
