data_mof_unit_34656.cif
_audit_creation_date              2012-10-26T18:34:45-0400
_audit_creation_method            fapswitch 2.2
_symmetry_space_group_name_H-M    P1
_symmetry_Int_Tables_number       1
_space_group_crystal_system       triclinic
_cell_length_a                    10.773436
_cell_length_b                    9.514335
_cell_length_c                    17.744309
_cell_angle_alpha                 90.016389
_cell_angle_beta                  89.940778
_cell_angle_gamma                 89.961371
_cell_volume                      1818.82710682

loop_
_atom_site_label
_atom_site_type_symbol
_atom_type_description
_atom_site_fract_x
_atom_site_fract_y
_atom_site_fract_z
_atom_type_partial_charge
C1    C     C_R   0.262601 0.500068 0.500340 0.548536
C2    C     C_R   0.500659 0.500016 0.644480 0.526634
C3    C     C_R   0.871414 0.499721 0.499356 0.032365
C4    C     C_R   0.128594 0.500280 0.500638 0.032381
C5    C     C_R   0.501129 0.628717 0.845953 0.002942
C6    C     C_R   0.499080 0.371291 0.154046 0.002914
C7    C     C_R   0.498744 0.628712 0.154098 0.003043
C8    C     C_R   0.501078 0.371285 0.845904 0.003064
C9    C     C_R   0.501252 0.627416 0.767128 -0.122583
C10   C     C_R   0.498951 0.372586 0.232872 -0.122592
C11   C     C_R   0.498622 0.627391 0.232924 -0.125174
C12   C     C_R   0.737403 0.499932 0.499655 0.548520
C13   C     C_R   0.501199 0.372605 0.767079 -0.125178
C14   C     C_R   0.501086 0.500017 0.727361 -0.026294
C15   C     C_R   0.498923 0.499982 0.272638 -0.026284
C16   C     C_R   0.425037 0.074458 0.451981 0.014128
C17   C     C_R   0.574963 0.925542 0.548019 0.014131
C18   C     C_R   0.574965 0.074409 0.548019 0.014017
C19   C     C_R   0.425034 0.925591 0.451981 0.014017
C20   C     C_R   0.500900 0.499997 0.885379 0.065280
C21   C     C_R   0.499117 0.500007 0.114622 0.065293
C22   C     C_3   0.501144 0.767460 0.887146 -0.407697
C23   C     C_1   0.500291 0.499998 0.966245 -0.031868
C24   C     C_3   0.499275 0.232570 0.112846 -0.407748
C25   C     C_3   0.498572 0.767444 0.112956 -0.407979
C26   C     C_3   0.501040 0.232534 0.887043 -0.407926
C27   C     C_3   0.133676 0.448146 0.641977 -0.383307
C28   C     C_3   0.866337 0.552015 0.358033 -0.383339
C29   C     C_3   0.857967 0.446710 0.638979 -0.385319
C30   C     C_3   0.142051 0.552929 0.360978 -0.385328
C31   C     C_1   0.499726 0.500010 0.033755 -0.031880
C32   C     C_R   0.064322 0.473853 0.568669 -0.007588
C33   C     C_R   0.935687 0.526176 0.431328 -0.007591
C34   C     C_R   0.933745 0.473318 0.567850 -0.014138
C35   C     C_R   0.066266 0.526587 0.432136 -0.014131
C36   C     C_R   0.499345 0.499984 0.355519 0.526629
Cu1   Cu    Cu3+1 0.500000 0.640660 0.500000 0.922287
Cu2   Cu    Cu3+1 0.500000 0.359340 0.500000 0.922288
H1    H     H_    0.501363 0.726221 0.736766 0.127546
H2    H     H_    0.417039 0.775552 0.923114 0.132678
H3    H     H_    0.585051 0.775198 0.923194 0.131434
H4    H     H_    0.499197 0.142061 0.152372 0.114868
H5    H     H_    0.415382 0.224697 0.076800 0.131444
H6    H     H_    0.583393 0.224668 0.076882 0.132708
H7    H     H_    0.498222 0.857937 0.152520 0.114738
H8    H     H_    0.582684 0.775528 0.077010 0.132607
H9    H     H_    0.414672 0.775158 0.076901 0.131428
H10   H     H_    0.501259 0.142023 0.847482 0.114718
H11   H     H_    0.584926 0.224637 0.923104 0.131394
H12   H     H_    0.498994 0.273788 0.263236 0.127567
H13   H     H_    0.416914 0.224587 0.922991 0.132594
H14   H     H_    0.235854 0.452524 0.636736 0.148417
H15   H     H_    0.107590 0.529581 0.683942 0.125786
H16   H     H_    0.110444 0.342206 0.664079 0.129683
H17   H     H_    0.764148 0.547946 0.363305 0.148479
H18   H     H_    0.889779 0.657878 0.335900 0.129677
H19   H     H_    0.892215 0.470475 0.316079 0.125776
H20   H     H_    0.799667 0.351619 0.631290 0.139479
H21   H     H_    0.913516 0.429576 0.690490 0.121428
H22   H     H_    0.796603 0.538247 0.650150 0.131592
H23   H     H_    0.498401 0.726180 0.263327 0.126612
H24   H     H_    0.200371 0.648036 0.368565 0.139433
H25   H     H_    0.203397 0.461333 0.349901 0.131609
H26   H     H_    0.086504 0.569849 0.309445 0.121443
H27   H     H_    0.501263 0.273809 0.736678 0.126637
H28   H     H_    0.364983 0.130620 0.413529 0.107471
H29   H     H_    0.635015 0.869380 0.586471 0.107470
H30   H     H_    0.635020 0.130529 0.586468 0.102868
H31   H     H_    0.364976 0.869471 0.413533 0.102886
H32   H     H_    0.501359 0.857980 0.847620 0.114831
N1    N     N_R   0.500000 0.852070 0.500000 -0.221578
N2    N     N_R   0.500000 0.147930 0.500000 -0.221579
O1    O     O_R   0.319640 0.618740 0.499990 -0.499408
O2    O     O_R   0.680360 0.381260 0.500010 -0.499409
O3    O     O_R   0.680360 0.618740 0.500010 -0.499789
O4    O     O_R   0.319640 0.381260 0.499990 -0.499773
O5    O     O_R   0.500000 0.618830 0.391250 -0.510214
O6    O     O_R   0.500000 0.381170 0.608750 -0.510194
O7    O     O_R   0.500000 0.618830 0.608750 -0.504941
O8    O     O_R   0.500000 0.381170 0.391250 -0.504942

loop_
_geom_bond_atom_site_label_1
_geom_bond_atom_site_label_2
_ccdc_geom_bond_type
C8    C13   A    
C30   H26   S    
C8    C26   S    
C19   N1    A    
C16   N2    A    
C28   H18   S    
C27   H16   S    
C5    C20   A    
C13   H27   S    
C28   H19   S    
C7    C11   A    
C21   C31   S    
C8    C20   A    
C30   C35   S    
C12   O2    A    
C10   C15   A    
C22   H3    S    
C3    C33   A    
C18   H30   S    
C9    H1    S    
C24   H4    S    
C2    O7    A    
C11   C15   A    
C5    C22   S    
C29   H21   S    
C20   C23   S    
C3    C12   S    
C25   H9    S    
C26   H10   S    
Cu1   O3    S    
C4    C35   A    
C22   H2    S    
C13   C14   A    
C28   H17   S    
C18   N2    A    
Cu2   N2    S    
C17   H29   S    
C36   O8    A    
C26   H11   S    
Cu2   O4    S    
Cu2   O6    S    
C3    C34   A    
C7    C21   A    
C6    C21   A    
Cu1   O5    S    
C29   C34   S    
C23   C31   T    
C9    C14   A    
C5    C9    A    
Cu1   Cu2   S    
C2    O6    A    
Cu1   O7    S    
C29   H22   S    
C6    C24   S    
C17   C18   A    
C4    C32   A    
C28   C33   S    
C17   N1    A    
C30   H24   S    
C24   H6    S    
C19   H31   S    
C16   H28   S    
C10   H12   S    
C25   H7    S    
C15   C36   S    
C27   H14   S    
Cu2   O2    S    
Cu1   O1    S    
C27   C32   S    
C1    O4    A    
C11   H23   S    
C6    C10   A    
C27   H15   S    
C7    C25   S    
C36   O5    A    
C1    C4    S    
C1    O1    A    
Cu1   N1    S    
C26   H13   S    
Cu2   O8    S    
C16   C19   A    
C33   C35   A    
C2    C14   S    
C29   H20   S    
C12   O3    A    
C24   H5    S    
C30   H25   S    
C25   H8    S    
C22   H32   S    
C32   C34   A    
