data_mof_unit_54359.cif
_audit_creation_date              2012-12-10T17:19:00-0500
_audit_creation_method            fapswitch 2.2
_symmetry_space_group_name_H-M    P1
_symmetry_Int_Tables_number       1
_space_group_crystal_system       triclinic
_cell_length_a                    10.219873
_cell_length_b                    10.424845
_cell_length_c                    13.639686
_cell_angle_alpha                 92.712654
_cell_angle_beta                  101.356486
_cell_angle_gamma                 94.849844
_cell_volume                      1416.58009558

loop_
_atom_site_label
_atom_site_type_symbol
_atom_type_description
_atom_site_fract_x
_atom_site_fract_y
_atom_site_fract_z
_atom_type_partial_charge
C1    C     C_R   0.053608 0.735228 0.498314 0.857205
C2    C     C_2   0.040726 0.078959 0.590399 -0.055060
C3    C     C_2   0.430759 0.517244 0.504107 -0.154213
C4    C     C_2   0.568631 0.489050 0.489432 -0.138485
C5    C     C_R   0.096692 0.523257 0.685303 0.864775
C6    C     C_R   0.906234 0.487069 0.314408 0.862921
C7    C     C_R   0.154877 0.561814 0.790480 -0.111080
C8    C     C_R   0.858112 0.478786 0.206815 -0.106089
C9    C     C_R   0.136660 0.598789 0.964035 -0.205773
C10   C     C_R   0.835558 0.361524 0.046858 -0.206174
C11   C     C_R   0.075674 0.567193 0.863636 -0.204910
C12   C     C_R   0.950794 0.265662 0.510904 0.891928
C13   C     C_R   0.895298 0.380852 0.147682 -0.246367
C14   C     C_R   0.293771 0.593098 0.819350 0.113210
C15   C     C_R   0.766744 0.562494 0.164126 0.098600
C16   C     C_R   0.352377 0.579377 0.919352 0.068530
C17   C     C_R   0.681206 0.520259 0.071845 0.075454
C18   C     C_R   0.277537 0.604942 0.993409 0.088748
C19   C     C_R   0.725334 0.429139 0.006777 0.075866
C20   C     C_R   0.480889 0.537397 0.946419 0.007701
C21   C     C_R   0.550318 0.558692 0.045888 0.015631
C22   C     C_3   0.283175 0.685441 0.174829 -0.458662
C23   C     C_R   0.480845 0.602944 0.118799 -0.238202
C24   C     C_3   0.245489 0.582803 0.242207 -0.781384
C25   C     C_3   0.693235 0.313372 0.829179 -0.451387
C26   C     C_3   0.696507 0.377284 0.730975 -0.798839
C27   C     C_3   0.783144 0.703210 0.206361 -0.384078
C28   C     C_3   0.799737 0.797583 0.126238 -0.854455
C29   C     C_3   0.373649 0.665951 0.751950 -0.391066
C30   C     C_3   0.446125 0.793152 0.803422 -0.869933
C31   C     C_1   0.155171 0.157306 0.650701 0.210917
C32   C     C_1   0.998194 0.875354 0.670166 0.197457
C33   C     C_1   0.814881 0.051941 0.484413 0.170445
C34   C     C_R   0.531337 0.458240 0.879053 -0.218510
C35   C     C_1   0.150450 0.940003 0.442378 0.171048
C36   C     C_R   0.346127 0.628105 0.093666 0.153662
C37   C     C_R   0.652128 0.403072 0.907056 0.146713
C38   C     C_2   0.087340 0.874218 0.514617 -0.219927
C39   C     C_2   0.935784 0.130530 0.533511 -0.232224
C40   C     C_2   0.045786 0.939366 0.589846 -0.050535
H1    H     H_    0.969663 0.318326 0.179866 0.164255
H2    H     H_    0.335125 0.367664 0.416126 0.174435
H3    H     H_    0.167569 0.510084 0.198624 0.261293
H4    H     H_    0.334605 0.534042 0.275500 0.244402
H5    H     H_    0.206295 0.629900 0.303514 0.283617
H6    H     H_    0.355840 0.761027 0.220859 0.221899
H7    H     H_    0.193691 0.734953 0.143678 0.208164
H8    H     H_    0.593427 0.385916 0.688894 0.248039
H9    H     H_    0.752159 0.474567 0.745747 0.260981
H10   H     H_    0.746914 0.317229 0.683075 0.267095
H11   H     H_    0.793728 0.280943 0.853649 0.205179
H12   H     H_    0.967663 0.549760 0.843302 0.174003
H13   H     H_    0.620654 0.225733 0.813577 0.220677
H14   H     H_    0.882865 0.773118 0.089217 0.256462
H15   H     H_    0.705813 0.795359 0.068946 0.262362
H16   H     H_    0.823806 0.897161 0.161603 0.252416
H17   H     H_    0.701007 0.728853 0.243099 0.210742
H18   H     H_    0.875290 0.721636 0.265836 0.198352
H19   H     H_    0.373890 0.853002 0.830542 0.267142
H20   H     H_    0.526598 0.775434 0.867490 0.263916
H21   H     H_    0.493018 0.847622 0.749147 0.250523
H22   H     H_    0.447759 0.606734 0.727649 0.200454
H23   H     H_    0.072963 0.606679 0.018235 0.162807
H24   H     H_    0.306405 0.693172 0.683476 0.219453
H25   H     H_    0.869865 0.285086 0.005537 0.144968
H26   H     H_    0.525224 0.605595 0.197416 0.159622
H27   H     H_    0.469476 0.427866 0.806552 0.173334
H28   H     H_    0.577032 0.411765 0.435542 0.171471
H29   H     H_    0.421901 0.600373 0.552137 0.162388
H30   H     H_    0.665433 0.626437 0.589531 0.173248
N1    N     N_2   0.322180 0.446120 0.460900 -0.186721
N2    N     N_2   0.677820 0.553880 0.539100 -0.187273
N3    N     N_1   0.246592 0.219372 0.698926 -0.217521
N4    N     N_1   0.960102 0.824716 0.734328 -0.214058
N5    N     N_1   0.718374 0.988998 0.445158 -0.203566
N6    N     N_1   0.200823 0.992542 0.384595 -0.208577
O1    O     O_R   0.935190 0.693030 0.507870 -0.582898
O2    O     O_R   0.064810 0.306970 0.492130 -0.578970
O3    O     O_R   0.142080 0.658430 0.482770 -0.617384
O4    O     O_R   0.857920 0.341570 0.517230 -0.603272
O5    O     O_R   0.969700 0.527180 0.651960 -0.605834
O6    O     O_R   0.030300 0.472820 0.348040 -0.613067
O7    O     O_R   0.176600 0.492580 0.626860 -0.603327
O8    O     O_R   0.823400 0.507420 0.373140 -0.598566
Zn1   Zn    Zn3+2 0.861850 0.523100 0.516760 0.935984
Zn2   Zn    Zn3+2 0.138150 0.476900 0.483240 0.927895

loop_
_geom_bond_atom_site_label_1
_geom_bond_atom_site_label_2
_ccdc_geom_bond_type
C8    C13   A    
C6    O6    A    
C34   C37   A    
C1    O1    A    
C13   H1    S    
N2    Zn1   S    
C28   H16   S    
C7    C11   A    
C33   C39   S    
C24   H5    S    
C23   H26   S    
C3    H29   S    
C25   H13   S    
C26   H10   S    
C32   N4    T    
C5    O7    A    
C31   N3    T    
C11   H12   S    
C19   C37   A    
C25   C37   S    
C2    C39   D    
C33   N5    T    
C7    C14   A    
C30   H20   S    
C29   C30   S    
C26   H8    S    
C20   C34   A    
O2    Zn2   S    
C22   H7    S    
C29   H24   S    
O1    Zn1   S    
C28   H15   S    
C35   N6    T    
C6    O8    A    
C35   C38   S    
O8    Zn1   S    
C27   H17   S    
C26   H9    S    
C4    H28   S    
C28   H14   S    
C6    C8    S    
C25   C26   S    
O6    Zn2   S    
C27   H18   S    
C17   C21   A    
C12   O2    A    
C2    C31   S    
C3    N1    D    
C25   H11   S    
O4    Zn1   S    
N1    Zn2   S    
C5    O5    A    
C15   C27   S    
C10   C19   A    
C16   C20   A    
C30   H19   S    
C9    C11   A    
C1    C38   S    
C22   H6    S    
C8    C15   A    
C21   C23   A    
C24   H4    S    
C22   C24   S    
C14   C29   S    
C3    C4    S    
C4    N2    D    
C5    C7    S    
C10   H25   S    
C15   C17   A    
C29   H22   S    
C9    H23   S    
C10   C13   A    
C34   H27   S    
C22   C36   S    
C12   C39   S    
C38   C40   D    
C1    O3    A    
C12   O4    A    
H2    N1    S    
C17   C19   A    
C14   C16   A    
C32   C40   S    
C2    C40   S    
C9    C18   A    
O7    Zn2   S    
C20   C21   A    
C16   C18   A    
C23   C36   A    
C30   H21   S    
C27   C28   S    
C24   H3    S    
H30   N2    S    
C18   C36   A    
O3    Zn2   S    
O5    Zn1   S    
