data_mof_unit_49724.cif
_audit_creation_date              2013-03-05T16:05:09-0500
_audit_creation_method            fapswitch 2.2
_symmetry_space_group_name_H-M    P1
_symmetry_Int_Tables_number       1
_space_group_crystal_system       triclinic
_cell_length_a                    10.82586
_cell_length_b                    9.502259
_cell_length_c                    10.790057
_cell_angle_alpha                 89.311506
_cell_angle_beta                  90.009739
_cell_angle_gamma                 90.058406
_cell_volume                      1109.89379159

loop_
_atom_site_label
_atom_site_type_symbol
_atom_site_description
_atom_site_fract_x
_atom_site_fract_y
_atom_site_fract_z
_atom_type_partial_charge
O1    O     O_R   0.319660 0.618740 0.499990 -0.591815
O2    O     O_R   0.319660 0.381260 0.499990 -0.592339
C1    C     C_R   0.262045 0.499961 0.499908 0.805154
O3    O     O_R   0.499990 0.618790 0.317690 -0.511651
O4    O     O_R   0.499990 0.381210 0.317690 -0.617803
C2    C     C_R   0.509444 0.501402 0.260440 0.811558
Cu1   Cu    Cu3+1 0.500020 0.640660 0.500000 1.015326
Cu2   Cu    Cu3+1 0.500020 0.359340 0.500000 0.953819
O5    O     O_R   0.680370 0.618830 0.500010 -0.566623
O6    O     O_R   0.680370 0.381170 0.500010 -0.609761
O7    O     O_R   0.500030 0.618780 0.682310 -0.594947
O8    O     O_R   0.500030 0.381220 0.682310 -0.587171
C3    C     C_R   0.737963 0.500006 0.500901 0.819941
C4    C     C_R   0.505042 0.499198 0.739768 0.778098
C5    C     C_3   0.378119 0.507158 0.072942 -0.263535
C6    C     C_3   0.573835 0.362820 0.073940 -0.267100
H1    H     H_    0.339998 0.401150 0.096891 0.115867
H2    H     H_    0.513548 0.275254 0.107780 0.151656
C7    C     C_3   0.375347 0.514109 0.928594 -0.198014
C8    C     C_3   0.564510 0.356159 0.929307 -0.188208
H3    H     H_    0.322652 0.419877 0.897324 0.163530
H4    H     H_    0.495777 0.272432 0.907441 0.175404
H5    H     H_    0.569275 0.721068 0.874575 0.211454
H6    H     H_    0.688389 0.600827 0.887604 0.181774
C9    C     C_3   0.593835 0.636591 0.067238 0.584065
C10   C     C_3   0.515605 0.505621 0.122312 -0.170344
C11   C     C_3   0.509898 0.498405 0.877517 -0.157951
C12   C     C_3   0.593768 0.621230 0.922370 -0.457767
C13   C     C_R   0.063744 0.372056 0.500921 -0.156654
C14   C     C_R   0.064000 0.627879 0.499367 -0.121971
H7    H     H_    0.111723 0.272064 0.501340 0.155365
H8    H     H_    0.112178 0.727862 0.498518 0.154501
C15   C     C_R   0.935993 0.372084 0.501429 -0.156840
C16   C     C_R   0.936252 0.627908 0.499886 -0.102360
H9    H     H_    0.887811 0.272101 0.502190 0.156818
H10   H     H_    0.888264 0.727898 0.499338 0.160407
C17   C     C_R   0.871780 0.500012 0.500918 -0.012948
C18   C     C_R   0.128222 0.499948 0.499988 -0.023637
C19   C     C_R   0.417961 0.075348 0.428752 -0.006920
C20   C     C_R   0.417824 0.926400 0.428914 0.067016
H11   H     H_    0.352465 0.132282 0.371461 0.129008
H12   H     H_    0.352291 0.870846 0.371683 0.152823
N1    N     N_R   0.500030 0.852070 0.500030 -0.169513
N2    N     N_R   0.500030 0.147930 0.500030 -0.178740
C21   C     C_R   0.582128 0.924648 0.571254 0.010723
C22   C     C_R   0.582245 0.073585 0.571056 -0.001397
H13   H     H_    0.647783 0.867726 0.628382 0.131602
H14   H     H_    0.648298 0.129137 0.627486 0.155972
C23   C     C_2   0.287370 0.602189 0.140125 0.453993
H15   H     H_    0.222465 0.555295 0.205367 0.053616
O9    O     O_2   0.286268 0.729518 0.125552 -0.486273
C24   C     C_2   0.698399 0.324693 0.131364 0.525192
H16   H     H_    0.700354 0.265762 0.218156 0.087052
O10   O     O_2   0.796468 0.360598 0.084829 -0.486852
C25   C     C_2   0.306614 0.639508 0.874176 0.503670
H17   H     H_    0.345451 0.744108 0.876856 0.150768
O11   O     O_2   0.206688 0.623176 0.823793 -0.541599
C26   C     C_2   0.682157 0.309756 0.864970 0.501428
H18   H     H_    0.743093 0.385444 0.820310 0.063757
O12   O     O_2   0.710863 0.185511 0.865005 -0.526085
N3    N     N_R   0.541563 0.775009 0.103564 0.150970
O13   O     O_R   0.480435 0.853559 0.025361 -0.370542
O14   O     O_R   0.584471 0.837215 0.201515 -0.297626
N4    N     N_R   0.723716 0.634621 0.110895 0.140740
O15   O     O_R   0.807116 0.704389 0.048418 -0.295850
O16   O     O_R   0.748417 0.605944 0.226466 -0.362232

loop_
_geom_bond_atom_site_label_1
_geom_bond_atom_site_label_2
_geom_bond_distance
_ccdc_geom_bond_type
C13   C18   1.400779 A    
O4    Cu2   1.975598 S    
C14   H8    1.083292 S    
C25   H17   1.079524 S    
C1    C18   1.448757 S    
Cu1   O5    1.963642 S    
C19   N2    1.366683 A    
C8    C11   1.572310 S    
Cu1   N1    2.008876 S    
C4    C11   1.487168 S    
C16   C17   1.400782 A    
C7    C11   1.565403 S    
C3    C17   1.448689 S    
N3    O13   1.301054 A    
Cu2   O8    1.980574 S    
C6    C8    1.565876 S    
N4    O15   1.302836 A    
C24   O10   1.221070 D    
C23   O9    1.218291 D    
C21   H13   1.081825 S    
O2    C1    1.289448 A    
C26   H18   1.084190 S    
Cu1   Cu2   2.673176 S    
C13   H7    1.083284 S    
C6    H2    1.115035 S    
C9    N3    1.489232 S    
C21   C22   1.415208 A    
C9    C12   1.571682 S    
C5    C7    1.558412 S    
N1    C21   1.366539 A    
Cu2   N2    2.008870 S    
C2    C10   1.491968 S    
N3    O14   1.302486 A    
O3    Cu1   1.980565 S    
O1    Cu1   1.963419 S    
O3    C2    1.285729 A    
C7    H3    1.116781 S    
O8    C4    1.288667 A    
C15   C17   1.400898 A    
Cu1   O7    1.975605 S    
C16   H10   1.083299 S    
C25   O11   1.221213 D    
C6    C10   1.590582 S    
O4    C2    1.295872 A    
C5    C23   1.524423 S    
O7    C4    1.289057 A    
C22   H14   1.080523 S    
C14   C16   1.382995 A    
C8    C26   1.518968 S    
C6    C24   1.526096 S    
C19   C20   1.415313 A    
C24   H16   1.085566 S    
C14   C18   1.400968 A    
Cu2   O6    1.963222 S    
C23   H15   1.086201 S    
C7    C25   1.517605 S    
C11   C12   1.559496 S    
C5    H1    1.115666 S    
O5    C3    1.290299 A    
C5    C10   1.580805 S    
N2    C22   1.366243 A    
C15   H9    1.083320 S    
C9    C10   1.612282 S    
H5    C12   1.106786 S    
C26   O12   1.221131 D    
O6    C3    1.289486 A    
C20   N1    1.366649 A    
O2    Cu2   1.963841 S    
C19   H11   1.081755 S    
H6    C12   1.109014 S    
C13   C15   1.383025 A    
C8    H4    1.116052 S    
C20   H12   1.081780 S    
O1    C1    1.288996 A    
C9    N4    1.482867 S    
N4    O16   1.301039 A    
