data_mof_unit_58425.cif
_audit_creation_date              2012-12-11T15:15:43-0500
_audit_creation_method            fapswitch 2.2
_symmetry_space_group_name_H-M    P1
_symmetry_Int_Tables_number       1
_space_group_crystal_system       triclinic
_cell_length_a                    20.634484
_cell_length_b                    22.780629
_cell_length_c                    6.939359
_cell_angle_alpha                 90.003264
_cell_angle_beta                  86.894153
_cell_angle_gamma                 89.999173
_cell_volume                      3257.16902019

loop_
_atom_site_label
_atom_site_type_symbol
_atom_type_description
_atom_site_fract_x
_atom_site_fract_y
_atom_site_fract_z
_atom_type_partial_charge
O1    O     O_R   0.387100 0.552640 0.378490 -0.547290
O2    O     O_R   0.612900 0.052640 0.621510 -0.547297
O3    O     O_R   0.249610 0.559600 0.072250 -0.509202
O4    O     O_R   0.750390 0.059600 0.927750 -0.509192
O5    O     O_R   0.249120 0.447360 0.902040 -0.539252
O6    O     O_R   0.750880 0.947360 0.097960 -0.539251
C1    C     C_R   0.226540 0.572923 0.244287 0.811803
C2    C     C_R   0.773459 0.072924 0.755718 0.811828
O7    O     O_R   0.386610 0.559560 0.048860 -0.546285
O8    O     O_R   0.613390 0.059560 0.951140 -0.546282
O9    O     O_R   0.387100 0.447320 0.878470 -0.545668
O10   O     O_R   0.612900 0.947320 0.121530 -0.545659
C3    C     C_R   0.407880 0.574722 0.214204 0.679737
C4    C     C_R   0.592121 0.074724 0.785807 0.679743
O11   O     O_R   0.249120 0.552680 0.402050 -0.539579
O12   O     O_R   0.750880 0.052680 0.597950 -0.539587
O13   O     O_3   0.318110 0.463180 0.223790 -0.370218
O14   O     O_3   0.681890 0.963180 0.776210 -0.370218
V1    V     V_3+5 0.318110 0.506830 0.948930 1.526812
V2    V     V_3+5 0.681890 0.006830 0.051070 1.526817
O15   O     O_R   0.386610 0.440400 0.548840 -0.542240
O16   O     O_R   0.613390 0.940400 0.451160 -0.542231
C5    C     C_R   0.407975 0.425312 0.714039 0.678863
C6    C     C_R   0.592025 0.925313 0.285949 0.678828
O17   O     O_R   0.249610 0.440440 0.572240 -0.505932
O18   O     O_R   0.750390 0.940440 0.427760 -0.505940
C7    C     C_R   0.226342 0.427303 0.744215 0.793171
C8    C     C_R   0.773660 0.927305 0.255780 0.793137
V3    V     V_3+5 0.318110 0.493170 0.448930 1.532890
V4    V     V_3+5 0.681890 0.993170 0.551070 1.532863
O19   O     O_3   0.318110 0.536820 0.723940 -0.373804
O20   O     O_3   0.681890 0.036820 0.276060 -0.373806
C9    C     C_R   0.170578 0.386469 0.760581 -0.181429
C10   C     C_R   0.829427 0.886474 0.239403 -0.181422
C11   C     C_R   0.132072 0.376284 0.602064 0.620739
C12   C     C_R   0.867948 0.876311 0.397898 0.620749
C13   C     C_R   0.078952 0.338484 0.620143 -0.160755
C14   C     C_R   0.921069 0.838509 0.379817 -0.160739
C15   C     C_R   0.063484 0.309618 0.795307 -0.028254
C16   C     C_R   0.936522 0.809621 0.204674 -0.028249
C17   C     C_R   0.100756 0.320656 0.954333 -0.038763
C18   C     C_R   0.899238 0.820640 0.045664 -0.038787
C19   C     C_R   0.154005 0.358487 0.937046 -0.208257
C20   C     C_R   0.845988 0.858473 0.062954 -0.208278
C21   C     C_R   0.921187 0.161729 0.876035 -0.206308
C22   C     C_R   0.078792 0.661704 0.124007 -0.206310
C23   C     C_R   0.868317 0.123672 0.895299 0.649807
C24   C     C_R   0.131663 0.623645 0.104742 0.649801
C25   C     C_R   0.843638 0.143479 0.563693 -0.317781
C26   C     C_R   0.156368 0.643493 0.436306 -0.317788
C27   C     C_R   0.896475 0.181758 0.545107 0.735597
C28   C     C_R   0.103529 0.681772 0.454895 0.735569
C29   C     C_R   0.935227 0.191715 0.702061 -0.164750
C30   C     C_R   0.064765 0.691711 0.297958 -0.164718
C31   C     C_2   0.006838 0.269989 0.817756 0.474946
C32   C     C_2   0.993163 0.769984 0.182233 0.474948
C33   C     C_2   0.991970 0.231273 0.679511 0.554601
C34   C     C_2   0.008027 0.731277 0.320496 0.554583
C35   C     C_R   0.828742 0.114217 0.738877 -0.284952
C36   C     C_R   0.171252 0.614212 0.261139 -0.284934
C37   C     C_R   0.574703 0.359283 0.644689 -0.150323
C38   C     C_R   0.425254 0.859325 0.354484 -0.150295
C39   C     C_R   0.461279 0.381799 0.711397 -0.075427
C40   C     C_R   0.538722 0.881800 0.288523 -0.075389
C41   C     C_R   0.475100 0.093969 0.826805 -0.280343
C42   C     C_R   0.524918 0.593937 0.173750 -0.280383
C43   C     C_R   0.421031 0.130168 0.827583 -0.147169
C44   C     C_R   0.578991 0.630125 0.173200 -0.147130
C45   C     C_R   0.427229 0.190294 0.793480 0.618408
C46   C     C_R   0.572784 0.690263 0.207097 0.618420
C47   C     C_R   0.489503 0.216645 0.761681 -0.056070
C48   C     C_R   0.510502 0.716637 0.238445 -0.056089
C49   C     C_R   0.544922 0.178128 0.753381 -0.000633
C50   C     C_R   0.455073 0.678133 0.246473 -0.000632
C51   C     C_R   0.499310 0.278953 0.733071 0.095246
C52   C     C_R   0.500689 0.778954 0.266859 0.095243
C53   C     C_R   0.563199 0.299557 0.683443 0.126050
C54   C     C_R   0.436774 0.799585 0.315985 0.126045
C55   C     C_R   0.615703 0.260744 0.672892 -0.178673
C56   C     C_R   0.384258 0.760785 0.326274 -0.178654
C57   C     C_R   0.606983 0.201367 0.710007 -0.150372
C58   C     C_R   0.392993 0.701396 0.289377 -0.150320
C59   C     C_R   0.449092 0.322131 0.753129 -0.163044
C60   C     C_R   0.550928 0.822117 0.247065 -0.163046
C61   C     C_R   0.524095 0.399724 0.655328 -0.160165
C62   C     C_R   0.475872 0.899756 0.344069 -0.160210
C63   C     C_R   0.537119 0.116737 0.787328 -0.071554
C64   C     C_R   0.462884 0.616731 0.212749 -0.071524
F1    F     F_    0.144210 0.404138 0.430956 -0.683666
F2    F     F_    0.855824 0.904188 0.568983 -0.683621
F3    F     F_    0.909134 0.209770 0.374529 -0.590168
F4    F     F_    0.090880 0.709803 0.625455 -0.590138
H1    H     H_    0.534071 0.445366 0.621215 0.115752
H2    H     H_    0.465878 0.945412 0.377933 0.115751
H3    H     H_    0.664399 0.276598 0.636826 0.137283
H4    H     H_    0.335543 0.776660 0.361951 0.137280
H5    H     H_    0.623226 0.374775 0.604363 0.130218
H6    H     H_    0.376707 0.874839 0.394401 0.130226
H7    H     H_    0.400261 0.311761 0.802506 0.195378
H8    H     H_    0.599792 0.811725 0.198073 0.195374
H9    H     H_    0.468371 0.047434 0.853647 0.140952
H10   H     H_    0.531654 0.547392 0.147115 0.140933
F5    F     F_    0.370969 0.220272 0.782506 -0.701060
F6    F     F_    0.629041 0.720233 0.218277 -0.701067
H11   H     H_    0.373228 0.111124 0.852533 0.168508
H12   H     H_    0.626801 0.611064 0.148609 0.168508
H13   H     H_    0.649562 0.173498 0.701776 0.102012
H14   H     H_    0.350402 0.673540 0.297390 0.101953
F7    F     F_    0.857489 0.094807 0.065179 -0.657855
F8    F     F_    0.142479 0.594759 0.934888 -0.657851
H15   H     H_    0.814171 0.137010 0.440938 0.216070
H16   H     H_    0.185846 0.637039 0.559041 0.216003
F9    F     F_    0.029929 0.227103 0.513333 -0.649092
F10   F     F_    0.970069 0.727125 0.486678 -0.649092
H17   H     H_    0.089023 0.299505 0.091678 0.205079
H18   H     H_    0.910960 0.799471 0.908333 0.205084
H19   H     H_    0.952063 0.166614 0.996282 0.247164
H20   H     H_    0.047906 0.666573 0.003780 0.247084
H21   H     H_    0.182368 0.365611 0.061742 0.206073
H22   H     H_    0.817614 0.865581 0.938275 0.205985
F11   F     F_    0.969273 0.273684 0.984814 -0.638460
F12   F     F_    0.030726 0.773660 0.015169 -0.638407
H23   H     H_    0.049064 0.332979 0.497917 0.201712
H24   H     H_    0.950970 0.833021 0.502021 0.201701

loop_
_geom_bond_atom_site_label_1
_geom_bond_atom_site_label_2
_ccdc_geom_bond_type
C24   F8    S    
C57   H13   S    
O11   V3    S    
O6    C8    A    
O13   V3    S    
C42   H10   S    
C42   C44   A    
C41   H9    S    
O4    C2    A    
V1    O19   S    
C52   C60   A    
C31   F11   S    
C15   C17   A    
C7    C9    S    
C38   C62   A    
O9    V1    S    
C44   H12   S    
C38   H6    S    
C11   C13   A    
C52   C54   A    
C4    C63   S    
O3    C1    A    
C2    C35   S    
C42   C64   A    
C9    C11   A    
C46   F6    S    
C5    C39   S    
C41   C43   A    
C20   H22   S    
O12   V4    S    
C22   H20   S    
C49   C57   A    
C45   C47   A    
O7    C3    A    
C49   C63   A    
C62   H2    S    
C27   F3    S    
C13   H23   S    
C61   H1    S    
O7    V1    S    
C15   C31   S    
O8    V2    S    
C25   C27   A    
C26   C28   A    
O3    V1    S    
O14   V4    S    
C58   H14   S    
C56   H4    S    
C10   C12   A    
C48   C52   A    
C25   H15   S    
C53   C55   A    
C21   C29   A    
C2    O12   A    
O5    C7    A    
C39   C61   A    
C17   C19   A    
O10   V2    S    
C12   F2    S    
C18   C20   A    
C50   C58   A    
V2    O20   S    
C40   C62   A    
C28   C30   A    
C24   C36   A    
C21   C23   A    
O15   C5    A    
O17   V3    S    
C22   C24   A    
C47   C51   A    
C23   C35   A    
C17   H17   S    
C9    C19   A    
C10   C20   A    
C48   C50   A    
O8    C4    A    
C37   C53   A    
C47   C49   A    
C29   C33   S    
C43   H11   S    
C33   F9    S    
C1    O11   A    
C16   C32   S    
C23   F7    S    
O15   V3    S    
C39   C59   A    
C43   C45   A    
C32   F12   S    
C55   H3    S    
V4    O20   S    
C22   C30   A    
O1    V3    S    
C54   C56   A    
C41   C63   A    
C51   C53   A    
C37   C61   A    
C11   F1    S    
C18   H18   S    
O18   V4    S    
C31   C33   D    
O16   C6    A    
C28   F4    S    
O1    C3    A    
C1    C36   S    
C55   C57   A    
C30   C34   S    
C21   H19   S    
O16   V4    S    
C45   F5    S    
C38   C54   A    
C37   H5    S    
C16   C18   A    
C60   H8    S    
C46   C48   A    
O5    V1    S    
O17   C7    A    
O6    V2    S    
O10   C6    A    
O18   C8    A    
C25   C35   A    
C40   C60   A    
O2    V4    S    
C26   C36   A    
C12   C14   A    
C26   H16   S    
V3    O19   S    
C14   C16   A    
C51   C59   A    
C3    C64   S    
O9    C5    A    
O13   V1    S    
C56   C58   A    
C32   C34   D    
C6    C40   S    
O14   V2    S    
O2    C4    A    
C27   C29   A    
C8    C10   S    
O4    V2    S    
C13   C15   A    
C34   F10   S    
C44   C46   A    
C59   H7    S    
C50   C64   A    
C14   H24   S    
C19   H21   S    
