data_mof_unit_46723.cif
_audit_creation_date              2012-12-11T19:49:42-0500
_audit_creation_method            fapswitch 2.2
_symmetry_space_group_name_H-M    P1
_symmetry_Int_Tables_number       1
_space_group_crystal_system       triclinic
_cell_length_a                    8.21093
_cell_length_b                    15.168621
_cell_length_c                    18.748308
_cell_angle_alpha                 102.03813
_cell_angle_beta                  91.958926
_cell_angle_gamma                 98.542813
_cell_volume                      2253.25316978

loop_
_atom_site_label
_atom_site_type_symbol
_atom_type_description
_atom_site_fract_x
_atom_site_fract_y
_atom_site_fract_z
_atom_type_partial_charge
Ba1   Ba    Ba6+2 0.853520 0.540910 0.466490 1.661556
Ba2   Ba    Ba6+2 0.336320 0.459170 0.533520 1.655923
C1    C     C_3   0.682998 0.872043 0.319603 -0.387441
C2    C     C_R   0.913245 0.387341 0.084029 0.041362
C3    C     C_R   0.767589 0.330150 0.051961 -0.076713
C4    C     C_3   0.113800 0.744838 0.262003 0.800741
C5    C     C_R   0.703376 0.334804 0.982984 -0.088484
C6    C     C_R   0.790585 0.391527 0.942090 0.029022
C7    C     C_R   0.946350 0.440912 0.969787 0.015935
C8    C     C_R   0.726600 0.397097 0.873189 -0.118678
C9    C     C_R   0.820691 0.446277 0.828188 -0.046131
C10   C     C_R   0.981854 0.491828 0.853939 0.001362
C11   C     C_R   0.042476 0.490211 0.925649 -0.006838
C12   C     C_3   0.662670 0.774225 0.332526 0.340646
C13   C     C_R   0.760602 0.448558 0.757230 -0.012287
C14   C     C_R   0.864060 0.490490 0.711365 -0.280560
C15   C     C_R   0.024721 0.535479 0.734801 0.031357
C16   C     C_3   0.018836 0.763251 0.194147 -0.305646
C17   C     C_R   0.083207 0.538081 0.808287 -0.062761
C18   C     C_R   0.161559 0.489545 0.069747 0.004566
C19   C     C_R   0.217282 0.493811 0.143142 0.036266
C20   C     C_R   0.114590 0.449243 0.189297 -0.013812
C21   C     C_R   0.966435 0.392710 0.157440 -0.013783
C22   C     C_R   0.241105 0.583416 0.837340 -0.032806
C23   C     C_3   0.470946 0.288627 0.304474 0.281766
C24   C     C_R   0.301867 0.580630 0.907745 0.043379
C25   C     C_R   0.201717 0.535030 0.952459 -0.001638
C26   C     C_R   0.261845 0.534002 0.024075 0.017403
C27   C     C_R   0.463307 0.621618 0.933806 -0.058572
C28   C     C_3   0.250376 0.740627 0.626336 0.320290
C29   C     C_R   0.524095 0.619143 0.003666 -0.103609
C30   C     C_R   0.423457 0.576600 0.049536 0.034629
C31   C     C_R   0.377242 0.541136 0.169425 -0.046137
C32   C     C_R   0.481631 0.577632 0.120796 -0.151343
C33   C     C_R   0.430633 0.547994 0.242847 0.047153
C34   C     C_3   0.473620 0.243905 0.223556 -0.199459
C35   C     C_R   0.323256 0.510996 0.289811 -0.269699
C36   C     C_R   0.166328 0.461195 0.264857 0.022839
C37   C     C_R   0.858005 0.173015 0.554331 -0.013510
C38   C     C_R   0.790013 0.079188 0.546726 -0.012264
C39   C     C_R   0.649311 0.890672 0.528011 -0.026525
C40   C     C_3   0.243256 0.842576 0.638825 -0.354380
C41   C     C_R   0.799352 0.928058 0.569818 0.002116
C42   C     C_R   0.870060 0.019542 0.577623 -0.051336
C43   C     C_R   0.582105 0.796202 0.517015 0.026868
C44   C     C_R   0.430559 0.764439 0.476181 -0.304333
C45   C     C_3   0.065493 0.277310 0.730059 0.366338
C46   C     C_R   0.616537 0.196829 0.487135 0.016838
C47   C     C_R   0.551178 0.103840 0.476736 -0.057012
C48   C     C_R   0.634565 0.044457 0.507397 0.014698
C49   C     C_R   0.402787 0.069682 0.435999 -0.066042
C50   C     C_R   0.327279 0.980688 0.428092 -0.054240
C51   C     C_R   0.406823 0.916980 0.456872 -0.086422
C52   C     C_3   0.960385 0.257293 0.373107 0.332147
C53   C     C_R   0.563814 0.950220 0.496973 0.005133
C54   C     C_R   0.340255 0.822638 0.447102 0.007075
C55   C     C_R   0.766274 0.230682 0.527025 -0.312118
C56   C     C_3   0.100334 0.259950 0.806234 -0.329935
C57   C     C_3   0.937152 0.152554 0.351258 0.258896
C58   C     C_3   0.706180 0.698065 0.700824 0.273781
C59   C     C_3   0.699337 0.748325 0.781657 0.367789
C60   C     C_3   0.038826 0.112874 0.234403 0.247646
C61   C     C_3   0.984191 0.782739 0.816342 0.211135
C62   C     C_2   0.550625 0.796409 0.790964 0.899217
C63   C     C_2   0.454762 0.309309 0.175693 0.739889
C64   C     C_3   0.355666 0.764086 0.197328 0.047778
C65   C     C_2   0.163746 0.964481 0.389524 0.942370
C66   C     C_3   0.533265 0.224173 0.682096 0.370971
C67   C     C_3   0.486286 0.129559 0.698177 -0.328239
C68   C     C_R   0.006485 0.440000 0.041482 0.009916
H1    H     H_    0.746213 0.773133 0.380288 0.116614
H2    H     H_    0.597365 0.643870 0.685435 -0.015713
H3    H     H_    0.752596 0.920968 0.367148 0.139910
H4    H     H_    0.690921 0.697106 0.816257 -0.145146
H5    H     H_    0.532432 0.754166 0.344423 0.000162
H6    H     H_    0.560585 0.893183 0.312701 0.137465
H7    H     H_    0.344516 0.303681 0.316161 -0.003217
H8    H     H_    0.562652 0.352709 0.317855 0.064823
H9    H     H_    0.374504 0.183229 0.208836 0.077760
H10   H     H_    0.594245 0.219738 0.213629 0.065894
H11   H     H_    0.749039 0.878393 0.269829 0.115887
H12   H     H_    0.279899 0.877114 0.696474 0.164636
H13   H     H_    0.079566 0.826726 0.178452 0.098727
H14   H     H_    0.123879 0.348672 0.728631 0.074793
H15   H     H_    0.928708 0.270376 0.719820 -0.074633
H16   H     H_    0.231860 0.290721 0.827773 0.136961
H17   H     H_    0.012546 0.291885 0.845437 0.071438
H18   H     H_    0.080569 0.184357 0.803241 0.133083
H19   H     H_    0.669243 0.239873 0.683481 -0.082038
H20   H     H_    0.481002 0.222641 0.626366 0.078932
H21   H     H_    0.578604 0.085473 0.676065 0.074903
H22   H     H_    0.361583 0.097051 0.671461 0.129335
H23   H     H_    0.326512 0.875013 0.603060 0.066395
H24   H     H_    0.097945 0.669554 0.258787 -0.036329
H25   H     H_    0.484603 0.134138 0.758467 0.136696
H26   H     H_    0.701210 0.282874 0.080786 0.096373
H27   H     H_    0.586497 0.292976 0.961187 0.089626
H28   H     H_    0.817414 0.489691 0.656528 0.076350
H29   H     H_    0.604235 0.360876 0.854934 0.106776
H30   H     H_    0.890901 0.352909 0.189259 0.110826
H31   H     H_    0.320929 0.618715 0.804655 0.133168
H32   H     H_    0.543357 0.655652 0.900400 0.113511
H33   H     H_    0.649345 0.651715 0.022127 0.072084
H34   H     H_    0.115890 0.852929 0.626389 0.111491
H35   H     H_    0.607113 0.610296 0.138340 0.097825
H36   H     H_    0.365101 0.518112 0.346375 0.068184
H37   H     H_    0.865228 0.887406 0.597342 0.112590
H38   H     H_    0.986844 0.043313 0.609241 0.087837
H39   H     H_    0.337740 0.112913 0.410539 0.148199
H40   H     H_    0.378376 0.693171 0.469598 0.063554
H41   H     H_    0.816582 0.302030 0.532502 0.071650
H42   H     H_    0.011897 0.704429 0.146919 0.031168
H43   H     H_    0.891645 0.774697 0.203403 0.140335
H44   H     H_    0.379625 0.729831 0.622144 0.004023
H45   H     H_    0.846975 0.279174 0.396471 -0.080988
H46   H     H_    0.177111 0.706680 0.574286 0.065276
H47   H     H_    0.089687 0.176590 0.217102 0.075406
H48   H     H_    0.906870 0.093136 0.215590 -0.006838
H49   H     H_    0.104166 0.058759 0.205251 0.061438
H50   H     H_    0.969006 0.707334 0.809343 -0.023970
H51   H     H_    0.041541 0.813934 0.872338 0.051351
H52   H     H_    0.070907 0.806051 0.777455 0.105318
H53   H     H_    0.343118 0.815943 0.843194 0.294293
H54   H     H_    0.565599 0.416875 0.139068 0.310759
H55   H     H_    0.368340 0.827245 0.174401 0.089840
H56   H     H_    0.064313 0.281259 0.414974 0.068696
H57   H     H_    0.285691 0.705056 0.156968 0.018535
H58   H     H_    0.481100 0.747553 0.203822 0.108690
H59   H     H_    0.033591 0.947478 0.293197 0.311543
H60   H     H_    0.813098 0.124253 0.322749 0.005213
H61   H     H_    0.937142 0.125973 0.402147 0.036170
H62   H     H_    0.819376 0.666371 0.693759 -0.043741
O1    O     O_2   0.871960 0.437280 0.322960 -0.442509
O2    O     O_2   0.196547 0.180948 0.541230 -0.481919
O3    O     O_3   0.130645 0.212864 0.678168 -0.589896
O4    O     O_3   0.121410 0.444460 0.412450 -0.497318
O5    O     O_3   0.580430 0.613240 0.540320 -0.495710
O6    O     O_2   0.337390 0.273050 0.457610 -0.464702
O7    O     O_3   0.513609 0.225733 0.344086 -0.643738
O8    O     O_2   0.421934 0.458531 0.754454 -0.496707
O9    O     O_3   0.470888 0.289237 0.734315 -0.594529
O10   O     O_3   0.661450 0.607570 0.372550 -0.489120
O11   O     O_2   0.778734 0.548474 0.246161 -0.451493
O12   O     O_3   0.707842 0.762362 0.657557 -0.615613
O13   O     O_3   0.991511 0.292239 0.310695 -0.655099
O14   O     O_3   0.701482 0.713357 0.270181 -0.632443
O15   O     O_2   0.852310 0.726980 0.542430 -0.461877
O16   O     O_3   0.084010 0.657370 0.410280 -0.485398
O17   O     O_2   0.011774 0.814116 0.463812 -0.468407
O18   O     O_3   0.070256 0.123140 0.310814 -0.625463
O19   O     O_3   0.836843 0.817803 0.806101 -0.632782
O20   O     O_2   0.539617 0.858319 0.759193 -0.599058
O21   O     O_R   0.434284 0.777180 0.840884 -0.814551
O22   O     O_2   0.337564 0.294505 0.130376 -0.622701
O23   O     O_3   0.039793 0.786564 0.324703 -0.590440
O24   O     O_R   0.577433 0.384907 0.180884 -0.768255
O25   O     O_3   0.285673 0.781333 0.266201 -0.685149
O26   O     O_2   0.041927 0.972921 0.424541 -0.624980
O27   O     O_R   0.152176 0.954181 0.313560 -0.718791
O28   O     O_2   0.317750 0.562750 0.677090 -0.481469
O29   O     O_3   0.068300 0.555620 0.587560 -0.487131
O30   O     O_3   0.528270 0.392500 0.627460 -0.474051
O31   O     O_3   0.190125 0.708378 0.686730 -0.654615
O32   O     O_3   0.609290 0.386840 0.459690 -0.478371
O33   O     O_3   0.105700 0.342700 0.589730 -0.486636
P1    P     P_3+3 0.039430 0.410940 0.333230 0.983444
P2    P     P_3+3 0.676770 0.715000 0.563590 0.984216
P3    P     P_3+3 0.126637 0.771138 0.407949 0.987796
P4    P     P_3+3 0.150290 0.589140 0.666780 0.968001
P5    P     P_3+3 0.071457 0.225835 0.590747 0.952496
P6    P     P_3+3 0.642511 0.601467 0.280184 0.969395
P7    P     P_3+3 0.522054 0.271707 0.437851 0.957306
P8    P     P_3+3 0.546891 0.398199 0.720461 0.944318

loop_
_geom_bond_atom_site_label_1
_geom_bond_atom_site_label_2
_ccdc_geom_bond_type
C57   H60   S    
C61   H50   S    
C4    O25   S    
Ba2   P4    S    
C40   H23   S    
C33   P6    S    
C12   H1    S    
C40   H12   S    
H59   O27   S    
C56   H17   S    
C58   H62   S    
C2    C68   A    
C5    C6    A    
O30   P8    S    
C28   H46   S    
C43   C44   A    
C52   H56   S    
C57   H61   S    
C24   C25   A    
C35   C36   A    
C62   O20   D    
C23   H7    S    
C45   H15   S    
C23   O7    S    
C16   H42   S    
C22   H31   S    
C63   O24   S    
C37   P5    S    
H53   O21   S    
C15   P4    S    
C57   O18   S    
C19   C31   A    
Ba1   P2    S    
C13   C14   A    
C20   C36   A    
C64   H57   S    
Ba2   O29   S    
Ba1   Ba2   S    
O3    P5    S    
C7    C11   A    
C39   C53   A    
C60   H47   S    
Ba1   O10   S    
C31   C33   A    
C46   P7    S    
C1    H3    S    
C9    C13   A    
Ba1   O32   S    
C14   C15   A    
C4    H24   S    
C1    H11   S    
C66   H20   S    
O28   P4    D    
Ba1   O4    S    
C60   O18   S    
C4    O23   S    
C52   C57   S    
O29   P4    S    
C51   C53   A    
C21   H30   S    
Ba1   O29   S    
C49   H39   S    
C19   C20   A    
O9    P8    S    
C39   C41   A    
C18   C68   A    
O10   P6    S    
O17   P3    D    
C28   O31   S    
Ba1   O1    S    
C56   H16   S    
C16   H43   S    
C61   H51   S    
C16   H13   S    
O13   P1    S    
C42   H38   S    
C4    C16   S    
C13   P8    S    
O12   P2    S    
O6    P7    D    
C23   H8    S    
Ba2   O6    S    
C46   C55   A    
C7    C68   A    
C34   H10   S    
Ba2   O32   S    
C37   C38   A    
C3    C5    A    
C2    C21   A    
C34   C63   S    
C6    C7    A    
C18   C26   A    
C47   C49   A    
C62   O21   S    
Ba2   O4    S    
C49   C50   A    
C40   H34   S    
C58   C59   S    
C29   H33   S    
C59   C62   S    
C41   C42   A    
C63   O22   D    
C43   P2    S    
C29   C30   A    
C26   C30   A    
O23   P3    S    
C52   H45   S    
C54   P3    S    
C31   C32   A    
C45   O3    S    
O7    P7    S    
C41   H37   S    
C45   H14   S    
C10   C11   A    
C1    H6    S    
C59   O19   S    
Ba2   O33   S    
C61   O19   S    
C60   H49   S    
C50   C65   S    
O15   P2    D    
C52   O13   S    
Ba2   O28   S    
C46   C47   A    
C44   H40   S    
O16   P3    S    
O32   P7    S    
C67   H22   S    
O5    P2    S    
C3    H26   S    
Ba1   O5    S    
C50   C51   A    
C28   H44   S    
C51   C54   A    
O33   P5    S    
C36   P1    S    
C39   C43   A    
C5    H27   S    
C33   C35   A    
O8    P8    D    
C32   H35   S    
C66   C67   S    
C28   C40   S    
C22   C24   A    
C2    C3    A    
C67   H25   S    
C34   H9    S    
C56   H18   S    
C9    C10   A    
C1    C12   S    
C59   H4    S    
Ba2   O5    S    
C12   O14   S    
C48   C53   A    
C64   H55   S    
C12   H5    S    
H54   O24   S    
C17   C22   A    
O11   P6    D    
C35   H36   S    
C27   C29   A    
C67   H21   S    
O1    P1    D    
C58   O12   S    
C45   C56   S    
C61   H52   S    
C14   H28   S    
C55   H41   S    
O4    P1    S    
Ba1   P1    S    
C38   C48   A    
C10   C17   A    
C15   C17   A    
C64   H58   S    
C27   H32   S    
C65   O26   D    
C8    H29   S    
O31   P4    S    
C60   H48   S    
Ba1   O15   S    
C8    C9    A    
C23   C34   S    
C38   C42   A    
C18   C19   A    
C24   C27   A    
C6    C8    A    
C47   C48   A    
O2    P5    D    
C44   C54   A    
C25   C26   A    
C58   H2    S    
C20   C21   A    
C11   C25   A    
Ba1   O16   S    
C65   O27   S    
C66   H19   S    
O14   P6    S    
C64   O25   S    
C66   O9    S    
C30   C32   A    
Ba2   O30   S    
C37   C55   A    
