data_mof_unit_63929.cif
_audit_creation_date              2013-03-05T16:01:33-0500
_audit_creation_method            fapswitch 2.2
_symmetry_space_group_name_H-M    P1
_symmetry_Int_Tables_number       1
_space_group_crystal_system       triclinic
_cell_length_a                    21.415119
_cell_length_b                    29.181731
_cell_length_c                    29.187503
_cell_angle_alpha                 89.95497
_cell_angle_beta                  90.27829
_cell_angle_gamma                 89.893292
_cell_volume                      18239.900763

loop_
_atom_site_label
_atom_site_type_symbol
_atom_site_description
_atom_site_fract_x
_atom_site_fract_y
_atom_site_fract_z
_atom_type_partial_charge
O1    O     O_R   1.000000 0.964340 0.063140 -0.609253
O2    O     O_R   0.000000 0.964340 0.936860 -0.598404
O3    O     O_R   0.500000 0.464340 0.563140 -0.609103
O4    O     O_R   0.500000 0.464340 0.436860 -0.598752
O5    O     O_R   0.000000 0.035640 0.063120 -0.599434
O6    O     O_R   1.000000 0.035640 0.936880 -0.599087
O7    O     O_R   0.500000 0.535640 0.563120 -0.599452
O8    O     O_R   0.500000 0.535640 0.436880 -0.598850
C1    C     C_R   0.999396 0.999989 0.086736 0.888122
C2    C     C_R   0.999824 0.000013 0.913260 0.902171
C3    C     C_R   0.499395 0.499989 0.586736 0.888329
C4    C     C_R   0.499826 0.500012 0.413260 0.902069
O9    O     O_R   0.093030 0.964340 0.000000 -0.633329
O10   O     O_R   0.906970 0.964340 0.000000 -0.621234
O11   O     O_R   0.593030 0.464340 0.500000 -0.633308
O12   O     O_R   0.406970 0.464340 0.500000 -0.620927
O13   O     O_R   0.093040 0.035640 0.000000 -0.620501
O14   O     O_R   0.906960 0.035640 0.000000 -0.622037
O15   O     O_R   0.593040 0.535640 0.500000 -0.620528
O16   O     O_R   0.406960 0.535640 0.500000 -0.622552
C5    C     C_R   0.122697 0.999909 0.999424 0.924263
C6    C     C_R   0.877588 0.000023 0.003824 0.916728
C7    C     C_R   0.622697 0.499909 0.499424 0.924263
C8    C     C_R   0.377576 0.500037 0.503728 0.917064
Zn1   Zn    Zn3+2 0.000000 0.952380 0.000000 0.946564
Zn2   Zn    Zn3+2 0.500000 0.452380 0.500000 0.946890
Zn3   Zn    Zn3+2 0.000000 0.047600 0.000000 0.956105
Zn4   Zn    Zn3+2 0.500000 0.547600 0.500000 0.955724
C9    C     C_3   0.229801 0.035671 0.975556 0.054199
C10   C     C_3   0.769463 0.037680 0.023585 0.055588
C11   C     C_3   0.769708 0.962673 0.024049 0.055811
C12   C     C_3   0.230344 0.960820 0.980383 0.050584
C13   C     C_3   0.729801 0.535673 0.475559 0.054200
C14   C     C_3   0.269466 0.538620 0.521934 0.055379
C15   C     C_3   0.269713 0.463692 0.525577 0.056330
C16   C     C_3   0.730344 0.460821 0.480379 0.050579
C17   C     C_3   0.270753 0.996923 0.955707 -0.301212
C18   C     C_3   0.728102 0.000274 0.045234 -0.300121
C19   C     C_3   0.770753 0.496927 0.455706 -0.301218
C20   C     C_3   0.228117 0.502166 0.545162 -0.300118
H1    H     H_    0.288913 0.994700 0.920218 0.167092
H2    H     H_    0.708762 0.000456 0.080453 0.167765
H3    H     H_    0.788914 0.494707 0.420218 0.167087
H4    H     H_    0.208792 0.503850 0.580346 0.167713
C21   C     C_3   0.311054 0.999803 0.999459 -0.196127
C22   C     C_3   0.689336 0.000011 0.000592 -0.204922
C23   C     C_3   0.811054 0.499803 0.499459 -0.196129
C24   C     C_3   0.189330 0.500026 0.500585 -0.204949
C25   C     C_3   0.270891 0.038485 0.018808 0.337561
C26   C     C_3   0.730044 0.037601 0.979386 0.350142
C27   C     C_3   0.730300 0.962236 0.979852 0.350148
C28   C     C_3   0.271609 0.963586 0.023658 0.348303
C29   C     C_3   0.770891 0.538484 0.518811 0.337600
C30   C     C_3   0.230034 0.536673 0.477795 0.350124
C31   C     C_3   0.230272 0.461391 0.481449 0.350231
C32   C     C_3   0.771608 0.463584 0.523655 0.348267
C33   C     C_3   0.230462 0.002300 0.043036 -0.020870
C34   C     C_3   0.771604 0.999821 0.958602 -0.007195
C35   C     C_3   0.730461 0.502296 0.543037 -0.020876
C36   C     C_3   0.271569 0.498026 0.458611 -0.007532
C37   C     C_3   0.189497 0.999636 0.999771 -0.189332
C38   C     C_3   0.810739 0.000081 0.002864 -0.204017
C39   C     C_3   0.689497 0.499636 0.499771 -0.189329
C40   C     C_3   0.310730 0.500155 0.502808 -0.204216
C41   C     C_1   0.998848 0.999987 0.137391 -0.217880
C42   C     C_1   0.999730 0.000053 0.862598 -0.229408
C43   C     C_1   0.498847 0.499984 0.637391 -0.217921
C44   C     C_1   0.499733 0.500049 0.362598 -0.229364
C45   C     C_1   0.998582 0.999982 0.179587 -0.008463
C46   C     C_1   0.999716 0.000063 0.820401 0.002705
C47   C     C_1   0.498581 0.499978 0.679587 -0.008444
C48   C     C_1   0.499720 0.500054 0.320401 0.002715
C49   C     C_1   0.998708 0.999964 0.229407 0.005568
C50   C     C_1   0.999827 0.000057 0.770580 0.007319
C51   C     C_1   0.498707 0.499959 0.729407 0.005578
C52   C     C_1   0.499832 0.500046 0.270580 0.007310
C53   C     C_1   0.998935 0.999958 0.271608 0.010262
C54   C     C_1   0.999998 0.000044 0.728380 0.008596
C55   C     C_1   0.498935 0.499954 0.771608 0.010269
C56   C     C_1   0.500002 0.500034 0.228380 0.008591
C57   C     C_1   0.999247 0.999964 0.321439 0.006843
C58   C     C_1   0.000213 0.000024 0.678552 0.007004
C59   C     C_1   0.499246 0.499961 0.821439 0.006855
C60   C     C_1   0.500215 0.500017 0.178552 0.007005
C61   C     C_1   0.999521 0.999975 0.363646 -0.196944
C62   C     C_1   0.000299 0.000008 0.636349 -0.197130
C63   C     C_1   0.499521 0.499973 0.863646 -0.196932
C64   C     C_1   0.500300 0.500003 0.136349 -0.197130
O17   O     O_R   0.500000 0.063090 0.964350 -0.600217
O18   O     O_R   0.500000 0.063090 0.035650 -0.599645
O19   O     O_R   1.000000 0.563090 0.464350 -0.599517
O20   O     O_R   0.000000 0.563090 0.535650 -0.599913
C65   C     C_R   0.500003 0.086701 0.999984 0.936967
C66   C     C_R   0.000004 0.586701 0.499984 0.935643
O21   O     O_R   0.406990 0.999940 0.964350 -0.648029
O22   O     O_R   0.593010 0.999940 0.035650 -0.645407
O23   O     O_R   0.593010 0.999940 0.964350 -0.579676
O24   O     O_R   0.406990 0.999940 0.035650 -0.569121
O25   O     O_R   0.906990 0.499940 0.464350 -0.648023
O26   O     O_R   0.093010 0.499940 0.535650 -0.645318
O27   O     O_R   0.093010 0.499940 0.464350 -0.579676
O28   O     O_R   0.906990 0.499940 0.535650 -0.569126
C67   C     C_R   0.377476 0.000063 0.999841 1.012962
C68   C     C_R   0.622660 0.999955 0.000121 1.007551
C69   C     C_R   0.877476 0.500062 0.499841 1.012958
C70   C     C_R   0.122658 0.499957 0.500120 1.007497
Zn5   Zn    Zn3+2 0.500000 0.999950 0.952390 1.006897
Zn6   Zn    Zn3+2 0.500000 0.999950 0.047610 1.019114
Zn7   Zn    Zn3+2 1.000000 0.499950 0.452390 1.006895
Zn8   Zn    Zn3+2 1.000000 0.499950 0.547610 1.019200
O29   O     O_R   0.500000 0.936790 0.964340 -0.601349
O30   O     O_R   0.500000 0.936790 0.035660 -0.596446
O31   O     O_R   0.000000 0.436790 0.464340 -0.602151
O32   O     O_R   0.000000 0.436790 0.535660 -0.596088
C71   C     C_R   0.499996 0.913191 0.000017 0.936009
C72   C     C_R   0.999996 0.413191 0.500016 0.937277
O33   O     O_R   0.052540 0.063140 0.500000 -0.590688
O34   O     O_R   0.947460 0.063140 0.500000 -0.591365
O35   O     O_R   0.552540 0.563140 0.000000 -0.590780
O36   O     O_R   0.447460 0.563140 0.000000 -0.591309
C73   C     C_R   0.999948 0.085641 0.500000 0.877147
C74   C     C_R   0.499949 0.585641 1.000000 0.877152
O37   O     O_R   0.052540 0.999990 0.436840 -0.590012
O38   O     O_R   0.947460 0.999990 0.563160 -0.590332
O39   O     O_R   0.947460 0.999990 0.436840 -0.592346
O40   O     O_R   0.052540 0.999990 0.563160 -0.592259
O41   O     O_R   0.552540 0.499990 0.936840 -0.590007
O42   O     O_R   0.447460 0.499990 0.063160 -0.590329
O43   O     O_R   0.447460 0.499990 0.936840 -0.592346
O44   O     O_R   0.552540 0.499990 0.063160 -0.592262
C75   C     C_R   0.999855 0.999988 0.414330 0.877016
C76   C     C_R   0.000123 0.999991 0.585668 0.877012
C77   C     C_R   0.499855 0.499988 0.914330 0.877018
C78   C     C_R   0.500123 0.499990 0.085668 0.877007
Zn9   Zn    Zn3+2 0.070140 0.999990 0.500000 0.978684
Zn10  Zn    Zn3+2 0.929860 0.999990 0.500000 0.978027
Zn11  Zn    Zn3+2 0.570140 0.499990 0.000000 0.978698
Zn12  Zn    Zn3+2 0.429860 0.499990 0.000000 0.978037
O45   O     O_R   0.052520 0.936840 0.500000 -0.591121
O46   O     O_R   0.947480 0.936840 0.500000 -0.590796
O47   O     O_R   0.552520 0.436840 0.000000 -0.591023
O48   O     O_R   0.447480 0.436840 0.000000 -0.590853
C79   C     C_R   0.000051 0.914327 0.500000 0.877153
C80   C     C_R   0.500051 0.414327 0.000000 0.877144
C81   C     C_1   0.500049 0.137370 0.999956 -0.166728
C82   C     C_1   0.000052 0.637370 0.499957 -0.168235
C83   C     C_1   0.500090 0.179572 0.999951 0.028368
C84   C     C_1   0.000095 0.679572 0.499952 0.027495
C85   C     C_1   0.500134 0.229400 0.999957 0.022368
C86   C     C_1   0.000139 0.729399 0.499958 0.021949
C87   C     C_1   0.000165 0.771605 0.499968 0.016222
C88   C     C_1   0.500160 0.271605 0.999966 0.016472
C89   C     C_1   0.000172 0.821436 0.499980 0.010215
C90   C     C_1   0.500170 0.321436 0.999979 0.010339
C91   C     C_1   0.000147 0.863644 0.499990 -0.195747
C92   C     C_1   0.500146 0.363644 0.999990 -0.195683
C93   C     C_1   0.499947 0.862535 0.000045 -0.170063
C94   C     C_1   0.999945 0.362535 0.500044 -0.168587
C95   C     C_1   0.499904 0.820341 0.000050 0.025997
C96   C     C_1   0.999901 0.320341 0.500049 0.026845
C97   C     C_1   0.499860 0.770526 0.000044 0.021142
C98   C     C_1   0.999856 0.270526 0.500043 0.021532
C99   C     C_1   0.999832 0.228329 0.500034 0.015936
C100  C     C_1   0.499835 0.728329 0.000035 0.015709
C101  C     C_1   0.999826 0.178510 0.500021 0.009936
C102  C     C_1   0.499828 0.678510 0.000022 0.009825
C103  C     C_1   0.999852 0.136310 0.500010 -0.195720
C104  C     C_1   0.499853 0.636310 0.000011 -0.195773
C105  C     C_3   0.204511 0.076425 0.948140 -0.350923
C106  C     C_3   0.256855 0.101825 0.923135 -0.330776
C107  C     C_3   0.231310 0.143118 0.896968 -0.857026
H5    H     H_    0.196339 0.131968 0.871064 0.260082
H6    H     H_    0.209134 0.167711 0.920969 0.269969
H7    H     H_    0.270095 0.160755 0.879073 0.254998
H8    H     H_    0.292507 0.113835 0.948116 0.265641
H9    H     H_    0.279924 0.078341 0.898468 0.216843
H10   H     H_    0.169954 0.063596 0.922698 0.190453
H11   H     H_    0.180394 0.100180 0.971991 0.230359
C108  C     C_3   0.793949 0.080029 0.048698 -0.351435
C109  C     C_3   0.740911 0.106958 0.071334 -0.329488
C110  C     C_3   0.765664 0.149826 0.095084 -0.857128
H12   H     H_    0.800074 0.140343 0.122090 0.259884
H13   H     H_    0.788294 0.172853 0.069819 0.270056
H14   H     H_    0.726385 0.168552 0.111307 0.255023
H15   H     H_    0.705789 0.117363 0.045194 0.266087
H16   H     H_    0.717362 0.085083 0.097179 0.216336
H17   H     H_    0.827892 0.068776 0.075368 0.188569
H18   H     H_    0.818627 0.102232 0.023722 0.231046
C111  C     C_3   0.794474 0.920620 0.049693 -0.351894
C112  C     C_3   0.741621 0.893908 0.072684 -0.328830
C113  C     C_3   0.766662 0.851325 0.096970 -0.857537
H19   H     H_    0.789429 0.828035 0.071994 0.269914
H20   H     H_    0.801022 0.861132 0.123844 0.259708
H21   H     H_    0.727512 0.832753 0.113441 0.255260
H22   H     H_    0.717942 0.916053 0.098256 0.216414
H23   H     H_    0.706555 0.883190 0.046686 0.266251
H24   H     H_    0.819280 0.898155 0.024995 0.231196
H25   H     H_    0.828359 0.932190 0.076209 0.188340
C114  C     C_3   0.205655 0.916833 0.958389 -0.350423
C115  C     C_3   0.258328 0.888754 0.936691 -0.333520
C116  C     C_3   0.233367 0.844364 0.916072 -0.858108
H26   H     H_    0.211662 0.822884 0.943076 0.269321
H27   H     H_    0.198140 0.851974 0.889042 0.260031
H28   H     H_    0.272379 0.824814 0.900476 0.255247
H29   H     H_    0.280939 0.909056 0.909166 0.216925
H30   H     H_    0.294262 0.880159 0.962889 0.265884
H31   H     H_    0.181936 0.896152 0.985115 0.225903
H32   H     H_    0.170889 0.926198 0.931564 0.195470
C117  C     C_3   0.704512 0.576430 0.448146 -0.350995
C118  C     C_3   0.756856 0.601831 0.423143 -0.330683
C119  C     C_3   0.731312 0.643127 0.396980 -0.856967
H33   H     H_    0.696341 0.631980 0.371075 0.260072
H34   H     H_    0.709136 0.667718 0.420984 0.269958
H35   H     H_    0.770098 0.660765 0.379087 0.255034
H36   H     H_    0.792509 0.613839 0.448126 0.265695
H37   H     H_    0.779925 0.578349 0.398474 0.216861
H38   H     H_    0.669955 0.563603 0.422703 0.190472
H39   H     H_    0.680395 0.600182 0.471999 0.230355
C120  C     C_3   0.293820 0.582043 0.545229 -0.349637
C121  C     C_3   0.240700 0.609862 0.566681 -0.331363
C122  C     C_3   0.265290 0.653824 0.588436 -0.856611
H40   H     H_    0.299789 0.645663 0.615806 0.259760
H41   H     H_    0.287764 0.675742 0.562129 0.270038
H42   H     H_    0.225951 0.673181 0.603834 0.254987
H43   H     H_    0.205480 0.618998 0.540141 0.265972
H44   H     H_    0.217295 0.589127 0.593515 0.216199
H45   H     H_    0.327765 0.571991 0.572371 0.189602
H46   H     H_    0.318458 0.603192 0.519333 0.231095
C123  C     C_3   0.294625 0.422795 0.552967 -0.353514
C124  C     C_3   0.241887 0.397025 0.577139 -0.326964
C125  C     C_3   0.267109 0.355641 0.603334 -0.857848
H47   H     H_    0.289996 0.331289 0.579448 0.269871
H48   H     H_    0.301407 0.366731 0.629744 0.259793
H49   H     H_    0.228036 0.337741 0.620629 0.255207
H50   H     H_    0.218092 0.420247 0.601682 0.216518
H51   H     H_    0.206889 0.385061 0.551644 0.266365
H52   H     H_    0.319449 0.399320 0.529230 0.231018
H53   H     H_    0.328535 0.435529 0.578923 0.187501
C126  C     C_3   0.705654 0.416837 0.458382 -0.350339
C127  C     C_3   0.758327 0.388759 0.436682 -0.333616
C128  C     C_3   0.733365 0.344371 0.416058 -0.858202
H54   H     H_    0.711660 0.322889 0.443061 0.269334
H55   H     H_    0.698138 0.351984 0.389030 0.260039
H56   H     H_    0.772376 0.324823 0.400461 0.255199
H57   H     H_    0.780938 0.409063 0.409158 0.216898
H58   H     H_    0.794261 0.380162 0.462878 0.265825
H59   H     H_    0.681936 0.396154 0.485107 0.225906
H60   H     H_    0.670888 0.426204 0.431558 0.195451
Cl1   Cl    Cl    0.300461 0.089507 0.044571 -0.650197
Cl2   Cl    Cl    0.700885 0.087307 0.950737 -0.662466
Cl3   Cl    Cl    0.701478 0.912197 0.951823 -0.662325
Cl4   Cl    Cl    0.303860 0.916315 0.054675 -0.658796
Cl5   Cl    Cl    0.800461 0.589503 0.544578 -0.649968
Cl6   Cl    Cl    0.200945 0.585143 0.447053 -0.661033
Cl7   Cl    Cl    0.201369 0.410223 0.455599 -0.663723
Cl8   Cl    Cl    0.803859 0.416310 0.554668 -0.658975
C129  C     C_3   0.209609 0.007513 0.092835 -0.346510
C130  C     C_3   0.169964 0.967077 0.109173 -0.351707
C131  C     C_3   0.157097 0.970558 0.160413 -0.840504
H61   H     H_    0.201413 0.967679 0.180147 0.272837
H62   H     H_    0.134465 0.003826 0.168520 0.264234
H63   H     H_    0.125585 0.942332 0.171001 0.257233
H64   H     H_    0.124899 0.966723 0.090391 0.224595
H65   H     H_    0.194176 0.934149 0.102512 0.276655
H66   H     H_    0.252122 0.010399 0.114630 0.248269
H67   H     H_    0.182322 0.039768 0.096080 0.214593
C132  C     C_3   0.801814 0.999587 0.911140 -0.369721
C133  C     C_3   0.753431 0.999352 0.872305 -0.283563
C134  C     C_3   0.785305 0.999154 0.825658 -0.862094
H68   H     H_    0.814729 0.030201 0.821640 0.268072
H69   H     H_    0.814998 0.968125 0.821994 0.268099
H70   H     H_    0.749386 0.998985 0.798096 0.258215
H71   H     H_    0.723423 0.968519 0.874908 0.268002
H72   H     H_    0.723156 0.030151 0.874555 0.268030
H73   H     H_    0.831823 0.030461 0.908048 0.212128
H74   H     H_    0.832049 0.968717 0.908421 0.212512
C135  C     C_3   0.709609 0.507505 0.592836 -0.346506
C136  C     C_3   0.669963 0.467068 0.609170 -0.351694
C137  C     C_3   0.657095 0.470544 0.660410 -0.840515
H75   H     H_    0.701411 0.467663 0.680144 0.272842
H76   H     H_    0.634464 0.503811 0.668520 0.264240
H77   H     H_    0.625583 0.442318 0.670995 0.257229
H78   H     H_    0.624897 0.466717 0.590388 0.224586
H79   H     H_    0.694173 0.434140 0.602506 0.276659
H80   H     H_    0.752121 0.510388 0.614631 0.248273
H81   H     H_    0.682322 0.539760 0.596083 0.214585
C138  C     C_3   0.301733 0.495765 0.411180 -0.369719
C139  C     C_3   0.253320 0.493944 0.372406 -0.283395
C140  C     C_3   0.285151 0.491662 0.325796 -0.862077
H82   H     H_    0.314692 0.522441 0.320422 0.268064
H83   H     H_    0.314718 0.460435 0.323454 0.268050
H84   H     H_    0.249207 0.490382 0.298280 0.258173
H85   H     H_    0.223209 0.463312 0.376352 0.267882
H86   H     H_    0.223154 0.524873 0.373330 0.268064
H87   H     H_    0.331796 0.526448 0.406773 0.210913
H88   H     H_    0.331912 0.464774 0.409744 0.213617

loop_
_geom_bond_atom_site_label_1
_geom_bond_atom_site_label_2
_geom_bond_distance
_ccdc_geom_bond_type
C111  H25   1.111482 S    
C34   C38   1.536540 S    
C24   C31   1.534235 S    
C59   C63   1.231888 T    
C107  H5    1.110925 S    
C120  H45   1.111451 S    
O26   Zn8   2.023845 S    
C112  C113  1.525328 S    
C135  C136  1.532108 S    
C30   Cl6   1.784137 S    
C116  H26   1.110897 S    
C63   C77   1.479337 S    
O15   C7    1.220049 A    
C130  H64   1.107663 S    
O46   C79   1.302426 A    
Zn10  O46   1.880372 S    
C131  H63   1.110414 S    
C62   C76   1.479236 S    
C29   C35   1.540436 S    
O24   Zn6   2.020508 S    
C109  H15   1.110516 S    
C31   Cl7   1.783997 S    
C9    C25   1.537647 S    
C110  H12   1.110919 S    
O7    C3    1.247661 A    
C107  H6    1.110897 S    
C132  H73   1.111517 S    
O5    C1    1.247651 A    
C115  H29   1.111308 S    
C16   C19   1.544611 S    
C29   Cl5   1.784354 S    
C71   C93   1.478208 S    
C17   H1    1.110089 S    
C14   C20   1.543901 S    
C117  H39   1.111218 S    
C124  H51   1.110550 S    
C83   C85   1.454055 S    
C84   C86   1.454055 S    
C12   C37   1.539682 S    
C18   H2    1.110144 S    
C122  H42   1.110460 S    
C121  H43   1.110510 S    
C118  C119  1.525340 S    
C41   C45   1.231634 T    
C110  H14   1.110382 S    
C108  H17   1.111475 S    
C106  C107  1.525341 S    
O27   Zn7   2.020505 S    
C118  H36   1.110596 S    
O25   Zn7   2.023849 S    
C140  H84   1.110406 S    
C25   C33   1.540434 S    
C138  H88   1.111512 S    
O38   C76   1.302418 A    
O28   C69   1.218808 A    
C126  H59   1.111286 S    
C128  H54   1.110901 S    
C105  C106  1.532562 S    
C137  H77   1.110412 S    
C33   C129  1.530238 S    
O42   Zn12  1.879820 S    
C12   C28   1.540264 S    
O33   C73   1.302622 A    
C21   C67   1.422446 S    
C18   C22   1.541594 S    
O19   Zn7   1.875581 S    
O5    Zn3   1.874811 S    
C13   C117  1.529686 S    
C66   C82   1.478602 S    
C94   C96   1.231308 T    
C136  C137  1.525468 S    
C24   C70   1.427795 S    
O43   Zn12  1.883410 S    
C126  C127  1.532711 S    
C3    C43   1.478597 S    
C115  C116  1.525326 S    
C23   C69   1.422448 S    
C133  H71   1.109411 S    
C46   C50   1.454179 S    
C10   C108  1.529566 S    
C95   C97   1.453676 S    
C45   C49   1.454105 S    
C15   C40   1.534089 S    
C21   C25   1.528074 S    
C120  H46   1.111282 S    
C89   C91   1.231702 T    
C16   C39   1.539683 S    
C27   Cl3   1.784026 S    
C15   C20   1.543704 S    
Zn8   O32   1.876103 S    
O39   C75   1.302992 A    
C5    C37   1.430513 S    
C26   Cl2   1.784031 S    
O6    Zn3   1.875353 S    
C56   C60   1.454364 S    
C23   C29   1.528074 S    
O31   C72   1.247982 A    
C25   Cl1   1.784354 S    
C16   C126  1.529645 S    
C7    C39   1.430511 S    
C10   C26   1.538272 S    
C114  C115  1.532711 S    
O12   C8    1.221309 A    
C136  H79   1.108768 S    
C134  H68   1.111004 S    
C125  H49   1.110465 S    
C102  C104  1.231474 T    
C116  H27   1.110913 S    
C11   C38   1.534243 S    
O9    Zn1   2.023229 S    
C51   C55   1.231736 T    
O44   C78   1.303369 A    
O45   C79   1.302640 A    
O25   C69   1.216103 A    
C105  H10   1.111483 S    
C121  C122  1.525389 S    
C81   C83   1.231541 T    
O21   C67   1.216103 A    
C57   C61   1.231891 T    
C117  C118  1.532561 S    
C82   C84   1.231541 T    
C106  H8    1.110594 S    
C2    C42   1.478700 S    
C13   C29   1.537643 S    
C73   C103  1.478619 S    
C107  H7    1.110385 S    
C9    C37   1.535714 S    
C132  H74   1.111514 S    
C47   C51   1.454105 S    
C12   C17   1.544612 S    
O38   Zn10  1.879820 S    
C133  H72   1.109406 S    
C15   C31   1.538375 S    
C113  H19   1.110893 S    
O13   Zn3   2.022158 S    
O41   C77   1.302853 A    
C129  H66   1.111459 S    
C114  H31   1.111286 S    
Zn12  O48   1.880372 S    
C85   C88   1.231634 T    
C120  C121  1.532767 S    
C134  H69   1.110997 S    
C14   C120  1.529829 S    
O11   Zn2   2.023229 S    
C30   C36   1.542296 S    
C108  H18   1.111216 S    
O16   Zn4   2.023440 S    
C21   C28   1.528857 S    
O35   Zn11  1.880290 S    
C58   C62   1.231834 T    
C135  H80   1.111462 S    
C22   C27   1.534203 S    
C127  H58   1.110418 S    
C32   Cl8   1.785478 S    
O13   C5    1.220049 A    
O7    Zn4   1.874811 S    
Zn6   O30   1.876103 S    
O37   Zn9   1.879823 S    
C44   C48   1.231606 T    
C128  H55   1.110913 S    
O34   C73   1.302831 A    
C26   C34   1.542150 S    
C114  H32   1.111418 S    
C80   C92   1.479010 S    
C24   C30   1.534258 S    
C113  H20   1.110923 S    
C36   C138  1.531950 S    
C72   C94   1.478206 S    
C123  C124  1.532602 S    
C16   C32   1.540265 S    
O42   C78   1.302420 A    
C6    C38   1.431732 S    
C122  H40   1.110882 S    
C4    C44   1.478697 S    
Zn5   O29   1.875564 S    
C54   C58   1.454368 S    
O4    Zn2   1.875390 S    
C119  H33   1.110926 S    
C125  H47   1.110910 S    
O40   C76   1.303371 A    
O8    C4    1.247936 A    
O17   Zn5   1.875581 S    
C1    C41   1.478600 S    
C14   C40   1.534437 S    
C140  H82   1.111029 S    
O1    C1    1.248148 A    
C124  H50   1.111328 S    
C125  H48   1.110944 S    
C27   C34   1.542066 S    
C13   C19   1.544534 S    
C139  H85   1.109426 S    
C65   C81   1.478602 S    
O15   Zn4   2.022158 S    
C28   Cl4   1.785477 S    
C11   C111  1.529624 S    
O21   Zn5   2.023849 S    
C112  H22   1.111307 S    
O43   C77   1.302992 A    
C111  C112  1.532600 S    
O39   Zn10  1.883410 S    
C119  H34   1.110898 S    
C88   C90   1.454164 S    
O40   Zn9   1.883407 S    
C14   C30   1.538105 S    
C139  H86   1.109379 S    
C136  H78   1.107662 S    
C10   C38   1.534133 S    
C138  C139  1.532117 S    
O22   Zn6   2.023845 S    
C127  H57   1.111308 S    
O8    Zn4   1.875353 S    
C116  H28   1.110394 S    
O48   C80   1.302424 A    
C35   C39   1.536226 S    
O28   Zn8   2.020508 S    
C93   C95   1.231308 T    
O4    C4    1.247780 A    
C17   C21   1.540275 S    
C131  H61   1.110790 S    
O2    C2    1.247798 A    
C105  H11   1.111216 S    
C129  C130  1.532108 S    
C97   C100  1.231403 T    
O34   Zn10  1.881665 S    
C109  C110  1.525324 S    
O36   C74   1.302833 A    
O18   C65   1.247923 A    
C19   C23   1.540277 S    
C98   C99   1.231403 T    
O35   C74   1.302620 A    
C111  H24   1.111215 S    
O27   C70   1.219304 A    
C20   C24   1.541574 S    
O22   C68   1.218590 A    
Zn11  O47   1.881749 S    
C115  H30   1.110419 S    
C128  H56   1.110393 S    
O37   C75   1.302853 A    
O14   C6    1.221203 A    
C90   C92   1.231702 T    
Zn9   O45   1.881749 S    
O3    Zn2   1.875926 S    
C130  H65   1.108768 S    
C129  H67   1.111336 S    
C52   C56   1.231739 T    
C11   C27   1.538185 S    
C131  H62   1.110443 S    
O12   Zn2   2.021951 S    
O6    C2    1.247915 A    
O32   C72   1.248083 A    
C132  C133  1.532018 S    
O1    Zn1   1.875926 S    
C11   C18   1.543685 S    
C33   C37   1.536227 S    
O47   C80   1.302642 A    
Zn7   O31   1.875564 S    
C12   C114  1.529643 S    
C135  H81   1.111338 S    
C22   C26   1.534304 S    
O26   C70   1.218579 A    
C32   C35   1.541042 S    
C36   C40   1.536587 S    
C79   C91   1.479010 S    
C109  H16   1.111310 S    
C74   C104  1.478619 S    
C117  H38   1.111482 S    
C139  C140  1.526056 S    
O10   C6    1.221084 A    
C100  C102  1.453791 S    
C130  C131  1.525465 S    
C123  H53   1.111522 S    
C137  H75   1.110791 S    
O18   Zn6   1.875041 S    
C122  H41   1.110973 S    
O10   Zn1   2.021951 S    
O9    C5    1.218124 A    
O19   C66   1.248027 A    
C55   C59   1.454437 S    
C112  H23   1.110524 S    
C34   C132  1.531768 S    
O20   Zn8   1.875041 S    
O20   C66   1.247923 A    
C42   C46   1.231606 T    
C60   C64   1.231834 T    
C22   C68   1.427889 S    
C48   C52   1.454179 S    
C118  H37   1.111318 S    
C121  H44   1.111315 S    
O11   C7    1.218124 A    
C127  C128  1.525326 S    
C140  H83   1.111012 S    
C138  H87   1.111548 S    
C9    C105  1.529683 S    
C8    C40   1.431649 S    
O2    Zn1   1.875390 S    
C43   C47   1.231634 T    
C87   C89   1.454164 S    
C35   C135  1.530241 S    
O17   C65   1.248027 A    
C124  C125  1.525402 S    
C13   C39   1.535715 S    
C113  H21   1.110380 S    
O23   C68   1.219340 A    
O3    C3    1.248139 A    
C28   C33   1.541043 S    
C64   C78   1.479236 S    
C108  C109  1.532619 S    
O23   Zn5   2.020505 S    
C137  H76   1.110441 S    
O14   Zn3   2.023440 S    
C106  H9    1.111317 S    
O36   Zn12  1.881665 S    
C133  C134  1.525986 S    
C19   H3    1.110087 S    
C101  C103  1.231471 T    
C53   C57   1.454434 S    
C50   C54   1.231736 T    
C134  H70   1.110355 S    
C9    C17   1.544534 S    
C20   H4    1.110136 S    
C49   C53   1.231736 T    
C86   C87   1.231634 T    
C126  H60   1.111417 S    
C99   C101  1.453794 S    
O29   C71   1.247984 A    
O41   Zn11  1.879823 S    
C10   C18   1.543806 S    
C15   C123  1.529723 S    
C119  H35   1.110384 S    
C31   C36   1.541909 S    
O44   Zn11  1.883407 S    
C123  H52   1.111242 S    
O16   C8    1.220717 A    
O30   C71   1.248080 A    
C61   C75   1.479334 S    
O24   C67   1.218808 A    
C110  H13   1.110893 S    
C96   C98   1.453678 S    
C23   C32   1.528855 S    
O33   Zn9   1.880290 S    
