data_mof_unit_62144.cif
_audit_creation_date              2012-12-10T20:49:05-0500
_audit_creation_method            fapswitch 2.2
_symmetry_space_group_name_H-M    P1
_symmetry_Int_Tables_number       1
_space_group_crystal_system       triclinic
_cell_length_a                    19.193152
_cell_length_b                    19.186965
_cell_length_c                    19.473627
_cell_angle_alpha                 89.702459
_cell_angle_beta                  94.889949
_cell_angle_gamma                 85.264585
_cell_volume                      7120.29372017

loop_
_atom_site_label
_atom_site_type_symbol
_atom_type_description
_atom_site_fract_x
_atom_site_fract_y
_atom_site_fract_z
_atom_type_partial_charge
C1    C     C_R   0.492381 0.689214 0.507217 0.511330
C2    C     C_2   0.497055 0.541031 0.019213 0.224089
C3    C     C_2   0.510645 0.483330 0.982066 -0.113398
C4    C     C_R   0.507412 0.310823 0.493121 0.507696
C5    C     C_R   0.511497 0.487777 0.763757 0.035254
C6    C     C_R   0.512185 0.234033 0.493214 0.029870
C7    C     C_R   0.462008 0.198423 0.524411 -0.151215
C8    C     C_R   0.467217 0.125731 0.526799 -0.091320
C9    C     C_R   0.523078 0.087152 0.497994 0.225136
C10   C     C_R   0.573622 0.122721 0.467756 -0.109665
C11   C     C_R   0.567970 0.195682 0.464667 -0.146715
C12   C     C_R   0.496435 0.534287 0.094416 0.056829
C13   C     C_R   0.542165 0.873587 0.534649 -0.088792
C14   C     C_R   0.545702 0.800678 0.536109 -0.148714
C15   C     C_R   0.480490 0.912373 0.506949 0.225273
C16   C     C_R   0.689743 0.492112 0.507513 0.505964
C17   C     C_R   0.488184 0.765799 0.509268 0.032327
C18   C     C_R   0.426481 0.804681 0.482825 -0.142072
C19   C     C_R   0.422522 0.877419 0.482600 -0.106848
C20   C     C_R   0.233194 0.508444 0.487530 0.029544
C21   C     C_R   0.200618 0.472491 0.537145 -0.150239
C22   C     C_R   0.128086 0.470785 0.531917 -0.091251
C23   C     C_R   0.443876 0.571151 0.128639 -0.083756
C24   C     C_R   0.086566 0.505101 0.476612 0.224698
C25   C     C_R   0.119177 0.540159 0.426657 -0.109950
C26   C     C_R   0.191956 0.542515 0.432305 -0.147422
C27   C     C_R   0.875815 0.470360 0.457752 -0.091642
C28   C     C_R   0.310058 0.507733 0.492446 0.509985
C29   C     C_R   0.803047 0.468861 0.454534 -0.152081
C30   C     C_R   0.912914 0.492162 0.518402 0.224434
C31   C     C_R   0.766544 0.489843 0.511358 0.031665
C32   C     C_R   0.803861 0.510417 0.571993 -0.145323
C33   C     C_R   0.876561 0.510622 0.575612 -0.109408
C34   C     C_R   0.441750 0.562350 0.199444 -0.132306
C35   C     C_R   0.508508 0.491412 0.688437 0.508529
C36   C     C_R   0.491909 0.508910 0.311576 0.508227
C37   C     C_R   0.492261 0.516603 0.236778 0.036494
C38   C     C_R   0.545230 0.480355 0.202545 -0.123056
C39   C     C_R   0.547549 0.489445 0.132040 -0.139158
C40   C     C_R   0.554693 0.528966 0.875390 -0.060347
C41   C     C_R   0.554000 0.530843 0.803934 -0.118159
C42   C     C_R   0.471283 0.441454 0.796137 -0.121201
C43   C     C_R   0.472172 0.439590 0.867591 -0.112085
C44   C     C_R   0.512324 0.484626 0.907204 0.068729
Cl1   Cl    Cl    0.473653 0.624011 0.979789 -0.607271
H1    H     H_    0.585415 0.445544 0.230293 0.138171
H2    H     H_    0.418670 0.226732 0.547132 0.138147
H3    H     H_    0.775257 0.452626 0.407334 0.133120
H4    H     H_    0.586217 0.566295 0.780234 0.138249
H5    H     H_    0.902984 0.454195 0.413248 0.136969
H6    H     H_    0.087984 0.566218 0.383572 0.123555
H7    H     H_    0.215976 0.570004 0.392994 0.137164
H8    H     H_    0.776847 0.526113 0.616758 0.136218
H9    H     H_    0.104665 0.442007 0.570720 0.138231
H10   H     H_    0.904675 0.526463 0.622798 0.123792
H11   H     H_    0.231202 0.445471 0.580058 0.138467
H12   H     H_    0.440319 0.404200 0.891933 0.112621
H13   H     H_    0.438685 0.407103 0.766330 0.137002
H14   H     H_    0.516415 0.432164 0.007133 0.080068
H15   H     H_    0.403730 0.605702 0.100546 0.167270
H16   H     H_    0.587948 0.562240 0.905839 0.155320
H17   H     H_    0.400554 0.591155 0.224859 0.137333
H18   H     H_    0.589499 0.461550 0.106893 0.106661
H19   H     H_    0.593702 0.771634 0.556956 0.136371
H20   H     H_    0.587230 0.899536 0.555359 0.138730
H21   H     H_    0.617145 0.093734 0.445985 0.124050
H22   H     H_    0.607754 0.222017 0.440960 0.138430
H23   H     H_    0.381155 0.778840 0.462535 0.138197
H24   H     H_    0.427991 0.099829 0.551796 0.139074
H25   H     H_    0.374541 0.906760 0.462138 0.124532
N1    N     N_2   0.530514 0.012977 0.499657 -0.245362
N2    N     N_2   0.473975 0.986362 0.504395 -0.248695
N3    N     N_2   0.012443 0.504247 0.469185 -0.246226
N4    N     N_2   0.986733 0.494195 0.524731 -0.249522
O1    O     O_3   0.500000 0.500000 0.500000 -0.436947
O2    O     O_R   0.546320 0.532340 0.658770 -0.545824
O3    O     O_R   0.450550 0.549430 0.344370 -0.546512
O4    O     O_R   0.467400 0.453980 0.652500 -0.547734
O5    O     O_R   0.535730 0.464240 0.344360 -0.547156
O6    O     O_R   0.656240 0.454400 0.463600 -0.545381
O7    O     O_R   0.340160 0.549180 0.454800 -0.546439
O8    O     O_R   0.536860 0.652450 0.548350 -0.540245
O9    O     O_R   0.466740 0.343960 0.533260 -0.547483
O10   O     O_R   0.451210 0.659450 0.463610 -0.544472
O11   O     O_R   0.545190 0.344140 0.454780 -0.544145
O12   O     O_R   0.656710 0.532590 0.548340 -0.546731
O13   O     O_R   0.346890 0.463830 0.533270 -0.545254
Zn1   Zn    Zn3+2 0.558280 0.441710 0.441700 0.935711
Zn2   Zn    Zn3+2 0.558950 0.553420 0.562770 0.941108
Zn3   Zn    Zn3+2 0.446190 0.441460 0.553820 0.936365
Zn4   Zn    Zn3+2 0.436580 0.563410 0.441710 0.940518

loop_
_geom_bond_atom_site_label_1
_geom_bond_atom_site_label_2
_ccdc_geom_bond_type
C33   H10   S    
C5    C42   A    
C27   C29   A    
C34   C37   A    
N3    N4    D    
C2    C12   S    
C42   H13   S    
C7    C8    A    
C22   H9    S    
C13   H20   S    
O4    Zn3   S    
C1    O10   A    
C15   C19   A    
C15   N2    S    
C12   C23   A    
C8    H24   S    
O8    Zn2   S    
C36   C37   S    
C36   O3    A    
C38   C39   A    
C30   N4    S    
C24   N3    S    
C18   H23   S    
C34   H17   S    
C18   C19   A    
O1    Zn3   S    
C8    C9    A    
O10   Zn4   S    
C9    C10   A    
C27   H5    S    
O1    Zn4   S    
O2    Zn2   S    
C13   C14   A    
C27   C30   A    
C16   O12   A    
C14   C17   A    
C41   H4    S    
O5    Zn1   S    
C11   H22   S    
C10   H21   S    
C2    Cl1   S    
C23   H15   S    
C3    C44   S    
C35   O2    A    
C29   H3    S    
C24   C25   A    
C4    C6    S    
C6    C11   A    
C43   H12   S    
C4    O11   A    
C20   C28   S    
C1    O8    A    
C36   O5    A    
C40   H16   S    
C16   C31   S    
C7    H2    S    
C43   C44   A    
C25   H6    S    
C37   C38   A    
C26   H7    S    
C31   C32   A    
C23   C34   A    
C14   H19   S    
C28   O13   A    
C17   C18   A    
C40   C41   A    
C13   C15   A    
C22   C24   A    
C42   C43   A    
C32   H8    S    
O11   Zn1   S    
O9    Zn3   S    
C5    C41   A    
O3    Zn4   S    
C30   C33   A    
C28   O7    A    
C9    N1    S    
O12   Zn2   S    
C21   H11   S    
C6    C7    A    
C39   H18   S    
C35   O4    A    
C1    C17   S    
C32   C33   A    
C12   C39   A    
C2    C3    D    
C25   C26   A    
N1    N2    D    
O6    Zn1   S    
C4    O9    A    
C20   C26   A    
C5    C35   S    
C38   H1    S    
C10   C11   A    
O1    Zn2   S    
O7    Zn4   S    
O1    Zn1   S    
C40   C44   A    
C20   C21   A    
C29   C31   A    
O13   Zn3   S    
C19   H25   S    
C16   O6    A    
C21   C22   A    
C3    H14   S    
