data_mof_unit_52807.cif
_audit_creation_date              2012-12-10T17:46:13-0500
_audit_creation_method            fapswitch 2.2
_symmetry_space_group_name_H-M    P1
_symmetry_Int_Tables_number       1
_space_group_crystal_system       triclinic
_cell_length_a                    14.148121
_cell_length_b                    10.641429
_cell_length_c                    9.941868
_cell_angle_alpha                 89.682895
_cell_angle_beta                  89.743786
_cell_angle_gamma                 91.768817
_cell_volume                      1496.05784549

loop_
_atom_site_label
_atom_site_type_symbol
_atom_type_description
_atom_site_fract_x
_atom_site_fract_y
_atom_site_fract_z
_atom_type_partial_charge
Br1   Br    Br    0.644696 0.693373 0.155607 -0.489448
C1    C     C_R   0.502435 0.260708 0.500330 0.836829
C2    C     C_R   0.439671 0.061997 0.429376 -0.208641
C3    C     C_R   0.440113 0.933619 0.428443 -0.182365
C4    C     C_R   0.329325 0.499664 0.500285 0.866395
C5    C     C_R   0.509903 0.872018 0.498667 -0.086660
C6    C     C_R   0.376353 0.334375 0.141343 -0.122230
C7    C     C_R   0.315933 0.252323 0.072042 -0.188214
C8    C     C_R   0.316044 0.252294 0.932839 -0.183368
C9    C     C_R   0.376599 0.334298 0.861973 -0.123175
C10   C     C_R   0.439299 0.418319 0.928653 0.149892
C11   C     C_R   0.439240 0.418376 0.073093 0.108889
C12   C     C_1   0.772163 0.500176 0.499334 -0.183150
C13   C     C_R   0.558459 0.578236 0.069444 0.309127
C14   C     C_R   0.558123 0.577901 0.926878 -0.146790
C15   C     C_R   0.503020 0.739436 0.499631 0.875907
C16   C     C_R   0.670678 0.500391 0.499724 0.877276
C17   C     C_1   0.227816 0.499429 0.500743 -0.205473
C18   C     C_1   0.142535 0.499346 0.500703 -0.009374
C19   C     C_1   0.042613 0.499426 0.500339 0.010711
C20   C     C_1   0.957339 0.499616 0.499922 0.012793
C21   C     C_1   0.857428 0.499920 0.499477 0.002881
C22   C     C_R   0.657967 0.136643 0.631340 -0.171147
C23   C     C_R   0.730553 0.073640 0.694685 -0.126154
C24   C     C_R   0.730930 0.942930 0.693766 -0.116839
C25   C     C_R   0.658745 0.874736 0.629435 -0.164529
C26   C     C_R   0.583708 0.937101 0.566452 0.099169
C27   C     C_R   0.583281 0.068899 0.567424 0.097928
C28   C     C_R   0.509063 0.128613 0.500447 -0.085596
H1    H     H_    0.383879 0.109633 0.376997 0.137851
H2    H     H_    0.371362 0.329141 0.248029 0.190934
H3    H     H_    0.268512 0.188568 0.126915 0.146285
H4    H     H_    0.268693 0.188537 0.879215 0.150374
H5    H     H_    0.371979 0.329150 0.755315 0.196616
H6    H     H_    0.605457 0.641504 0.871794 0.172284
H7    H     H_    0.662048 0.238192 0.631359 0.151695
H8    H     H_    0.787254 0.126478 0.743301 0.143869
H9    H     H_    0.787907 0.894224 0.741688 0.146796
H10   H     H_    0.663413 0.773548 0.627803 0.141993
H11   H     H_    0.384548 0.881876 0.375652 0.153212
N1    N     N_R   0.499190 0.498800 0.142780 -0.138880
N2    N     N_R   0.499160 0.498720 0.857170 -0.132017
O1    O     O_R   0.500000 0.316780 0.614690 -0.635393
O2    O     O_R   0.499990 0.316750 0.385360 -0.622928
O3    O     O_R   0.373720 0.500010 0.614690 -0.608698
O4    O     O_R   0.373710 0.499990 0.385360 -0.617393
O5    O     O_R   0.500010 0.683250 0.614640 -0.616650
O6    O     O_R   0.500000 0.683220 0.385310 -0.563058
O7    O     O_R   0.626290 0.500010 0.614640 -0.616119
O8    O     O_R   0.626280 0.499990 0.385310 -0.545620
Zn1   Zn    Zn3+2 0.500010 0.500020 0.653130 0.930301
Zn2   Zn    Zn3+2 0.499990 0.499980 0.346870 0.979899

loop_
_geom_bond_atom_site_label_1
_geom_bond_atom_site_label_2
_ccdc_geom_bond_type
C16   O8    A    
C2    H1    S    
O8    Zn2   S    
C22   C23   A    
C3    H11   S    
C11   N1    A    
O2    Zn2   S    
C24   H9    S    
C8    C9    A    
C1    O1    A    
N1    Zn2   S    
C5    C26   A    
C12   C16   S    
N2    Zn1   S    
C10   C11   A    
C15   O6    A    
C23   H8    S    
C6    C7    A    
C9    H5    S    
C22   C27   A    
C19   C20   T    
C8    H4    S    
O1    Zn1   S    
C25   C26   A    
C4    C17   S    
C1    C28   S    
C15   O5    A    
C14   H6    S    
C27   C28   A    
C12   C21   T    
C17   C18   T    
C13   N1    A    
C6    C11   A    
C25   H10   S    
C6    H2    S    
C9    C10   A    
O3    Zn1   S    
C5    C15   S    
C2    C3    A    
C7    H3    S    
O4    Zn2   S    
O6    Zn2   S    
C23   C24   A    
C10   N2    A    
C3    C5    A    
C22   H7    S    
C4    O4    A    
C16   O7    A    
C26   C27   A    
C2    C28   A    
C13   C14   A    
O5    Zn1   S    
Br1   C13   S    
C24   C25   A    
C20   C21   S    
C4    O3    A    
C18   C19   S    
C14   N2    A    
C1    O2    A    
C7    C8    A    
O7    Zn1   S    
