data_mof_unit_30868.cif
_audit_creation_date              2012-12-10T19:24:27-0500
_audit_creation_method            fapswitch 2.2
_symmetry_space_group_name_H-M    P1
_symmetry_Int_Tables_number       1
_space_group_crystal_system       triclinic
_cell_length_a                    17.747949
_cell_length_b                    16.554936
_cell_length_c                    10.642208
_cell_angle_alpha                 89.99993
_cell_angle_beta                  93.870335
_cell_angle_gamma                 90.000027
_cell_volume                      3119.72146181

loop_
_atom_site_label
_atom_site_type_symbol
_atom_type_description
_atom_site_fract_x
_atom_site_fract_y
_atom_site_fract_z
_atom_type_partial_charge
C1    C     C_R   0.355422 0.500000 0.499930 0.792105
C2    C     C_R   0.644578 0.500000 0.500070 0.792104
C3    C     C_R   0.885296 0.500000 0.498430 0.112383
C4    C     C_R   0.114704 0.500000 0.501569 0.112384
C5    C     C_1   0.966222 0.500000 0.499487 -0.030665
C6    C     C_1   0.033778 0.500000 0.500511 -0.030665
C7    C     C_R   0.549341 0.830633 0.581198 -0.278451
C8    C     C_R   0.450659 0.169367 0.418800 -0.278451
C9    C     C_R   0.450658 0.830633 0.418802 -0.278451
C10   C     C_R   0.549341 0.169367 0.581199 -0.278451
C11   C     C_R   0.549394 0.745074 0.581333 0.336236
C12   C     C_R   0.450607 0.254926 0.418665 0.336236
C13   C     C_R   0.450606 0.745074 0.418667 0.336235
C14   C     C_R   0.549393 0.254926 0.581335 0.336235
C15   C     C_R   0.500000 0.874172 0.500000 0.066014
C16   C     C_R   0.500000 0.125828 0.500000 0.066014
C17   C     C_1   0.500000 0.963020 0.500000 -0.029760
C18   C     C_1   0.500000 0.036980 0.500000 -0.029760
C19   C     C_R   0.510773 0.500000 0.262962 0.829107
C20   C     C_R   0.489227 0.500000 0.737037 0.829107
C21   C     C_R   0.550448 0.648027 0.107744 0.224457
C22   C     C_R   0.449552 0.351973 0.892256 0.224457
C23   C     C_R   0.449551 0.648027 0.892255 0.224457
C24   C     C_R   0.550449 0.351973 0.107745 0.224458
C25   C     C_R   0.526402 0.720770 0.051311 -0.222322
C26   C     C_R   0.473598 0.279230 0.948689 -0.222324
C27   C     C_R   0.473597 0.720770 0.948688 -0.222322
C28   C     C_R   0.526403 0.279230 0.051312 -0.222325
C29   C     C_R   0.480474 0.573850 0.940029 0.028725
C30   C     C_R   0.519526 0.426150 0.059971 0.028725
C31   C     C_R   0.519525 0.573850 0.059970 0.028725
C32   C     C_R   0.480475 0.426150 0.940029 0.028725
C33   C     C_R   0.474391 0.500000 0.872924 -0.217335
C34   C     C_R   0.525609 0.500000 0.127076 -0.217335
C35   C     C_R   0.845820 0.573956 0.498121 0.170417
C36   C     C_R   0.154180 0.426044 0.501879 0.170417
C37   C     C_R   0.154180 0.573956 0.501881 0.170417
C38   C     C_R   0.845820 0.426043 0.498116 0.170417
C39   C     C_R   0.767015 0.573214 0.498238 -0.202560
C40   C     C_R   0.232985 0.426785 0.501763 -0.202561
C41   C     C_R   0.232985 0.573214 0.501764 -0.202561
C42   C     C_R   0.767015 0.426785 0.498234 -0.202561
C43   C     C_R   0.727334 0.500000 0.498858 -0.125121
C44   C     C_R   0.272666 0.500000 0.501142 -0.125120
Cu1   Cu    Cu3+1 0.500000 0.580420 0.500000 0.912341
Cu2   Cu    Cu3+1 0.500000 0.419580 0.500000 0.912341
H1    H     H_    0.547949 0.222126 0.088214 0.153878
H2    H     H_    0.452051 0.777874 0.911786 0.153877
H3    H     H_    0.452052 0.222126 0.911787 0.153878
H4    H     H_    0.547948 0.777874 0.088213 0.153877
H5    H     H_    0.736608 0.629974 0.497993 0.164972
H6    H     H_    0.263392 0.370026 0.502008 0.164973
H7    H     H_    0.263392 0.629974 0.502011 0.164973
H8    H     H_    0.736607 0.370026 0.497986 0.164973
H9    H     H_    0.588370 0.863397 0.645411 0.149357
H10   H     H_    0.411631 0.136603 0.354586 0.149357
H11   H     H_    0.411629 0.863397 0.354589 0.149357
H12   H     H_    0.588369 0.136603 0.645414 0.149357
N1    N     N_R   0.500000 0.701220 0.500000 -0.175057
N2    N     N_R   0.500000 0.298780 0.500000 -0.175056
O1    O     O_R   0.391260 0.567930 0.500000 -0.590634
O2    O     O_R   0.608740 0.432070 0.500000 -0.590634
O3    O     O_R   0.608740 0.567930 0.500000 -0.590633
O4    O     O_R   0.391260 0.432070 0.500000 -0.590634
O5    O     O_R   0.500000 0.567910 0.319660 -0.573121
O6    O     O_R   0.500000 0.432090 0.680340 -0.573119
O7    O     O_R   0.500000 0.567910 0.680340 -0.573120
O8    O     O_R   0.500000 0.432090 0.319660 -0.573119
C45   C     C_3   0.615206 0.652051 0.207138 -0.801250
H13   H     H_    0.597459 0.684663 0.291352 0.251072
H14   H     H_    0.636829 0.591376 0.235247 0.216520
H15   H     H_    0.662994 0.685514 0.169420 0.208445
C46   C     C_3   0.384793 0.347949 0.792862 -0.801250
H16   H     H_    0.363171 0.408624 0.764753 0.216520
H17   H     H_    0.402541 0.315337 0.708648 0.251072
H18   H     H_    0.337006 0.314486 0.830580 0.208445
C47   C     C_3   0.384793 0.652050 0.792861 -0.801251
H19   H     H_    0.402540 0.684663 0.708647 0.251072
H20   H     H_    0.363170 0.591375 0.764753 0.216520
H21   H     H_    0.337005 0.685513 0.830579 0.208445
C48   C     C_3   0.615207 0.347950 0.207139 -0.801250
H22   H     H_    0.636830 0.408625 0.235247 0.216520
H23   H     H_    0.597460 0.315337 0.291353 0.251072
H24   H     H_    0.662995 0.314487 0.169421 0.208445
C49   C     C_3   0.886963 0.653653 0.497870 -0.881577
H25   H     H_    0.847411 0.705669 0.497587 0.227574
H26   H     H_    0.926359 0.658308 0.583152 0.236172
H27   H     H_    0.919560 0.658011 0.412670 0.236135
C50   C     C_3   0.113037 0.346347 0.502131 -0.881579
H28   H     H_    0.152589 0.294331 0.502416 0.227575
H29   H     H_    0.080440 0.341990 0.587332 0.236135
H30   H     H_    0.073642 0.341691 0.416850 0.236173
C51   C     C_3   0.113037 0.653653 0.502135 -0.881578
H31   H     H_    0.152590 0.705669 0.502421 0.227574
H32   H     H_    0.073642 0.658310 0.416853 0.236173
H33   H     H_    0.080440 0.658009 0.587335 0.236135
C52   C     C_3   0.886962 0.346346 0.497860 -0.881577
H34   H     H_    0.847410 0.294331 0.497574 0.227574
H35   H     H_    0.919560 0.341991 0.412660 0.236135
H36   H     H_    0.926358 0.341689 0.583142 0.236172
C53   C     C_3   0.606691 0.707856 0.675182 -0.797948
H37   H     H_    0.596373 0.729794 0.771127 0.209457
H38   H     H_    0.607501 0.642131 0.680132 0.276232
H39   H     H_    0.664175 0.727313 0.652871 0.191207
C54   C     C_3   0.393310 0.292144 0.324815 -0.797948
H40   H     H_    0.392499 0.357869 0.319868 0.276232
H41   H     H_    0.403631 0.270209 0.228869 0.209460
H42   H     H_    0.335826 0.272684 0.347120 0.191205
C55   C     C_3   0.393309 0.707856 0.324818 -0.797945
H43   H     H_    0.403627 0.729794 0.228872 0.209456
H44   H     H_    0.392499 0.642131 0.319867 0.276232
H45   H     H_    0.335824 0.727313 0.347129 0.191207
C56   C     C_3   0.606690 0.292144 0.675184 -0.797947
H46   H     H_    0.607501 0.357869 0.680132 0.276232
H47   H     H_    0.596369 0.270208 0.771130 0.209459
H48   H     H_    0.664174 0.272685 0.652878 0.191206

loop_
_geom_bond_atom_site_label_1
_geom_bond_atom_site_label_2
_ccdc_geom_bond_type
C27   H2    S    
C36   C50   S    
C39   H5    S    
C4    C36   A    
C28   H1    S    
C51   H31   S    
C48   H24   S    
C46   H16   S    
C20   O7    A    
C7    H9    S    
C12   C54   S    
C8    H10   S    
C52   H34   S    
C49   H25   S    
C7    C11   A    
C54   H41   S    
C53   H37   S    
C22   C32   A    
Cu2   O2    S    
C23   C29   A    
C20   O6    A    
C10   H12   S    
Cu2   O6    S    
C55   H44   S    
C5    C6    T    
C47   H21   S    
C29   C33   A    
C8    C16   A    
Cu1   O1    S    
C45   H14   S    
C9    C13   A    
C25   H4    S    
C13   C55   S    
C52   H35   S    
C3    C38   A    
Cu1   O7    S    
C23   C27   A    
C50   H29   S    
C47   H19   S    
C56   H48   S    
C47   H20   S    
C53   H38   S    
C46   H17   S    
C38   C52   S    
C11   N1    A    
C48   H23   S    
C48   H22   S    
C49   H26   S    
C54   H42   S    
C30   C34   A    
C36   C40   A    
C4    C6    S    
C10   C14   A    
C55   H45   S    
C39   C43   A    
C40   H6    S    
Cu1   O3    S    
Cu2   O4    S    
C45   H15   S    
C35   C39   A    
C24   C48   S    
Cu2   O8    S    
C21   C31   A    
C1    C44   S    
C3    C35   A    
C2    C43   S    
C8    C12   A    
C17   C18   T    
C31   C34   A    
C37   C51   S    
C19   O8    A    
C11   C53   S    
C23   C47   S    
C50   H30   S    
C41   H7    S    
C20   C33   S    
C51   H33   S    
Cu1   O5    S    
C41   C44   A    
C26   H3    S    
C42   C43   A    
C1    O4    A    
C52   H36   S    
C2    O3    A    
C56   H46   S    
C49   H27   S    
C15   C17   S    
C21   C25   A    
Cu1   N1    S    
Cu2   N2    S    
C24   C28   A    
C3    C5    S    
C19   C34   S    
C1    O1    A    
C38   C42   A    
C13   N1    A    
C25   C27   A    
C14   C56   S    
C14   N2    A    
C54   H40   S    
C26   C28   A    
C32   C33   A    
C9    C15   A    
C29   C31   A    
C10   C16   A    
C55   H43   S    
C42   H8    S    
C30   C32   A    
C35   C49   S    
C51   H32   S    
C7    C15   A    
C46   H18   S    
C19   O5    A    
C9    H11   S    
C37   C41   A    
C45   H13   S    
C24   C30   A    
C12   N2    A    
Cu1   Cu2   S    
C40   C44   A    
C4    C37   A    
C16   C18   S    
C22   C26   A    
C21   C45   S    
C53   H39   S    
C22   C46   S    
C50   H28   S    
C2    O2    A    
C56   H47   S    
