data_mof_unit_47380.cif
_audit_creation_date              2012-12-10T19:04:45-0500
_audit_creation_method            fapswitch 2.2
_symmetry_space_group_name_H-M    P1
_symmetry_Int_Tables_number       1
_space_group_crystal_system       triclinic
_cell_length_a                    15.894162
_cell_length_b                    10.859515
_cell_length_c                    9.638722
_cell_angle_alpha                 91.572267
_cell_angle_beta                  90.190614
_cell_angle_gamma                 91.824319
_cell_volume                      1662.18730575

loop_
_atom_site_label
_atom_site_type_symbol
_atom_type_description
_atom_site_fract_x
_atom_site_fract_y
_atom_site_fract_z
_atom_type_partial_charge
C1    C     C_R   0.498077 0.262323 0.497865 0.823790
C2    C     C_3   0.084293 0.499707 0.497657 -0.035392
C3    C     C_3   0.974793 0.600576 0.569487 -0.181711
C4    C     C_3   0.916171 0.498810 0.502334 -0.031777
C5    C     C_3   0.029731 0.600919 0.437045 -0.174235
C6    C     C_3   0.971263 0.499271 0.371346 0.363130
C7    C     C_1   0.175684 0.499787 0.499042 0.200666
C8    C     C_1   0.824622 0.498664 0.501243 0.186971
C9    C     C_R   0.486435 0.067259 0.618970 0.083418
C10   C     C_R   0.487686 0.128399 0.493977 -0.236099
C11   C     C_R   0.468237 0.058342 0.370517 0.365133
C12   C     C_R   0.340260 0.499773 0.499809 0.811646
C13   C     C_R   0.455281 0.929270 0.376205 -0.086311
C14   C     C_R   0.476741 0.868845 0.500427 -0.207965
C15   C     C_R   0.483450 0.941111 0.621854 0.049065
C16   C     C_3   0.537923 0.939096 0.747988 -0.482791
C17   C     C_3   0.539976 0.079811 0.746977 0.305475
C18   C     C_R   0.573653 0.508953 0.073709 0.012794
C19   C     C_R   0.429500 0.464980 0.071059 -0.001150
C20   C     C_R   0.430412 0.462231 0.923428 0.439027
C21   C     C_R   0.573506 0.509230 0.927767 0.148798
C22   C     C_3   0.644474 0.603360 0.924329 0.606201
C23   C     C_R   0.493500 0.736874 0.500953 0.865441
C24   C     C_3   0.645954 0.602003 0.084693 0.153176
C25   C     C_R   0.659810 0.499844 0.500262 0.835372
C26   C     C_3   0.970911 0.397712 0.563078 -0.190414
C27   C     C_3   0.025742 0.398119 0.430618 -0.188432
C28   C     C_1   0.250960 0.499782 0.499480 -0.033742
C29   C     C_1   0.749259 0.499078 0.500862 -0.042766
C30   C     C_3   0.029399 0.499412 0.628734 0.354511
Cu1   Cu    Cu3+1 0.500000 0.499980 0.640670 1.045604
Cu2   Cu    Cu3+1 0.500000 0.500020 0.359330 1.043097
H1    H     H_    0.599591 0.897901 0.725098 0.242828
H2    H     H_    0.502534 0.901933 0.837423 0.225595
N1    N     N_R   0.500530 0.500930 0.147930 -0.254418
N2    N     N_R   0.500530 0.500890 0.852020 -0.259161
O1    O     O_R   0.500000 0.319640 0.618810 -0.581861
O2    O     O_R   0.500010 0.319680 0.381230 -0.538149
O3    O     O_R   0.379070 0.499970 0.618770 -0.559111
O4    O     O_R   0.379080 0.500010 0.381190 -0.570304
O5    O     O_R   0.499990 0.680320 0.618770 -0.565451
O6    O     O_R   0.500000 0.680360 0.381190 -0.565957
O7    O     O_R   0.620920 0.499990 0.618810 -0.516039
O8    O     O_R   0.620930 0.500030 0.381230 -0.572071
C31   C     C_2   0.050982 0.285253 0.350116 0.944373
O9    O     O_2   0.996678 0.214901 0.300413 -0.517241
O10   O     O_R   0.136041 0.260746 0.332618 -0.763912
H3    H     H_    0.144846 0.181751 0.276791 0.351071
O11   O     O_3   0.494947 0.132693 0.857460 -0.671650
H4    H     H_    0.525578 0.113695 0.943825 0.367106
C32   C     C_2   0.625909 0.140832 0.726603 0.832883
O12   O     O_2   0.672237 0.104270 0.634184 -0.591286
O13   O     O_R   0.651436 0.240772 0.812952 -0.701682
H5    H     H_    0.708859 0.276442 0.787830 0.373499
C33   C     C_2   0.352710 0.412899 0.134623 1.011338
O14   O     O_2   0.285683 0.463359 0.119669 -0.530134
O15   O     O_R   0.355826 0.302972 0.205750 -0.691500
H6    H     H_    0.298999 0.275587 0.243289 0.346314
O16   O     O_3   0.362247 0.408119 0.855135 -0.665989
H7    H     H_    0.385109 0.346768 0.788737 0.374251
O17   O     O_3   0.716027 0.555233 0.860424 -0.691286
H8    H     H_    0.760988 0.620508 0.869257 0.361900
O18   O     O_3   0.622641 0.715876 0.868247 -0.694042
H9    H     H_    0.563899 0.731689 0.895712 0.296528
C34   C     C_2   0.725019 0.550118 0.143784 0.952654
O19   O     O_2   0.782249 0.620191 0.184023 -0.492654
O20   O     O_R   0.733377 0.422453 0.149898 -0.741686
H10   H     H_    0.788905 0.399048 0.192001 0.370576
O21   O     O_3   0.625881 0.714782 0.150739 -0.666040
H11   H     H_    0.566281 0.732206 0.130813 0.337984
C35   C     C_2   0.941643 0.284057 0.635841 0.935550
O22   O     O_2   0.993465 0.215229 0.682371 -0.513690
O23   O     O_R   0.855707 0.256797 0.649330 -0.747938
H12   H     H_    0.844230 0.177285 0.699669 0.363703
O24   O     O_3   0.940302 0.499129 0.235456 -0.666163
H13   H     H_    0.990691 0.499563 0.175142 0.343035
C36   C     C_2   0.060117 0.713679 0.363485 0.936688
O25   O     O_2   0.009057 0.784828 0.319231 -0.501831
O26   O     O_R   0.146309 0.736906 0.345795 -0.724843
H14   H     H_    0.158798 0.815727 0.294676 0.361994
C37   C     C_2   0.948843 0.713228 0.649765 0.933459
O27   O     O_2   0.002708 0.784143 0.699758 -0.516006
O28   O     O_R   0.863567 0.736835 0.666755 -0.742468
H15   H     H_    0.854171 0.815485 0.722886 0.359629
O29   O     O_3   0.061560 0.499535 0.763986 -0.639095
H16   H     H_    0.011644 0.499314 0.825368 0.336718
O30   O     O_3   0.461853 0.112984 0.244172 -0.624746
H17   H     H_    0.518339 0.149726 0.224636 0.353980
C38   C     C_2   0.418115 0.861372 0.253199 0.941425
O31   O     O_2   0.364041 0.780407 0.269491 -0.569943
O32   O     O_R   0.442844 0.891930 0.119045 -0.731556
H18   H     H_    0.412685 0.839037 0.044902 0.324288

loop_
_geom_bond_atom_site_label_1
_geom_bond_atom_site_label_2
_ccdc_geom_bond_type
C36   O25   D    
O30   H17   S    
C18   C21   A    
O23   H12   S    
C2    C7    S    
C4    C8    S    
C17   C32   S    
C37   O27   D    
C6    O24   S    
C21   N2    A    
O13   H5    S    
C26   C27   S    
C23   O6    A    
Cu1   O7    S    
C12   C28   S    
C18   C24   S    
C8    C29   T    
C5    C6    S    
C15   C16   S    
O11   H4    S    
C16   H2    S    
C22   O18   S    
O28   H15   S    
C11   O30   S    
C16   C17   S    
C34   O20   S    
C3    C37   S    
O10   H3    S    
C2    C27   S    
Cu2   O2    S    
C38   O32   S    
C9    C10   A    
C1    O1    A    
C27   C31   S    
C31   O10   S    
O16   H7    S    
C21   C22   S    
C26   C35   S    
C25   O7    A    
O21   H11   S    
C25   O8    A    
C37   O28   S    
C24   O21   S    
C36   O26   S    
C25   C29   S    
O20   H10   S    
Cu2   N1    S    
O26   H14   S    
C4    C6    S    
C17   O11   S    
O32   H18   S    
C35   O23   S    
O29   H16   S    
C7    C28   T    
C32   O12   D    
Cu1   O1    S    
C32   O13   S    
C14   C23   S    
C12   O4    A    
C3    C30   S    
O24   H13   S    
C16   H1    S    
C6    C27   S    
C33   O14   D    
Cu2   O8    S    
C20   O16   S    
C24   C34   S    
C1    O2    A    
C9    C17   S    
C26   C30   S    
C33   O15   S    
C22   C24   S    
C2    C5    S    
C5    C36   S    
C3    C4    S    
C18   N1    A    
C19   C33   S    
Cu1   O5    S    
C13   C38   S    
C14   C15   A    
Cu1   Cu2   S    
C1    C10   S    
C3    C5    S    
C4    C26   S    
C23   O5    A    
C2    C30   S    
C19   C20   A    
C9    C15   A    
C35   O22   D    
C19   N1    A    
C22   O17   S    
C11   C13   A    
O15   H6    S    
C12   O3    A    
Cu1   O3    S    
Cu2   O4    S    
O17   H8    S    
C30   O29   S    
C10   C11   A    
O18   H9    S    
C20   N2    A    
C31   O9    D    
C34   O19   D    
Cu2   O6    S    
Cu1   N2    S    
C38   O31   D    
C13   C14   A    
