data_mof_unit_37718.cif
_audit_creation_date              2012-10-26T20:00:16-0400
_audit_creation_method            fapswitch 2.2
_symmetry_space_group_name_H-M    P1
_symmetry_Int_Tables_number       1
_space_group_crystal_system       triclinic
_cell_length_a                    23.544177
_cell_length_b                    10.913007
_cell_length_c                    9.696085
_cell_angle_alpha                 88.911539
_cell_angle_beta                  89.724807
_cell_angle_gamma                 90.036524
_cell_volume                      2490.81151683

loop_
_atom_site_label
_atom_site_type_symbol
_atom_type_description
_atom_site_fract_x
_atom_site_fract_y
_atom_site_fract_z
_atom_type_partial_charge
C1    C     C_R   0.501525 0.265275 0.501329 0.553688
C2    C     C_R   0.118583 0.613313 0.522515 0.451819
C3    C     C_R   0.235216 0.544296 0.400791 -0.067842
C4    C     C_R   0.390847 0.503736 0.500131 0.560844
C5    C     C_R   0.294444 0.549158 0.389565 0.173696
C6    C     C_R   0.327923 0.508313 0.503099 -0.062864
C7    C     C_R   0.300439 0.472357 0.626748 -0.142455
C8    C     C_R   0.241348 0.474368 0.639369 0.291534
C9    C     C_R   0.208461 0.507307 0.523761 0.172390
C10   C     C_R   0.761425 0.500032 0.373045 0.268882
C11   C     C_R   0.701962 0.501173 0.374073 -0.105866
C12   C     C_R   0.969121 0.281242 0.549668 -0.086016
C13   C     C_R   0.671602 0.499369 0.499256 -0.022811
C14   C     C_R   0.701449 0.496691 0.624224 -0.128643
C15   C     C_R   0.760525 0.496148 0.624099 -0.079665
C16   C     C_R   0.501669 0.734792 0.498365 0.586755
C17   C     C_R   0.790768 0.498061 0.499531 0.220840
C18   C     C_2   0.524471 0.937326 0.393358 0.236809
C19   C     C_2   0.500375 0.867429 0.494403 -0.094761
C20   C     C_2   0.515636 0.070194 0.390956 -0.112902
C21   C     C_2   0.507819 0.133445 0.506316 -0.146297
C22   C     C_2   0.478994 0.411017 0.923878 -0.006131
C23   C     C_R   0.028381 0.278376 0.558524 0.194161
C24   C     C_2   0.471472 0.422349 0.077680 0.027917
C25   C     C_R   0.609038 0.499969 0.499686 0.570369
C26   C     C_R   0.879288 0.609889 0.496409 0.449450
C27   C     C_R   0.880163 0.391916 0.521069 0.452039
C28   C     C_R   0.939551 0.391231 0.529336 0.001143
C29   C     C_R   0.969433 0.502731 0.519413 -0.038540
C30   C     C_R   0.939325 0.614721 0.502487 0.027586
C31   C     C_1   0.551643 0.540916 0.103245 0.415568
C32   C     C_1   0.944008 0.844488 0.470863 0.328923
C33   C     C_R   0.059709 0.389566 0.539836 0.017821
C34   C     C_R   0.029488 0.501897 0.525694 -0.059088
C35   C     C_R   0.059247 0.613893 0.516985 0.028265
C36   C     C_R   0.029516 0.724421 0.501496 -0.090185
C37   C     C_R   0.970427 0.726150 0.492706 -0.019661
C38   C     C_R   0.119809 0.394625 0.532097 0.470622
Cu1   Cu    Cu3+1 0.500010 0.500020 0.638630 1.007861
Cu2   Cu    Cu3+1 0.499990 0.499980 0.361370 1.112710
H1    H     H_    0.945622 0.196330 0.560671 0.215769
H2    H     H_    0.440608 0.362391 0.127787 0.160908
H3    H     H_    0.052451 0.810573 0.493901 0.205365
H4    H     H_    0.209039 0.571367 0.313910 0.190840
H5    H     H_    0.325183 0.442608 0.715116 0.188745
H6    H     H_    0.627784 0.952747 0.111481 0.385539
H7    H     H_    0.063025 0.064493 0.396879 0.339981
H8    H     H_    0.358970 0.769834 0.337067 0.334578
H9    H     H_    0.131155 0.472807 0.906407 0.378653
H10   H     H_    0.741440 0.392474 0.091217 0.348080
H11   H     H_    0.679330 0.503673 0.277213 0.183156
H12   H     H_    0.679227 0.495232 0.722296 0.175332
H13   H     H_    0.783054 0.494729 0.721245 0.178074
H14   H     H_    0.475824 0.908365 0.576400 0.073642
H15   H     H_    0.517928 0.117513 0.291454 0.192008
H16   H     H_    0.509589 0.089655 0.607592 0.116081
H17   H     H_    0.464951 0.327280 0.876216 0.152656
H18   H     H_    0.501997 0.584192 0.889081 0.249112
N1    N     N_R   0.851619 0.499810 0.503691 -0.379747
N2    N     N_R   0.147468 0.504989 0.528902 -0.383288
N3    N     N_2   0.499380 0.498660 0.846910 -0.344599
N4    N     N_2   0.499370 0.498630 0.153040 -0.251192
N5    N     N_1   0.595146 0.575887 0.062472 -0.245512
N6    N     N_1   0.923029 0.939343 0.453062 -0.169864
O1    O     O_R   0.500010 0.321960 0.617040 -0.502667
O2    O     O_R   0.582130 0.500060 0.617050 -0.492550
O3    O     O_R   0.582110 0.500020 0.382900 -0.500109
O4    O     O_2   0.848382 0.713498 0.484299 -0.422795
O5    O     O_2   0.606143 0.780475 0.313733 -0.257064
O6    O     O_2   0.529049 0.825587 0.150389 -0.253329
O7    O     O_3   0.606051 0.991972 0.186398 -0.514005
O8    O     O_2   0.101099 0.150272 0.718718 -0.121932
O9    O     O_2   0.014823 0.044232 0.651522 -0.286339
O10   O     O_3   0.093208 0.077123 0.466018 -0.422799
O11   O     O_2   0.346799 0.511916 0.148834 -0.219967
O12   O     O_2   0.850952 0.285550 0.530145 -0.439637
O13   O     O_2   0.278357 0.679704 0.153418 -0.207013
O14   O     O_3   0.375790 0.712556 0.270200 -0.463856
O15   O     O_2   0.200013 0.300494 0.808455 -0.191776
O16   O     O_2   0.250226 0.470382 0.915044 -0.211214
O17   O     O_3   0.148516 0.510735 0.822677 -0.487362
O18   O     O_2   0.826394 0.624428 0.192625 -0.179543
O19   O     O_2   0.842835 0.403850 0.213227 -0.243517
O20   O     O_3   0.753054 0.479526 0.081981 -0.500736
O21   O     O_2   0.150780 0.291505 0.522556 -0.350993
O22   O     O_2   0.147461 0.720277 0.520227 -0.418721
O23   O     O_R   0.499990 0.321920 0.382900 -0.524620
O24   O     O_R   0.417890 0.499980 0.617100 -0.505401
O25   O     O_R   0.417870 0.499940 0.382950 -0.428138
O26   O     O_R   0.500010 0.678080 0.617100 -0.503366
O27   O     O_R   0.499990 0.678040 0.382960 -0.407492
S1    S     S_3+6 0.567024 0.878324 0.258404 0.051724
S2    S     S_3+6 0.059372 0.134378 0.603645 0.096828
S3    S     S_3+6 0.323381 0.613270 0.234903 0.085409
S4    S     S_3+6 0.210380 0.436320 0.801300 0.094555
S5    S     S_3+6 0.798084 0.502011 0.213342 0.076143

loop_
_geom_bond_atom_site_label_1
_geom_bond_atom_site_label_2
_ccdc_geom_bond_type
C2    C35   A    
C1    O23   A    
C16   O26   A    
C24   H2    S    
C35   C36   A    
O10   S2    S    
O9    S2    D    
C22   H17   S    
C5    S3    S    
H10   O20   S    
C7    C8    A    
C1    C21   S    
C12   C23   A    
C29   C30   A    
C12   C28   A    
C7    H5    S    
Cu2   O23   S    
C36   C37   A    
C18   C19   D    
C5    C6    A    
O17   S4    S    
C2    N2    A    
C10   C17   A    
H8    O14   S    
O13   S3    D    
Cu2   N4    S    
C34   C35   A    
O20   S5    S    
H9    O17   S    
C14   H12   S    
O7    S1    S    
C8    C9    A    
C23   C33   A    
Cu2   O3    S    
C25   O3    A    
C1    O1    A    
Cu2   O25   S    
O5    S1    D    
C26   N1    A    
Cu1   O26   S    
H18   N3    S    
C13   C14   A    
Cu1   O1    S    
C31   N4    S    
C13   C25   S    
C8    S4    S    
Cu1   O24   S    
C20   H15   S    
Cu1   N3    S    
C3    H4    S    
O18   S5    D    
C38   O21   S    
C31   N5    T    
C32   N6    T    
C4    C6    S    
Cu1   Cu2   S    
C29   C34   A    
C23   S2    S    
C30   C37   A    
O15   S4    D    
C12   H1    S    
C3    C9    A    
C10   S5    S    
C33   C34   A    
C32   C37   S    
O16   S4    D    
H6    O7    S    
C17   N1    S    
C38   N2    A    
O8    S2    D    
C19   H14   S    
C26   C30   A    
Cu1   O2    S    
C22   C24   S    
C27   O12   S    
C15   H13   S    
C4    O25   A    
C15   C17   A    
C28   C29   A    
C24   N4    D    
O6    S1    D    
C25   O2    A    
H7    O10   S    
C3    C5    A    
C21   H16   S    
C6    C7    A    
C4    O24   A    
C33   C38   A    
C9    N2    S    
C26   O4    S    
C18   S1    S    
C27   N1    A    
C22   N3    D    
C11   C13   A    
O14   S3    S    
C16   C19   S    
O19   S5    D    
C2    O22   S    
C18   C20   S    
Cu2   O27   S    
C11   H11   S    
C10   C11   A    
C20   C21   D    
C16   O27   A    
C27   C28   A    
C14   C15   A    
C36   H3    S    
O11   S3    D    
