data_mof_unit_58446.cif
_audit_creation_date              2013-03-05T16:42:23-0500
_audit_creation_method            fapswitch 2.2
_symmetry_space_group_name_H-M    P1
_symmetry_Int_Tables_number       1
_space_group_crystal_system       triclinic
_cell_length_a                    9.893844
_cell_length_b                    10.744679
_cell_length_c                    15.564489
_cell_angle_alpha                 91.614343
_cell_angle_beta                  69.207369
_cell_angle_gamma                 88.879376
_cell_volume                      1545.45177321

loop_
_atom_site_label
_atom_site_type_symbol
_atom_site_description
_atom_site_fract_x
_atom_site_fract_y
_atom_site_fract_z
_atom_type_partial_charge
O1    O     O_R   0.385310 0.683210 0.499990 -0.620639
O2    O     O_R   0.614650 0.683240 0.500000 -0.620025
C1    C     C_R   0.501131 0.739821 0.495821 0.875122
O3    O     O_R   0.319830 0.499970 0.632240 -0.614433
O4    O     O_R   0.549170 0.500000 0.632250 -0.612852
C2    C     C_R   0.410574 0.498080 0.675103 0.860068
Zn1   Zn    Zn3+2 0.346870 0.499980 0.499990 0.992052
Zn2   Zn    Zn3+2 0.653130 0.500020 0.500010 0.963694
O5    O     O_R   0.385350 0.316760 0.500000 -0.568442
O6    O     O_R   0.614690 0.316790 0.500010 -0.616579
O7    O     O_R   0.450830 0.500000 0.367750 -0.594181
O8    O     O_R   0.680170 0.500030 0.367760 -0.626372
C3    C     C_R   0.500735 0.260130 0.500846 0.905304
C4    C     C_R   0.590115 0.501742 0.324599 0.900996
C5    C     C_R   0.361124 0.475039 0.772824 -0.050848
C6    C     C_R   0.647224 0.504482 0.224228 -0.097695
C7    C     C_R   0.213795 0.361320 0.902954 -0.163488
C8    C     C_R   0.237836 0.406558 0.815776 -0.189155
C9    C     C_R   0.456377 0.501395 0.817975 -0.218254
C10   C     C_R   0.441534 0.448365 0.901242 0.100694
C11   C     C_R   0.315121 0.381508 0.945897 0.176661
C12   C     C_R   0.547720 0.463014 0.941988 0.076627
C13   C     C_R   0.513849 0.430778 0.034143 0.081698
C14   C     C_R   0.389367 0.360743 0.076337 -0.207063
C15   C     C_R   0.292350 0.335449 0.032392 -0.200577
C16   C     C_R   0.687447 0.506057 0.893265 -0.225001
C17   C     C_R   0.784377 0.531053 0.937464 -0.197234
C18   C     C_R   0.743220 0.518361 0.032364 0.114245
C19   C     C_R   0.605937 0.469218 0.081067 0.067686
C20   C     C_R   0.833333 0.556441 0.080743 0.150292
C21   C     C_R   0.786176 0.545632 0.176045 -0.214072
C22   C     C_R   0.558336 0.469680 0.176675 -0.240385
H1    H     H_    0.198112 0.281620 0.066911 0.162361
H2    H     H_    0.448283 0.449927 0.215527 0.187891
H3    H     H_    0.855117 0.575665 0.212863 0.183837
H4    H     H_    0.889825 0.563589 0.896795 0.177145
H5    H     H_    0.117837 0.308821 0.936006 0.150667
H6    H     H_    0.163762 0.384179 0.780821 0.167941
H7    H     H_    0.543973 0.562045 0.785604 0.138917
H8    H     H_    0.368016 0.320163 0.142025 0.180177
H9    H     H_    0.726380 0.516676 0.819968 0.147361
C23   C     C_R   0.380360 0.940160 0.491905 0.053906
C24   C     C_R   0.506466 0.871010 0.481720 -0.120193
C25   C     C_R   0.638031 0.931674 0.461618 -0.188119
H10   H     H_    0.739398 0.880127 0.447091 0.185158
C26   C     C_R   0.637576 0.060661 0.467129 -0.187908
H11   H     H_    0.738968 0.106861 0.453958 0.192548
C27   C     C_R   0.505316 0.127883 0.494519 -0.144455
C28   C     C_R   0.378433 0.067403 0.503622 0.139129
C29   C     C_3   0.239077 0.067184 0.584886 -0.042249
C30   C     C_3   0.232412 0.929738 0.561510 -0.293811
H12   H     H_    0.259701 0.081191 0.650273 0.130351
H13   H     H_    0.226293 0.867865 0.618680 0.139804
C31   C     C_R   0.885327 0.533998 0.577563 0.238448
N1    N     N_R   0.856900 0.500860 0.500610 -0.123504
C32   C     C_R   0.967093 0.444649 0.429817 -0.146010
H14   H     H_    0.943608 0.398661 0.374206 0.168352
C33   C     C_R   0.109746 0.439692 0.431354 0.227775
N2    N     N_R   0.142540 0.500820 0.500610 -0.122660
C34   C     C_R   0.026365 0.529964 0.578647 0.205324
C35   C     C_3   0.999396 0.643165 0.639556 -0.510257
C36   C     C_3   0.850176 0.654355 0.631954 -0.492087
H15   H     H_    0.995287 0.620679 0.709726 0.203923
H16   H     H_    0.073298 0.716799 0.608073 0.214999
H17   H     H_    0.760821 0.647860 0.698838 0.192537
H18   H     H_    0.838320 0.733359 0.590318 0.226354
I1    I     I_    0.034083 0.643560 0.018412 -0.409066
I2    I     I_    0.061207 0.186137 0.585275 -0.360265
C37   C     C_1   0.132044 0.901994 0.512861 0.317244
N3    N     N_1   0.054048 0.880376 0.474195 -0.208837
I3    I     I_    0.247219 0.301194 0.342177 -0.370573

loop_
_geom_bond_atom_site_label_1
_geom_bond_atom_site_label_2
_geom_bond_distance
_ccdc_geom_bond_type
O4    Zn2   1.947131 S    
C29   H12   1.113563 S    
C13   C14   1.415715 A    
C14   C15   1.388848 A    
C17   H4    1.081293 S    
C6    C22   1.385812 A    
C30   C37   1.476833 S    
C31   N1    1.363641 A    
C5    C8    1.400035 A    
C20   I1    2.125601 S    
Zn2   O8    1.979301 S    
C23   C30   1.488701 S    
C24   C25   1.404513 A    
N1    C32   1.360643 A    
C18   C20   1.415227 A    
C7    C8    1.395169 A    
C8    H6    1.083299 S    
N2    C34   1.366669 A    
C7    H5    1.083858 S    
C10   C11   1.417560 A    
C6    C21   1.399419 A    
Zn1   O7    1.947131 S    
C1    C24   1.431783 S    
C16   C17   1.390372 A    
C35   C36   1.525117 S    
C30   H13   1.110888 S    
C9    H7    1.077117 S    
C35   H15   1.111996 S    
O3    Zn1   1.979304 S    
C11   C15   1.390902 A    
O4    C2    1.295432 A    
C13   C19   1.415712 A    
Zn2   N1    2.019598 S    
Zn1   N2    2.018045 S    
C18   C19   1.420528 A    
C14   H8    1.074909 S    
C32   C33   1.420033 A    
C29   C30   1.519296 S    
C19   C22   1.392187 A    
O2    C1    1.289437 A    
C37   N3    1.157792 T    
O1    Zn1   2.012435 S    
C20   C21   1.397101 A    
O7    C4    1.301956 A    
C4    C6    1.461914 S    
C33   I3    2.110718 S    
C33   N2    1.383969 A    
C35   H16   1.091238 S    
C15   H1    1.084182 S    
C23   C24   1.396623 A    
C36   H18   1.111472 S    
C23   C28   1.373054 A    
C26   C27   1.401912 A    
C26   H11   1.083500 S    
O8    C4    1.292481 A    
C32   H14   1.081917 S    
O3    C2    1.294940 A    
C28   C29   1.504316 S    
C12   C16   1.414412 A    
O2    Zn2   1.997806 S    
C17   C18   1.397373 A    
Zn1   O5    1.997807 S    
C21   H3    1.083277 S    
O5    C3    1.287489 A    
C12   C13   1.407444 A    
C27   C28   1.388923 A    
C31   C34   1.401322 A    
C31   C36   1.490533 S    
C36   H17   1.106012 S    
O1    C1    1.289969 A    
C2    C5    1.453149 S    
C5    C9    1.389843 A    
C29   I2    2.152820 S    
O6    C3    1.287951 A    
Zn2   O6    2.012435 S    
C7    C11   1.405294 A    
C25   H10   1.083476 S    
C9    C10   1.391269 A    
C16   H9    1.077009 S    
C10   C12   1.415840 A    
C34   C35   1.480569 S    
C25   C26   1.385993 A    
C3    C27   1.420313 S    
C22   H2    1.070090 S    
