data_mof_unit_68063.cif
_audit_creation_date              2012-12-11T14:39:32-0500
_audit_creation_method            fapswitch 2.2
_symmetry_space_group_name_H-M    P1
_symmetry_Int_Tables_number       1
_space_group_crystal_system       monoclinic
_cell_length_a                    7.228554
_cell_length_b                    13.768909
_cell_length_c                    16.738524
_cell_angle_alpha                 90.0
_cell_angle_beta                  96.20827
_cell_angle_gamma                 90.0
_cell_volume                      1656.20328708

loop_
_atom_site_label
_atom_site_type_symbol
_atom_type_description
_atom_site_fract_x
_atom_site_fract_y
_atom_site_fract_z
_atom_type_partial_charge
O1    O     O_R   0.525340 0.338340 0.164530 -0.544359
O2    O     O_R   0.474660 0.661660 0.835470 -0.556963
O3    O     O_R   0.974660 0.838340 0.835470 -0.544358
O4    O     O_R   0.025340 0.161660 0.164530 -0.556963
O5    O     O_R   0.253520 0.352000 0.336710 -0.522116
O6    O     O_R   0.746480 0.648000 0.663290 -0.515665
O7    O     O_R   0.246480 0.852000 0.663290 -0.522115
O8    O     O_R   0.753520 0.148000 0.336710 -0.515665
O9    O     O_R   0.083330 0.168380 0.337300 -0.533963
O10   O     O_R   0.916670 0.831620 0.662700 -0.512110
O11   O     O_R   0.416670 0.668380 0.662700 -0.533963
O12   O     O_R   0.583330 0.331620 0.337300 -0.512111
C1    C     C_R   0.432470 0.372169 0.361352 0.677564
C2    C     C_R   0.568784 0.629773 0.636600 0.660138
C3    C     C_R   0.067530 0.872170 0.638648 0.677563
C4    C     C_R   0.931215 0.129773 0.363400 0.660138
O13   O     O_R   0.195840 0.349670 0.165140 -0.508946
O14   O     O_R   0.804160 0.650330 0.834860 -0.526438
O15   O     O_R   0.304160 0.849670 0.834860 -0.508946
O16   O     O_R   0.695840 0.150330 0.165140 -0.526438
C5    C     C_R   0.358235 0.370714 0.137010 0.695007
C6    C     C_R   0.640950 0.628261 0.862945 0.673073
C7    C     C_R   0.141765 0.870714 0.862990 0.695007
C8    C     C_R   0.859050 0.128261 0.137054 0.673073
O17   O     O_3   0.387830 0.193120 0.250910 -0.366362
O18   O     O_3   0.612170 0.806880 0.749090 -0.329277
O19   O     O_3   0.112170 0.693120 0.749090 -0.366362
O20   O     O_3   0.887830 0.306880 0.250910 -0.329277
V1    V     V_3+5 0.113010 0.264540 0.250910 1.635198
V2    V     V_3+5 0.886990 0.735460 0.749090 1.634265
V3    V     V_3+5 0.386990 0.764540 0.749090 1.635198
V4    V     V_3+5 0.613010 0.235460 0.250910 1.634265
C9    C     C_R   0.992117 0.206528 0.529423 -0.121481
C10   C     C_R   0.019576 0.791167 0.474836 -0.119384
C11   C     C_R   0.507883 0.706528 0.470577 -0.121481
C12   C     C_R   0.480424 0.291167 0.525164 -0.119384
C13   C     C_R   0.026281 0.241624 0.608732 -0.091889
C14   C     C_R   0.002214 0.752841 0.396777 -0.113526
C15   C     C_R   0.473718 0.741624 0.391268 -0.091888
C16   C     C_R   0.497785 0.252841 0.603223 -0.113526
C17   C     C_R   0.025054 0.178109 0.673214 -0.114167
C18   C     C_R   0.959086 0.813078 0.331341 -0.101438
C19   C     C_R   0.474944 0.678109 0.326786 -0.114167
C20   C     C_R   0.540913 0.313078 0.668659 -0.101438
C21   C     C_R   0.990844 0.079011 0.658881 -0.084272
C22   C     C_R   0.936891 0.913447 0.342556 -0.034706
C23   C     C_R   0.509155 0.579011 0.341119 -0.084272
C24   C     C_R   0.563108 0.413448 0.657444 -0.034706
C25   C     C_R   0.998938 0.038477 0.580164 0.069265
C26   C     C_R   0.967752 0.958024 0.420938 0.026825
C27   C     C_R   0.501062 0.538477 0.419836 0.069265
C28   C     C_R   0.532248 0.458025 0.579061 0.026826
C29   C     C_R   0.985148 0.103025 0.512982 0.022566
C30   C     C_R   0.005939 0.894876 0.488941 0.024936
C31   C     C_R   0.514852 0.603025 0.487018 0.022566
C32   C     C_R   0.494061 0.394875 0.511059 0.024936
C33   C     C_R   0.025682 0.936488 0.568043 -0.105038
C34   C     C_R   0.962448 0.062316 0.433206 -0.124570
C35   C     C_R   0.474318 0.436488 0.431957 -0.105038
C36   C     C_R   0.537551 0.562316 0.566793 -0.124571
C37   C     C_2   0.140044 0.944534 0.928524 -0.221015
C38   C     C_2   0.860990 0.056376 0.069135 -0.179678
C39   C     C_2   0.359956 0.444534 0.071476 -0.221013
C40   C     C_2   0.639010 0.556377 0.930866 -0.179679
C41   C     C_2   0.026923 0.933525 0.988839 -0.071487
C42   C     C_2   0.019793 0.005463 0.055181 -0.120736
C43   C     C_2   0.473078 0.433525 0.011161 -0.071487
C44   C     C_2   0.480207 0.505463 0.944819 -0.120736
C45   C     C_1   0.940672 0.770796 0.251011 0.357453
N1    N     N_1   0.926245 0.736902 0.187400 -0.242627
C46   C     C_1   0.045619 0.216395 0.754759 0.351036
N2    N     N_1   0.061992 0.247047 0.819528 -0.287176
C47   C     C_1   0.559327 0.270796 0.748989 0.357454
N3    N     N_1   0.573753 0.236902 0.812600 -0.242628
C48   C     C_1   0.454379 0.716395 0.245240 0.351036
N4    N     N_1   0.438005 0.747047 0.180472 -0.287176
C49   C     C_1   0.963479 0.281815 0.468887 0.267668
N5    N     N_1   0.940698 0.344475 0.422899 -0.237122
C50   C     C_1   0.045936 0.717530 0.536860 0.275889
N6    N     N_1   0.065538 0.655393 0.583418 -0.261791
C51   C     C_1   0.536521 0.781815 0.531113 0.267668
N7    N     N_1   0.559302 0.844475 0.577100 -0.237123
C52   C     C_1   0.454064 0.217530 0.463140 0.275889
N8    N     N_1   0.434462 0.155393 0.416582 -0.261791
C53   C     C_1   0.051735 0.345201 0.624578 0.334979
N9    N     N_1   0.071970 0.427388 0.637100 -0.282790
C54   C     C_1   0.031036 0.649469 0.383406 0.340568
N10   N     N_1   0.055789 0.567576 0.373480 -0.254455
C55   C     C_1   0.448264 0.845201 0.375422 0.334979
N11   N     N_1   0.428029 0.927388 0.362900 -0.282791
C56   C     C_1   0.468963 0.149469 0.616594 0.340568
N12   N     N_1   0.444210 0.067576 0.626520 -0.254455
C57   C     C_2   0.913218 0.025875 0.724384 0.425469
H1    H     H_    0.982239 0.028865 0.784771 0.054220
O21   O     O_2   0.761045 0.987310 0.712812 -0.471705
C58   C     C_2   0.884905 0.967912 0.268759 0.375304
H2    H     H_    0.991102 0.009708 0.244275 0.023608
O22   O     O_2   0.728286 0.961052 0.233761 -0.505145
C59   C     C_2   0.586782 0.525875 0.275616 0.425469
H3    H     H_    0.517762 0.528865 0.215229 0.054222
O23   O     O_2   0.738955 0.487310 0.287188 -0.471705
C60   C     C_2   0.615094 0.467912 0.731241 0.375305
H4    H     H_    0.508897 0.509709 0.755725 0.023608
O24   O     O_2   0.771714 0.461052 0.766239 -0.505145
C61   C     C_1   0.187554 0.006350 0.111190 0.278571
N13   N     N_1   0.321686 0.006097 0.155704 -0.268535
C62   C     C_1   0.922311 0.845001 0.997157 0.423544
N14   N     N_1   0.837638 0.774827 0.004066 -0.354524
C63   C     C_1   0.312447 0.506349 0.888810 0.278571
N15   N     N_1   0.178315 0.506096 0.844296 -0.268535
C64   C     C_1   0.577691 0.345001 0.002844 0.423543
N16   N     N_1   0.662364 0.274828 0.995934 -0.354524
C65   C     C_2   0.684850 0.047212 0.014919 0.505783
H5    H     H_    0.556050 0.073167 0.034849 0.042329
O25   O     O_2   0.681743 0.014695 0.946962 -0.493085
C66   C     C_2   0.244457 0.036539 0.920307 0.441535
H6    H     H_    0.243393 0.093905 0.964617 0.052739
O26   O     O_2   0.328936 0.050643 0.862021 -0.490995
C67   C     C_2   0.815148 0.547214 0.985082 0.505785
H7    H     H_    0.943949 0.573171 0.965152 0.042328
O27   O     O_2   0.818254 0.514698 0.053040 -0.493084
C68   C     C_2   0.255543 0.536539 0.079692 0.441532
H8    H     H_    0.256608 0.593905 0.035382 0.052739
O28   O     O_2   0.171064 0.550642 0.137978 -0.490995

loop_
_geom_bond_atom_site_label_1
_geom_bond_atom_site_label_2
_ccdc_geom_bond_type
C54   N10   T    
O1    C5    A    
C57   H1    S    
O13   V1    S    
C47   N3    T    
O3    C7    A    
C64   N16   T    
C21   C57   S    
C51   N7    T    
C11   C51   S    
C25   C33   A    
C53   N9    T    
C26   C30   A    
C40   C67   S    
C40   C44   D    
C13   C53   S    
O20   V1    S    
O9    C4    A    
C14   C18   A    
O10   C3    A    
O4    C8    A    
O11   C2    A    
C12   C52   S    
C23   C59   S    
C66   H6    S    
C18   C22   A    
C28   C36   A    
C52   N8    T    
C58   O22   D    
O2    C6    A    
C62   N14   T    
O14   V2    S    
C16   C20   A    
O5    C1    A    
O4    V1    S    
O9    V1    S    
C17   C46   S    
C41   C62   S    
O17   V4    S    
O7    C3    A    
O15   V3    S    
O18   V3    S    
C57   O21   D    
C10   C14   A    
C31   C36   A    
O12   V4    S    
O19   V2    S    
C19   C48   S    
C3    C33   S    
C20   C47   S    
O5    V1    S    
C67   O27   D    
C9    C29   A    
C39   C43   D    
O7    V3    S    
C38   C42   D    
C11   C31   A    
C43   C44   S    
C26   C34   A    
O16   C8    A    
C12   C16   A    
C38   C65   S    
C56   N12   T    
O15   C7    A    
C15   C19   A    
C49   N5    T    
C6    C40   S    
C18   C45   S    
O13   C5    A    
O2    V3    S    
O8    V4    S    
O3    V2    S    
C11   C15   A    
C48   N4    T    
C12   C32   A    
C10   C50   S    
O6    C2    A    
O10   V2    S    
C59   H3    S    
C21   C25   A    
C67   H7    S    
C24   C60   S    
C58   H2    S    
C37   C66   S    
C4    C34   S    
C60   O24   D    
C43   C64   S    
O6    V2    S    
C10   C30   A    
C27   C35   A    
C42   C61   S    
C68   O28   D    
C39   C68   S    
C9    C13   A    
C65   H5    S    
O16   V4    S    
C7    C37   S    
C8    C38   S    
C59   O23   D    
O14   C6    A    
C23   C27   A    
C29   C34   A    
C1    C35   S    
C2    C36   S    
C61   N13   T    
C22   C26   A    
C32   C35   A    
C14   C54   S    
C68   H8    S    
C46   N2    T    
C63   N15   T    
C9    C49   S    
C28   C32   A    
C25   C29   A    
C66   O26   D    
C27   C31   A    
C44   C63   S    
O1    V4    S    
C16   C56   S    
C13   C17   A    
C60   H4    S    
C45   N1    T    
C5    C39   S    
O11   V3    S    
C50   N6    T    
C37   C41   D    
C24   C28   A    
C22   C58   S    
O12   C1    A    
O8    C4    A    
C41   C42   S    
C17   C21   A    
C55   N11   T    
C19   C23   A    
C15   C55   S    
C20   C24   A    
C65   O25   D    
C30   C33   A    
