data_mof_unit_33619.cif
_audit_creation_date              2012-12-10T18:04:45-0500
_audit_creation_method            fapswitch 2.2
_symmetry_space_group_name_H-M    P1
_symmetry_Int_Tables_number       1
_space_group_crystal_system       triclinic
_cell_length_a                    19.62099
_cell_length_b                    17.888017
_cell_length_c                    12.636379
_cell_angle_alpha                 90.258342
_cell_angle_beta                  98.952539
_cell_angle_gamma                 89.709865
_cell_volume                      4381.00614223

loop_
_atom_site_label
_atom_site_type_symbol
_atom_type_description
_atom_site_fract_x
_atom_site_fract_y
_atom_site_fract_z
_atom_type_partial_charge
C1    C     C_R   0.408536 0.099022 0.442273 0.865180
C2    C     C_R   0.765458 0.767094 0.640022 0.139615
C3    C     C_R   0.256892 0.749542 0.656571 0.129336
C4    C     C_R   0.270127 0.274929 0.632969 0.138894
C5    C     C_R   0.321285 0.783295 0.687647 0.079771
C6    C     C_R   0.340663 0.258465 0.642818 0.078043
C7    C     C_R   0.839984 0.245619 0.655305 0.077975
C8    C     C_R   0.835766 0.748781 0.655275 0.075487
C9    C     C_R   0.361224 0.800708 0.608214 -0.231269
C10   C     C_R   0.365552 0.222036 0.559698 -0.246070
C11   C     C_R   0.866078 0.281033 0.572467 -0.246480
C12   C     C_R   0.413182 0.895325 0.445866 0.864529
C13   C     C_R   0.863774 0.716997 0.571407 -0.243015
C14   C     C_R   0.662334 0.206964 0.518869 0.037679
C15   C     C_R   0.659753 0.790991 0.514926 0.041196
C16   C     C_R   0.191458 0.672361 0.521622 0.049281
C17   C     C_R   0.158812 0.289959 0.517908 0.033527
C18   C     C_R   0.680695 0.149584 0.695496 -0.267974
C19   C     C_R   0.675939 0.843698 0.695168 -0.272179
C20   C     C_R   0.157755 0.681684 0.698026 -0.270188
C21   C     C_R   0.181997 0.351743 0.691870 -0.270213
C22   C     C_R   0.364060 0.834266 0.416651 -0.143257
C23   C     C_R   0.909269 0.600221 0.442649 0.878336
C24   C     C_R   0.345945 0.140700 0.402658 -0.093446
C25   C     C_R   0.847196 0.355335 0.407431 -0.130171
C26   C     C_R   0.848852 0.645944 0.403721 -0.129778
C27   C     C_R   0.641719 0.990576 0.131212 -0.369559
C28   C     C_R   0.141040 0.491541 0.128217 -0.283878
C29   C     C_R   0.379078 0.001169 0.761246 -0.227371
C30   C     C_R   0.879054 0.500369 0.761111 -0.223136
C31   C     C_R   0.352203 0.992154 0.856244 0.417585
C32   C     C_R   0.852467 0.492599 0.856439 0.404212
C33   C     C_R   0.588929 0.897954 0.556056 0.867245
C34   C     C_R   0.909245 0.399533 0.443183 0.874228
C35   C     C_R   0.589520 0.101433 0.556722 0.871982
C36   C     C_R   0.089164 0.398298 0.556225 0.876431
C37   C     C_R   0.091571 0.599413 0.557777 0.859829
C38   C     C_R   0.397844 0.982726 0.951711 0.391640
C39   C     C_R   0.898598 0.485306 0.951681 0.400149
C40   C     C_R   0.470461 0.991179 0.953276 -0.202804
C41   C     C_R   0.970659 0.496060 0.952866 -0.196847
C42   C     C_R   0.494177 0.996226 0.853572 0.173952
C43   C     C_R   0.994207 0.499639 0.853144 0.171733
C44   C     C_R   0.520441 0.993952 0.047761 0.014654
C45   C     C_R   0.725674 0.245783 0.544874 0.001865
C46   C     C_R   0.020415 0.499826 0.047080 0.018662
C47   C     C_R   0.591917 0.991237 0.039493 0.197060
C48   C     C_R   0.091571 0.497002 0.037836 0.165693
C49   C     C_R   0.613204 0.991506 0.939784 -0.287965
C50   C     C_R   0.112982 0.497677 0.938353 -0.292608
C51   C     C_R   0.564853 0.996233 0.848302 -0.164192
C52   C     C_R   0.064676 0.500607 0.847198 -0.158869
C53   C     C_R   0.502964 0.003092 0.150413 -0.106491
C54   C     C_R   0.003144 0.507702 0.150441 -0.108657
C55   C     C_R   0.620594 0.993980 0.230951 0.277529
C56   C     C_R   0.723012 0.751423 0.539799 0.001619
C57   C     C_R   0.120420 0.488724 0.227491 0.230734
C58   C     C_R   0.744328 0.183975 0.719561 -0.168146
C59   C     C_R   0.738491 0.807090 0.719796 -0.177002
C60   C     C_R   0.215168 0.726689 0.731383 -0.181373
C61   C     C_R   0.246002 0.317897 0.712620 -0.174718
C62   C     C_R   0.642867 0.156113 0.592768 -0.045762
C63   C     C_R   0.640329 0.840986 0.590684 -0.041770
C64   C     C_R   0.146972 0.652362 0.593415 -0.054872
C65   C     C_R   0.141935 0.343057 0.591485 -0.039950
C66   C     C_R   0.338415 0.819754 0.307552 0.116082
C67   C     C_R   0.236432 0.731750 0.547428 0.004426
C68   C     C_R   0.301681 0.111401 0.313815 0.082079
C69   C     C_R   0.802149 0.379994 0.316525 0.088466
C70   C     C_R   0.807589 0.625923 0.306047 0.109535
C71   C     C_R   0.272781 0.789101 0.280472 -0.181055
C72   C     C_R   0.230909 0.122142 0.306965 -0.196825
C73   C     C_R   0.731164 0.372983 0.313291 -0.178284
C74   C     C_R   0.736330 0.635071 0.296446 -0.186596
C75   C     C_R   0.236277 0.767345 0.360240 -0.228484
C76   C     C_R   0.204780 0.162938 0.385423 -0.224418
C77   C     C_R   0.705735 0.335938 0.394626 -0.228845
C78   C     C_R   0.224127 0.253592 0.538363 0.004347
C79   C     C_R   0.707740 0.668664 0.378531 -0.231780
C80   C     C_R   0.268228 0.765672 0.468103 0.077707
C81   C     C_R   0.248645 0.203674 0.464446 0.089110
C82   C     C_R   0.750208 0.295799 0.472901 0.085995
C83   C     C_R   0.749648 0.704718 0.464623 0.087515
C84   C     C_R   0.332174 0.800195 0.497863 0.034349
C85   C     C_R   0.320365 0.190471 0.473929 0.027017
C86   C     C_R   0.821719 0.309370 0.483105 0.040750
C87   C     C_R   0.821204 0.690663 0.478820 0.031940
C88   C     C_R   0.769828 0.226755 0.641726 0.141772
H1    H     H_    0.664724 0.111499 0.753288 0.159776
H2    H     H_    0.951327 0.519148 0.164109 0.205067
H3    H     H_    0.345058 0.005159 0.685381 0.175711
H4    H     H_    0.844969 0.502710 0.685143 0.174044
H5    H     H_    0.584103 0.999826 0.774037 0.202970
H6    H     H_    0.083885 0.501817 0.772833 0.206047
H7    H     H_    0.775506 0.172086 0.796176 0.171485
H8    H     H_    0.768212 0.816008 0.798480 0.171049
H9    H     H_    0.227035 0.742601 0.814980 0.171167
H10   H     H_    0.278710 0.331164 0.787458 0.172006
H11   H     H_    0.651233 0.340463 0.395833 0.146604
H12   H     H_    0.659333 0.880505 0.754604 0.163579
H13   H     H_    0.652888 0.663829 0.374025 0.146384
H14   H     H_    0.182984 0.751534 0.336875 0.148152
H15   H     H_    0.150318 0.158284 0.385061 0.146753
H16   H     H_    0.248958 0.783959 0.197509 0.149036
H17   H     H_    0.195760 0.094084 0.244937 0.152663
H18   H     H_    0.695338 0.398560 0.249713 0.142967
H19   H     H_    0.702503 0.612601 0.227888 0.142205
H20   H     H_    0.414696 0.814992 0.634192 0.174315
H21   H     H_    0.420957 0.215389 0.565626 0.148756
H22   H     H_    0.921418 0.288534 0.580673 0.153747
H23   H     H_    0.125009 0.665721 0.755607 0.174301
H24   H     H_    0.919327 0.710286 0.581361 0.154965
H25   H     H_    0.402086 0.917096 0.070101 0.324816
H26   H     H_    0.905664 0.416913 0.066749 0.315815
H27   H     H_    0.257387 0.993378 0.783217 0.320169
H28   H     H_    0.757555 0.491143 0.784014 0.319840
H29   H     H_    0.393642 0.825499 0.807502 0.185786
H30   H     H_    0.361427 0.741686 0.832071 0.173491
H31   H     H_    0.414248 0.235640 0.769146 0.199774
H32   H     H_    0.424361 0.317844 0.708031 0.188415
H33   H     H_    0.909717 0.272853 0.784453 0.200275
H34   H     H_    0.167367 0.391186 0.749747 0.159175
H35   H     H_    0.924365 0.189830 0.727413 0.186803
H36   H     H_    0.904045 0.717994 0.784378 0.195830
H37   H     H_    0.918415 0.803204 0.735066 0.188271
H38   H     H_    0.653523 0.206611 0.352579 0.205681
H39   H     H_    0.584849 0.249364 0.405462 0.170208
H40   H     H_    0.583206 0.748670 0.399981 0.166446
H41   H     H_    0.649844 0.796270 0.348761 0.202448
H42   H     H_    0.257023 0.617191 0.434235 0.194324
H43   H     H_    0.176242 0.634836 0.365273 0.201930
H44   H     H_    0.078720 0.238888 0.420106 0.171193
H45   H     H_    0.667550 0.990613 0.932498 0.144071
H46   H     H_    0.138087 0.284779 0.351710 0.196867
H47   H     H_    0.351131 0.821772 0.150176 0.188179
H48   H     H_    0.422882 0.807188 0.237268 0.177095
H49   H     H_    0.304393 0.010266 0.242101 0.214903
H50   H     H_    0.312065 0.084161 0.161803 0.217836
H51   H     H_    0.788229 0.433769 0.172662 0.228566
H52   H     H_    0.855514 0.375096 0.196951 0.200315
H53   H     H_    0.798724 0.575311 0.158373 0.207334
H54   H     H_    0.868784 0.628099 0.192414 0.184479
H55   H     H_    0.698960 0.943203 0.326476 0.164657
H56   H     H_    0.167308 0.496260 0.930905 0.146032
H57   H     H_    0.703763 0.037519 0.324248 0.163652
H58   H     H_    0.164058 0.497368 0.383715 0.256667
H59   H     H_    0.166686 0.411161 0.329116 0.204358
H60   H     H_    0.696275 0.987713 0.125664 0.145095
H61   H     H_    0.195265 0.485195 0.121687 0.154490
H62   H     H_    0.451119 0.014200 0.164179 0.204787
N1    N     N_R   0.552340 1.000000 0.237260 -0.106468
N2    N     N_3   0.619546 0.791583 0.409470 -0.452806
N3    N     N_3   0.204386 0.620496 0.439393 -0.461306
N4    N     N_3   0.112491 0.283628 0.418212 -0.462240
N5    N     N_3   0.377428 0.838871 0.224677 -0.426577
N6    N     N_3   0.327406 0.062633 0.238651 -0.417246
N7    N     N_3   0.828645 0.416687 0.231657 -0.396002
N8    N     N_3   0.837093 0.589247 0.222369 -0.410738
N9    N     N_3   0.670190 0.992559 0.326584 -0.386024
N10   N     N_3   0.171576 0.468205 0.315679 -0.470838
N11   N     N_R   0.052340 0.500000 0.237260 -0.123434
N12   N     N_R   0.448170 0.000000 0.762060 -0.144197
N13   N     N_R   0.948170 0.500000 0.762060 -0.142986
N14   N     N_3   0.348193 0.794255 0.799073 -0.444141
N15   N     N_3   0.388078 0.282706 0.734436 -0.476742
N16   N     N_3   0.885969 0.224428 0.750083 -0.474460
N17   N     N_3   0.880035 0.767213 0.753150 -0.477972
N18   N     N_3   0.622660 0.207627 0.412927 -0.445958
O1    O     O_R   0.448200 0.076800 0.373930 -0.591662
O2    O     O_R   0.585240 0.076800 0.457600 -0.568392
O3    O     O_R   0.085240 0.423200 0.457600 -0.614658
O4    O     O_R   0.085240 0.576800 0.457600 -0.614834
O5    O     O_R   0.551780 0.923190 0.626070 -0.654252
O6    O     O_R   0.551780 0.076810 0.626070 -0.645606
O7    O     O_R   0.051780 0.423190 0.626070 -0.643245
O8    O     O_R   0.051780 0.576810 0.626070 -0.645572
O9    O     O_3   0.370073 0.956426 0.037406 -0.740978
O10   O     O_3   0.872665 0.456462 0.037041 -0.763641
O11   O     O_3   0.282140 0.986763 0.857245 -0.711285
O12   O     O_R   0.448200 0.923200 0.373930 -0.587631
O13   O     O_3   0.782594 0.485733 0.858085 -0.722804
O14   O     O_R   0.948200 0.576800 0.373930 -0.597616
O15   O     O_R   0.948200 0.423200 0.373930 -0.587236
O16   O     O_R   0.414750 0.076790 0.542400 -0.608427
O17   O     O_R   0.414750 0.923210 0.542400 -0.619861
O18   O     O_R   0.914750 0.576790 0.542400 -0.608403
O19   O     O_R   0.914750 0.423210 0.542400 -0.607661
O20   O     O_R   0.585240 0.923200 0.457600 -0.572114
Zn1   Zn    Zn3+2 0.522330 0.000000 0.387520 0.982304
Zn2   Zn    Zn3+2 0.022330 0.500000 0.387520 0.947349
Zn3   Zn    Zn3+2 0.477660 0.000000 0.612480 0.922357
Zn4   Zn    Zn3+2 0.977660 0.500000 0.612480 0.929734

loop_
_geom_bond_atom_site_label_1
_geom_bond_atom_site_label_2
_ccdc_geom_bond_type
C17   C78   A    
C83   C87   A    
C71   H16   S    
C10   C85   A    
C8    C13   A    
H25   O9    S    
C61   H10   S    
O1    Zn1   S    
C80   C84   A    
C37   C64   S    
C37   O4    A    
C47   C49   A    
C28   C57   A    
C9    H20   S    
C7    C11   A    
H33   N16   S    
O2    Zn1   S    
H30   N14   S    
C27   H60   S    
H37   N17   S    
C35   C62   S    
C54   H2    S    
C13   H24   S    
H38   N18   S    
O12   Zn1   S    
C66   N5    S    
H57   N9    S    
C27   C55   A    
C43   C52   A    
C23   C26   S    
H58   N10   S    
H59   N10   S    
C11   C86   A    
C27   C47   A    
C14   C62   A    
C12   C22   S    
H47   N5    S    
C10   H21   S    
C4    C78   A    
C32   C39   A    
C1    O1    A    
C21   H34   S    
C7    C88   A    
C22   C66   A    
C74   H19   S    
H35   N16   S    
C44   C53   A    
H40   N2    S    
C45   C82   A    
C19   C63   A    
H39   N18   S    
H26   O10   S    
C70   C74   A    
C75   H14   S    
C50   C52   A    
C41   C46   A    
C69   C73   A    
N13   Zn4   S    
C33   O20   A    
C33   O5    A    
C24   C85   A    
H31   N15   S    
C21   C61   A    
C44   C47   A    
C68   C72   A    
C25   C34   S    
C3    C60   A    
C76   H15   S    
C55   N9    S    
C6    N15   S    
C28   H61   S    
C38   O9    S    
C68   N6    S    
C11   H22   S    
C41   C43   A    
C13   C87   A    
C20   H23   S    
C30   N13   A    
H54   N8    S    
C17   N4    S    
N12   Zn3   S    
C1    O16   A    
C50   H56   S    
H32   N15   S    
O17   Zn3   S    
C14   C45   A    
H29   N14   S    
C46   C48   A    
C71   C75   A    
C30   C32   A    
C5    N14   S    
C32   O13   S    
H43   N3    S    
C45   C88   A    
C23   O14   A    
C39   C41   A    
C60   H9    S    
O7    Zn4   S    
H48   N5    S    
C2    C59   A    
C26   C87   A    
C49   C51   A    
C82   C86   A    
C4    C61   A    
O5    Zn3   S    
C2    C56   A    
O3    Zn2   S    
C31   O11   S    
O20   Zn1   S    
C70   N8    S    
C22   C84   A    
C20   C64   A    
C58   H7    S    
C5    C9    A    
C8    N17   S    
H52   N7    S    
H36   N17   S    
C69   N7    S    
C66   C71   A    
N1    Zn1   S    
C33   C63   S    
H28   O13   S    
C46   C54   A    
O16   Zn3   S    
C57   N11   A    
C34   O15   A    
C16   C67   A    
C52   H6    S    
C48   C50   A    
H51   N7    S    
O19   Zn4   S    
C51   H5    S    
C4    C6    A    
C12   O12   A    
C57   N10   S    
C74   C79   A    
C53   H62   S    
C26   C70   A    
C20   C60   A    
C59   H8    S    
C14   N18   S    
O15   Zn2   S    
C29   H3    S    
C39   O10   S    
C56   C83   A    
C19   C59   A    
C75   C80   A    
H50   N6    S    
C55   N1    A    
C49   H45   S    
C28   C48   A    
C36   O3    A    
C15   C63   A    
C21   C65   A    
C36   C65   S    
C18   H1    S    
C29   N12   A    
C7    N16   S    
C3    C67   A    
C67   C80   A    
N11   Zn2   S    
C3    C5    A    
C58   C88   A    
C76   C81   A    
C6    C10   A    
C23   O18   A    
C19   H12   S    
C42   N12   A    
H55   N9    S    
C42   C51   A    
O14   Zn2   S    
H41   N2    S    
O6    Zn3   S    
C17   C65   A    
C31   C38   A    
O4    Zn2   S    
C15   C56   A    
H44   N4    S    
C29   C31   A    
C35   O6    A    
C1    C24   S    
C37   O8    A    
C38   C40   A    
C78   C81   A    
C73   H18   S    
H46   N4    S    
C15   N2    S    
C77   C82   A    
C72   C76   A    
C12   O17   A    
C40   C42   A    
C25   C86   A    
C18   C58   A    
C77   H11   S    
H42   N3    S    
C54   N11   A    
O18   Zn4   S    
C34   O19   A    
H27   O11   S    
O8    Zn4   S    
C24   C68   A    
C9    C84   A    
C79   C83   A    
H53   N8    S    
C40   C44   A    
C25   C69   A    
C72   H17   S    
H49   N6    S    
C36   O7    A    
C2    C8    A    
C16   N3    S    
C53   N1    A    
C35   O2    A    
C73   C77   A    
C79   H13   S    
C18   C62   A    
C16   C64   A    
C81   C85   A    
C30   H4    S    
C43   N13   A    
