data_mof_unit_59127.cif
_audit_creation_date              2012-12-10T18:43:42-0500
_audit_creation_method            fapswitch 2.2
_symmetry_space_group_name_H-M    P1
_symmetry_Int_Tables_number       1
_space_group_crystal_system       triclinic
_cell_length_a                    10.89267
_cell_length_b                    10.657752
_cell_length_c                    9.857649
_cell_angle_alpha                 89.684964
_cell_angle_beta                  104.748308
_cell_angle_gamma                 90.144706
_cell_volume                      1106.66692314

loop_
_atom_site_label
_atom_site_type_symbol
_atom_type_description
_atom_site_fract_x
_atom_site_fract_y
_atom_site_fract_z
_atom_type_partial_charge
C1    C     C_R   0.495435 0.260288 0.499074 0.925353
C2    C     C_2   0.876579 0.495257 0.594648 -0.343256
C3    C     C_2   0.060480 0.468993 0.499846 -0.059793
C4    C     C_2   0.939521 0.531005 0.500157 -0.059794
C5    C     C_R   0.410458 0.061116 0.389551 -0.016059
C6    C     C_R   0.589557 0.938884 0.610447 -0.016087
C7    C     C_R   0.421379 0.932325 0.390769 -0.221089
C8    C     C_R   0.578633 0.067675 0.609230 -0.221087
C9    C     C_R   0.508168 0.872273 0.500437 -0.105242
C10   C     C_R   0.491841 0.127727 0.499564 -0.105245
C11   C     C_2   0.885640 0.631469 0.395261 0.961036
C12   C     C_R   0.504568 0.739711 0.500927 0.925378
C13   C     C_2   0.114364 0.368533 0.604747 0.961041
C14   C     C_2   0.310300 0.120910 0.276479 0.913821
C15   C     C_2   0.689725 0.879090 0.723511 0.913835
C16   C     C_R   0.259474 0.496412 0.440795 0.971527
C17   C     C_R   0.740526 0.503587 0.559205 0.971537
C18   C     C_R   0.547359 0.599790 0.084573 -0.024262
C19   C     C_R   0.452641 0.400210 0.915427 -0.024265
C20   C     C_R   0.547644 0.599637 0.940969 -0.037323
C21   C     C_R   0.452356 0.400362 0.059031 -0.037328
C22   C     C_2   0.123421 0.504738 0.405353 -0.343258
H1    H     H_    0.585093 0.679778 0.148891 0.148099
H2    H     H_    0.175233 0.317493 0.808156 0.332390
H3    H     H_    0.204074 0.113487 0.076411 0.351093
H4    H     H_    0.796017 0.886546 0.923549 0.351106
H5    H     H_    0.414907 0.320222 0.851109 0.148101
H6    H     H_    0.917991 0.436459 0.684266 0.182960
H7    H     H_    0.082006 0.563531 0.315732 0.182961
H8    H     H_    0.586112 0.679336 0.897257 0.150849
H9    H     H_    0.413890 0.320663 0.102743 0.150850
H10   H     H_    0.358126 0.877648 0.309464 0.189094
H11   H     H_    0.641887 0.122354 0.690533 0.189116
H12   H     H_    0.824768 0.682517 0.191855 0.332393
N1    N     N_R   0.499970 0.499970 0.857200 -0.088764
N2    N     N_R   0.500030 0.500030 0.142800 -0.088764
O1    O     O_R   0.499990 0.316750 0.614620 -0.627696
O2    O     O_R   0.859818 0.606681 0.251585 -0.802569
O3    O     O_2   0.140494 0.266144 0.564224 -0.591077
O4    O     O_R   0.140180 0.393326 0.748421 -0.802573
O5    O     O_2   0.257694 0.216850 0.299199 -0.600115
O6    O     O_R   0.273182 0.064659 0.144426 -0.803936
O7    O     O_2   0.742286 0.783117 0.700805 -0.600135
O8    O     O_R   0.726904 0.935375 0.855541 -0.803929
O9    O     O_R   0.500010 0.683250 0.385380 -0.627702
O10   O     O_R   0.499990 0.316780 0.385290 -0.620491
O11   O     O_R   0.500010 0.683220 0.614710 -0.620473
O12   O     O_R   0.317810 0.500000 0.571850 -0.605477
O13   O     O_R   0.682190 0.500000 0.428150 -0.605476
O14   O     O_R   0.317810 0.500030 0.342520 -0.589003
O15   O     O_R   0.682190 0.499970 0.657480 -0.588987
O16   O     O_2   0.859519 0.733860 0.435790 -0.591088
Zn1   Zn    Zn3+2 0.500000 0.499980 0.653120 1.009905
Zn2   Zn    Zn3+2 0.500000 0.500020 0.346880 1.009896

loop_
_geom_bond_atom_site_label_1
_geom_bond_atom_site_label_2
_ccdc_geom_bond_type
H3    O6    S    
C15   O8    S    
C11   O2    S    
C2    C4    D    
C5    C7    A    
C11   O16   D    
C22   H7    S    
N1    Zn1   S    
C19   H5    S    
O13   Zn2   S    
C3    C22   D    
C3    C13   S    
C1    O1    A    
C14   O6    S    
O1    Zn1   S    
O10   Zn2   S    
C6    C9    A    
C15   O7    D    
C5    C10   A    
C21   N2    A    
C19   N1    A    
C2    C17   S    
C21   H9    S    
C17   O15   A    
C5    C14   S    
O14   Zn2   S    
C14   O5    D    
C6    C8    A    
O11   Zn1   S    
H2    O4    S    
C16   O14   A    
O9    Zn2   S    
C18   C20   A    
C8    H11   S    
C12   O11   A    
O12   Zn1   S    
C4    C11   S    
C9    C12   S    
C1    O10   A    
C13   O3    D    
N2    Zn2   S    
H4    O8    S    
C18   H1    S    
C16   O12   A    
C8    C10   A    
C17   O13   A    
C7    C9    A    
C2    H6    S    
C13   O4    S    
C20   H8    S    
C7    H10   S    
C19   C21   A    
C6    C15   S    
H12   O2    S    
C20   N1    A    
C18   N2    A    
C1    C10   S    
C3    C4    S    
C16   C22   S    
C12   O9    A    
O15   Zn1   S    
