data_mof_unit_7503.cif
_audit_creation_date              2013-03-05T16:03:02-0500
_audit_creation_method            fapswitch 2.2
_symmetry_space_group_name_H-M    P1
_symmetry_Int_Tables_number       1
_space_group_crystal_system       triclinic
_cell_length_a                    6.955013
_cell_length_b                    18.272523
_cell_length_c                    20.221805
_cell_angle_alpha                 68.490744
_cell_angle_beta                  90.962302
_cell_angle_gamma                 90.823842
_cell_volume                      2390.49822387

loop_
_atom_site_label
_atom_site_type_symbol
_atom_site_description
_atom_site_fract_x
_atom_site_fract_y
_atom_site_fract_z
_atom_type_partial_charge
O1    O     O_R   0.488990 0.443920 0.942160 -0.564717
O2    O     O_R   0.823840 0.406530 0.087600 -0.590469
O3    O     O_R   0.999650 0.556080 0.057840 -0.561464
C1    C     C_R   0.655438 0.383288 0.114995 1.189588
O4    O     O_R   0.818390 0.434590 0.944530 -0.554726
O5    O     O_R   0.994160 0.584350 0.913750 -0.597832
C2    C     C_R   0.648591 0.420200 0.924300 1.052859
O6    O     O_R   0.494480 0.415650 0.086250 -0.600248
O7    O     O_3   0.662600 0.549100 0.990070 -0.257710
V1    V     V_3+5 0.935320 0.490890 0.001840 1.326434
O8    O     O_R   0.324240 0.593470 0.912400 -0.564848
C3    C     C_R   0.153844 0.619343 0.886735 1.125544
O9    O     O_R   0.329690 0.565410 0.055470 -0.545984
C4    C     C_R   0.163387 0.574854 0.079694 1.034117
V2    V     V_3+5 0.435990 0.509110 0.998160 1.337936
O10   O     O_3   0.158840 0.450900 0.009930 -0.275257
C5    C     C_3   0.998042 0.665880 0.272873 0.532133
C6    C     C_3   0.344694 0.705636 0.247644 0.570938
C7    C     C_3   0.332150 0.752508 0.298718 -0.044034
H1    H     H_    0.996053 0.681175 0.375715 0.140181
H2    H     H_    0.049031 0.606623 0.307781 0.048202
H3    H     H_    0.394056 0.644504 0.277026 0.166690
H4    H     H_    0.434410 0.803206 0.279411 0.268791
C8    C     C_1   0.109175 0.873237 0.379662 -0.208332
C9    C     C_3   0.145406 0.703033 0.212380 -0.365502
C10   C     C_3   0.976698 0.718026 0.318578 0.477926
C11   C     C_3   0.126043 0.786780 0.295948 -0.431978
C12   C     C_3   0.080100 0.838875 0.217118 0.652181
C13   C     C_3   0.083489 0.788961 0.169063 -0.378496
C14   C     C_1   0.115315 0.834296 0.342191 0.320325
C15   C     C_1   0.154110 0.656481 0.165335 0.310095
C16   C     C_1   0.159022 0.619027 0.126562 -0.087794
H5    H     H_    0.937909 0.788864 0.145380 0.231047
H6    H     H_    0.183163 0.816426 0.124016 0.259341
H7    H     H_    0.935204 0.865297 0.213186 0.174554
C17   C     C_R   0.027342 0.780387 0.876603 0.327466
C18   C     C_R   0.950952 0.853148 0.869751 -0.167721
C19   C     C_R   0.965129 0.916443 0.806698 -0.242684
C20   C     C_R   0.051261 0.907635 0.748614 0.296073
C21   C     C_R   0.088629 0.830659 0.749044 -0.043619
C22   C     C_R   0.086812 0.765238 0.815414 -0.076805
C23   C     C_R   0.124031 0.818246 0.685041 -0.141401
C24   C     C_R   0.161077 0.741661 0.686758 -0.004548
C25   C     C_R   0.168455 0.676356 0.752475 -0.107584
C26   C     C_R   0.140419 0.688354 0.817757 -0.215527
C27   C     C_R   0.186604 0.729074 0.622605 -0.426874
C28   C     C_R   0.208466 0.654241 0.621656 0.727283
C29   C     C_R   0.207920 0.588589 0.685083 0.049626
C30   C     C_R   0.194321 0.599850 0.750230 0.504511
H8    H     H_    0.901359 0.863320 0.916140 0.195168
H9    H     H_    0.929188 0.974343 0.805708 0.184456
H10   H     H_    0.184564 0.777023 0.571543 0.171821
C31   C     C_R   0.695492 0.219997 0.123594 0.610662
C32   C     C_R   0.715186 0.142827 0.127120 -0.354319
C33   C     C_R   0.704943 0.080437 0.191794 0.813531
C34   C     C_R   0.674131 0.094505 0.253808 -0.390676
C35   C     C_R   0.654087 0.172017 0.252550 -0.014559
C36   C     C_R   0.665850 0.236713 0.186168 -0.094972
C37   C     C_R   0.620108 0.184976 0.316273 -0.110631
C38   C     C_R   0.599485 0.262837 0.314151 0.069824
C39   C     C_R   0.614066 0.328344 0.248398 -0.183115
C40   C     C_R   0.645964 0.315225 0.184043 -0.211435
C41   C     C_R   0.567228 0.276724 0.377427 -0.276927
C42   C     C_R   0.549929 0.352721 0.376643 -0.284516
C43   C     C_R   0.565830 0.416732 0.313268 0.734977
C44   C     C_R   0.598321 0.405557 0.249725 0.474269
H11   H     H_    0.737872 0.131381 0.078954 0.211779
H12   H     H_    0.665246 0.043711 0.302719 0.173779
H13   H     H_    0.555785 0.229028 0.428411 0.159131
H14   H     H_    0.525389 0.361965 0.425735 0.247840
O11   O     O_R   0.770890 0.084490 0.414040 -0.595081
O12   O     O_R   0.445980 0.065450 0.555510 -0.545822
O13   O     O_R   0.270670 0.915620 0.586180 -0.561913
C45   C     C_R   0.615792 0.079462 0.576092 0.995211
O14   O     O_R   0.441480 0.093500 0.412450 -0.598699
O15   O     O_R   0.266140 0.943870 0.442100 -0.588684
C46   C     C_R   0.610037 0.116799 0.385309 0.893670
O16   O     O_R   0.775410 0.056240 0.558120 -0.563830
O17   O     O_3   0.602660 0.950990 0.510100 -0.271869
V3    V     V_3+5 0.329740 0.009100 0.498130 1.264933
O18   O     O_R   0.936120 0.934420 0.444240 -0.585703
C47   C     C_R   0.103489 0.920067 0.424148 0.944247
O19   O     O_R   0.940610 0.906370 0.587310 -0.598498
C48   C     C_R   0.110173 0.884594 0.615316 0.972854
V4    V     V_3+5 0.829110 0.990690 0.501470 1.245343
O20   O     O_3   0.106080 0.049010 0.489880 -0.254779
C49   C     C_3   0.846780 0.239221 0.714389 0.008449
C50   C     C_3   0.496175 0.276508 0.681978 1.245541
C51   C     C_3   0.508733 0.326655 0.729871 0.413591
H15   H     H_    0.896966 0.345431 0.741340 0.209874
H16   H     H_    0.362077 0.332496 0.748067 0.150283
C52   C     C_1   0.639045 0.372622 0.880473 -0.121410
C53   C     C_3   0.639718 0.206799 0.709022 -0.274150
C54   C     C_3   0.848762 0.283668 0.768451 0.145049
C55   C     C_3   0.641035 0.287101 0.795799 -0.217810
C56   C     C_3   0.563633 0.202072 0.834261 -0.413736
C57   C     C_3   0.578936 0.153408 0.785511 -0.459066
C58   C     C_1   0.637909 0.333362 0.843217 0.242091
C59   C     C_1   0.633613 0.160763 0.661561 0.270584
C60   C     C_1   0.626719 0.123915 0.622378 -0.117836
H17   H     H_    0.685622 0.105654 0.808620 0.228138
H18   H     H_    0.438130 0.124247 0.784088 0.251854
H19   H     H_    0.642142 0.172290 0.885182 0.255673
H20   H     H_    0.944419 0.187826 0.735150 0.199419
H21   H     H_    0.410534 0.204151 0.848398 0.240086
F1    F     F_    0.821182 0.655424 0.244723 -0.539316
F2    F     F_    0.792588 0.748129 0.310808 -0.608045
F3    F     F_    0.211382 0.900516 0.192559 -0.637026
N1    N     N_R   0.214953 0.510384 0.683495 0.299292
O21   O     O_R   0.264445 0.499193 0.626167 -0.163091
O22   O     O_R   0.155298 0.450237 0.737330 -0.317821
N2    N     N_R   0.065420 0.728110 0.947189 0.183992
O23   O     O_R   0.243250 0.722503 0.969298 -0.433885
O24   O     O_R   0.928628 0.713835 0.993506 -0.399222
N3    N     N_R   0.133437 0.976780 0.696836 0.224045
O25   O     O_R   0.319384 0.980460 0.690616 -0.421163
O26   O     O_R   0.036732 0.041928 0.673878 -0.396388
F4    F     F_    0.223025 0.646398 0.557725 -0.578600
F5    F     F_    0.202813 0.534977 0.810723 -0.657762
F6    F     F_    0.551007 0.490628 0.313402 -0.613196
F7    F     F_    0.704325 0.277075 0.058080 -0.729928
F8    F     F_    0.723517 0.005626 0.194442 -0.649944
F9    F     F_    0.617108 0.471378 0.190516 -0.672641
F10   F     F_    0.479535 0.741136 0.195545 -0.570874
N4    N     N_R   0.918424 0.288552 0.643554 0.298839
O27   O     O_R   0.978626 0.255138 0.600991 -0.284245
O28   O     O_R   0.917657 0.365057 0.621090 -0.216853
F11   F     F_    0.311126 0.246781 0.684432 -0.698642
F12   F     F_    0.532272 0.323219 0.611800 -0.584015
F13   F     F_    0.575964 0.401863 0.691230 -0.584808
N5    N     N_R   0.984331 0.247647 0.827871 0.240895
O29   O     O_R   0.992697 0.171684 0.860487 -0.409425
O30   O     O_R   0.093633 0.292338 0.850299 -0.368706
N6    N     N_R   0.390340 0.704090 0.371845 0.271084
O31   O     O_R   0.498454 0.734601 0.408372 -0.265351
O32   O     O_R   0.331750 0.631518 0.401729 -0.318978

loop_
_geom_bond_atom_site_label_1
_geom_bond_atom_site_label_2
_geom_bond_distance
_ccdc_geom_bond_type
C25   C30   1.429241 A    
C36   C40   1.428073 A    
C56   H21   1.111909 S    
C9    C15   1.493010 S    
C13   H5    1.113026 S    
C32   C33   1.386569 A    
O2    C1    1.301546 A    
C55   C56   1.553241 S    
O17   V4    1.709019 S    
C1    O6    1.298415 A    
C37   C46   1.493725 S    
N2    O24   1.301559 A    
O18   C47   1.300654 A    
C55   C58   1.493335 S    
C52   C58   1.215826 T    
C31   C32   1.394172 A    
C7    N6    1.471080 S    
C10   C11   1.556745 S    
O19   C48   1.302172 A    
C5    C10   1.561595 S    
C12   C13   1.558219 S    
N1    O22   1.299940 A    
O5    C3    1.297896 A    
C19   C20   1.389015 A    
C35   C37   1.417027 A    
N3    O25   1.299856 A    
C49   C54   1.582785 S    
C27   H10   1.081893 S    
C34   C35   1.416058 A    
C6    C7    1.568983 S    
C8    C47   1.452459 S    
V3    O20   1.707073 S    
C27   C28   1.385118 A    
O8    V2    2.004148 S    
C39   C44   1.426731 A    
C43   F6    1.356671 S    
C28   F4    1.357490 S    
C41   H13   1.081984 S    
C12   H7    1.112708 S    
N3    O26   1.300877 A    
C17   N2    1.419428 S    
O1    V2    1.962907 S    
C42   H14   1.082875 S    
C51   H16   1.109825 S    
C7    C11   1.564469 S    
O14   V3    2.008888 S    
C53   C59   1.490021 S    
O13   C48   1.293645 A    
C57   H18   1.113142 S    
C21   C23   1.419436 A    
C29   N1    1.442634 S    
C33   F8    1.356240 S    
C37   C38   1.416853 A    
O11   V4    2.000307 S    
O9    C4    1.301657 A    
C11   C14   1.494459 S    
C17   C22   1.431903 A    
C39   C40   1.428377 A    
C6    C9    1.556175 S    
C50   F12   1.386731 S    
N2    O23   1.300602 A    
H15   C54   1.108243 S    
C31   F7    1.354373 S    
C9    C13   1.554438 S    
C28   C29   1.398554 A    
C23   C48   1.487403 S    
O17   V3    2.154789 S    
O12   C45   1.298686 A    
O15   C47   1.299425 A    
C20   C21   1.430892 A    
O4    C2    1.298020 A    
C45   C60   1.447419 S    
C19   H9    1.083573 S    
V4    O20   2.162007 S    
C13   H6    1.112737 S    
C5    H2    1.112939 S    
C51   F13   1.387136 S    
C41   C42   1.389850 A    
C38   C39   1.430012 A    
C51   C55   1.554937 S    
C7    H4    1.114281 S    
C24   C25   1.424499 A    
C18   C19   1.375746 A    
C59   C60   1.213432 T    
O9    V2    1.967966 S    
C31   C36   1.425099 A    
C57   H17   1.112793 S    
C56   C57   1.556567 S    
C33   C34   1.389833 A    
O14   C46   1.301043 A    
O3    C4    1.301097 A    
O16   V4    1.979861 S    
C21   C22   1.433214 A    
O19   V4    2.004080 S    
O6    V2    2.004977 S    
C20   N3    1.431264 S    
C38   C41   1.414694 A    
N4    O27   1.301439 A    
C23   C24   1.414349 A    
N5    O29   1.301819 A    
O2    V1    2.008809 S    
C53   C57   1.557708 S    
O11   C46   1.297416 A    
C25   C26   1.432089 A    
O7    V1    2.154748 S    
C50   C53   1.557449 S    
C17   C18   1.397094 A    
C49   N4    1.475417 S    
O1    C2    1.300973 A    
C15   C16   1.216284 T    
O15   V3    1.964279 S    
C4    C16   1.453730 S    
C3    C26   1.501231 S    
N5    O30   1.301018 A    
C10   F2    1.384562 S    
O5    V1    2.007653 S    
N6    O32   1.301839 A    
O8    C3    1.308763 A    
N6    O31   1.301186 A    
C32   H11   1.082978 S    
C54   N5    1.471696 S    
C1    C40   1.492650 S    
C5    C9    1.555909 S    
C42   C43   1.387280 A    
C6    H3    1.111816 S    
O7    V2    1.712487 S    
O4    V1    1.970104 S    
O12   V3    1.969975 S    
O3    V1    1.964259 S    
C34   H12   1.082019 S    
C5    F1    1.386745 S    
C18   H8    1.083533 S    
C35   C36   1.429460 A    
C30   F5    1.356943 S    
H1    C10   1.110577 S    
C12   F3    1.387245 S    
C29   C30   1.410795 A    
C2    C52   1.451577 S    
C49   C53   1.566553 S    
O13   V3    2.007706 S    
C54   C55   1.565859 S    
C24   C27   1.412464 A    
C8    C14   1.216410 T    
C49   H20   1.113099 S    
C50   C51   1.559106 S    
C50   F11   1.384274 S    
C43   C44   1.395493 A    
C45   O16   1.297971 A    
C56   H19   1.110566 S    
C11   C12   1.558285 S    
N4    O28   1.301945 A    
C22   C26   1.442412 A    
C44   F9    1.357172 S    
V1    O10   1.707017 S    
N1    O21   1.301345 A    
O18   V4    1.968235 S    
V2    O10   2.162029 S    
C6    F10   1.387354 S    
