data_mof_unit_62676.cif
_audit_creation_date              2012-12-10T19:01:57-0500
_audit_creation_method            fapswitch 2.2
_symmetry_space_group_name_H-M    P1
_symmetry_Int_Tables_number       1
_space_group_crystal_system       triclinic
_cell_length_a                    43.868675
_cell_length_b                    30.278083
_cell_length_c                    31.79892
_cell_angle_alpha                 89.999664
_cell_angle_beta                  136.36451
_cell_angle_gamma                 90.000601
_cell_volume                      29146.5486737

loop_
_atom_site_label
_atom_site_type_symbol
_atom_type_description
_atom_site_fract_x
_atom_site_fract_y
_atom_site_fract_z
_atom_type_partial_charge
C1    C     C_R   0.586246 0.999982 0.086257 0.861985
C2    C     C_R   0.413754 0.999982 0.913743 0.861988
C3    C     C_R   0.086245 0.499982 0.086257 0.861981
C4    C     C_R   0.913754 0.499982 0.913743 0.861988
C5    C     C_3   0.500088 0.999993 0.291170 0.204744
C6    C     C_3   0.499912 0.999994 0.708830 0.204743
C7    C     C_3   0.000087 0.499993 0.291170 0.204745
C8    C     C_3   0.999912 0.499994 0.708830 0.204744
C9    C     C_3   0.463061 0.019647 0.199177 -0.164188
C10   C     C_3   0.536956 0.019618 0.800839 -0.164187
C11   C     C_3   0.963093 0.519708 0.199209 -0.164188
C12   C     C_3   0.036920 0.519685 0.800803 -0.164189
C13   C     C_3   0.498601 0.041848 0.262563 -0.163615
C14   C     C_3   0.501434 0.041847 0.737471 -0.163616
C15   C     C_3   0.998670 0.541850 0.262632 -0.163613
C16   C     C_3   0.001358 0.541850 0.737395 -0.163613
C17   C     C_1   0.499994 0.999982 0.163406 -0.077528
C18   C     C_1   0.500006 0.999983 0.836594 -0.077528
C19   C     C_1   0.999994 0.499982 0.163406 -0.077528
C20   C     C_1   0.000006 0.499983 0.836594 -0.077529
C21   C     C_1   0.500094 0.999988 0.336680 -0.075829
C22   C     C_1   0.499906 0.999988 0.663320 -0.075829
C23   C     C_1   0.000094 0.499988 0.336680 -0.075830
C24   C     C_1   0.999906 0.499988 0.663320 -0.075831
C25   C     C_R   0.703050 0.038092 0.190948 -0.177823
C26   C     C_R   0.296949 0.038090 0.809046 -0.177822
C27   C     C_R   0.203050 0.538085 0.190930 -0.177818
C28   C     C_R   0.796949 0.538091 0.809046 -0.177823
C29   C     C_R   0.657258 0.038159 0.145338 -0.192206
C30   C     C_R   0.342742 0.038159 0.854656 -0.192208
C31   C     C_R   0.157257 0.538153 0.145320 -0.192208
C32   C     C_R   0.842742 0.538159 0.854657 -0.192207
C33   C     C_R   0.634201 0.000025 0.134278 -0.028212
C34   C     C_R   0.365799 0.000024 0.865722 -0.028215
C35   C     C_R   0.134201 0.500025 0.134277 -0.028200
C36   C     C_R   0.865799 0.500024 0.865721 -0.028214
C37   C     C_R   0.657249 0.961942 0.169409 -0.191538
C38   C     C_R   0.342751 0.961938 0.830596 -0.191534
C39   C     C_R   0.157248 0.461947 0.169425 -0.191538
C40   C     C_R   0.842750 0.461939 0.830594 -0.191535
C41   C     C_R   0.703040 0.962096 0.215520 -0.178449
C42   C     C_R   0.296959 0.962091 0.784485 -0.178453
C43   C     C_R   0.203039 0.462102 0.215536 -0.178448
C44   C     C_R   0.796959 0.462093 0.784482 -0.178451
C45   C     C_R   0.499953 0.999968 0.081245 0.912722
C46   C     C_R   0.500047 0.999968 0.918754 0.912723
C47   C     C_R   0.999953 0.499968 0.081245 0.912720
C48   C     C_R   0.000047 0.499968 0.918754 0.912720
C49   C     C_R   0.725938 0.000114 0.226154 0.110646
C50   C     C_R   0.274061 0.000109 0.773847 0.110647
C51   C     C_R   0.225938 0.500112 0.226153 0.110645
C52   C     C_R   0.774061 0.500111 0.773845 0.110647
C53   C     C_R   0.796714 0.987817 0.333264 -0.176680
C54   C     C_R   0.203285 0.987807 0.666738 -0.176679
C55   C     C_R   0.296714 0.487832 0.333268 -0.176680
C56   C     C_R   0.703285 0.487809 0.666736 -0.176678
C57   C     C_R   0.842509 0.988033 0.379108 -0.191097
C58   C     C_R   0.157491 0.988025 0.620893 -0.191097
C59   C     C_R   0.342508 0.488048 0.379112 -0.191097
C60   C     C_R   0.657490 0.488026 0.620893 -0.191100
C61   C     C_R   0.865583 0.000022 0.365675 -0.031629
C62   C     C_R   0.134417 0.000019 0.634325 -0.031625
C63   C     C_R   0.365583 0.500021 0.365674 -0.031640
C64   C     C_R   0.634417 0.500020 0.634325 -0.031629
C65   C     C_R   0.842567 0.012077 0.306210 -0.192715
C66   C     C_R   0.157433 0.012079 0.693789 -0.192717
C67   C     C_R   0.342566 0.512061 0.306204 -0.192710
C68   C     C_R   0.657433 0.512079 0.693789 -0.192711
C69   C     C_R   0.796777 0.012392 0.260572 -0.176923
C70   C     C_R   0.203223 0.012392 0.739427 -0.176924
C71   C     C_R   0.296777 0.512375 0.260566 -0.176927
C72   C     C_R   0.703223 0.512394 0.739427 -0.176924
C73   C     C_R   0.773853 0.000124 0.274047 0.110974
C74   C     C_R   0.226147 0.000119 0.725953 0.110974
C75   C     C_R   0.273852 0.500123 0.274046 0.110977
C76   C     C_R   0.726147 0.500121 0.725952 0.110974
C77   C     C_R   0.500000 0.913559 0.500000 0.877308
C78   C     C_R   1.000000 0.413560 0.500000 0.877312
C79   C     C_R   0.499994 0.999946 0.418701 0.913743
C80   C     C_R   0.500006 0.999946 0.581299 0.913746
C81   C     C_R   0.999994 0.499946 0.418701 0.913740
C82   C     C_R   0.000006 0.499946 0.581299 0.913741
C83   C     C_R   0.500000 0.086170 0.500000 0.860869
C84   C     C_R   0.000000 0.586170 0.500000 0.860870
C85   C     C_3   0.537057 0.980334 0.300940 -0.161938
C86   C     C_3   0.462926 0.980366 0.699043 -0.161941
C87   C     C_3   0.037025 0.480273 0.300908 -0.161935
C88   C     C_3   0.962962 0.480298 0.699079 -0.161937
C89   C     C_R   0.000000 0.086415 0.500000 0.931700
C90   C     C_R   0.500000 0.586416 0.500000 0.931707
C91   C     C_R   0.913527 0.999962 0.413550 0.873153
C92   C     C_R   0.086473 0.999962 0.586450 0.873150
C93   C     C_R   0.413527 0.499962 0.413550 0.873160
C94   C     C_R   0.586473 0.499962 0.586450 0.873153
C95   C     C_R   0.000000 0.913519 0.500000 0.873290
C96   C     C_R   0.500000 0.413519 0.500000 0.873292
C97   C     C_R   0.539471 0.796721 0.546359 -0.103380
C98   C     C_R   0.460526 0.796721 0.453636 -0.103379
C99   C     C_R   0.039463 0.296723 0.546396 -0.103330
C100  C     C_R   0.960537 0.296724 0.453595 -0.103307
C101  C     C_R   0.539537 0.842490 0.546304 -0.209723
C102  C     C_R   0.460462 0.842490 0.453692 -0.209723
C103  C     C_R   0.039529 0.342492 0.546344 -0.209766
C104  C     C_R   0.960472 0.342492 0.453653 -0.209785
C105  C     C_R   0.499999 0.865577 0.499999 -0.037584
C106  C     C_R   0.000000 0.365578 0.499999 -0.037560
C107  C     C_R   0.499998 0.773991 0.499997 0.234323
C108  C     C_R   1.000000 0.273992 0.499994 0.234116
C109  C     C_R   0.992307 0.203493 0.454514 0.395862
C110  C     C_R   0.007688 0.203496 0.545472 0.395869
C111  C     C_R   0.492359 0.703497 0.454561 0.395875
C112  C     C_R   0.507637 0.703497 0.545433 0.395873
C113  C     C_R   0.992486 0.157388 0.454968 -0.313683
C114  C     C_R   0.007513 0.157391 0.545026 -0.313692
C115  C     C_R   0.492538 0.657392 0.455012 -0.313705
C116  C     C_R   0.507461 0.657392 0.544985 -0.313710
C117  C     C_R   0.000000 0.134417 0.499999 -0.121142
C118  C     C_R   0.500000 0.634419 0.499999 -0.121154
C119  C     C_3   0.535571 0.022189 0.271529 -0.163284
C120  C     C_3   0.464448 0.022219 0.728489 -0.163281
C121  C     C_3   0.035607 0.522130 0.271566 -0.163282
C122  C     C_3   0.964407 0.522154 0.728449 -0.163281
C123  C     C_R   0.999998 0.226153 0.499994 -0.019700
C124  C     C_R   0.499998 0.726154 0.499997 -0.019739
C125  C     C_R   0.462018 0.202987 0.449735 -0.178601
C126  C     C_R   0.537985 0.202987 0.550268 -0.178602
C127  C     C_R   0.962018 0.702987 0.449735 -0.178601
C128  C     C_R   0.037985 0.702987 0.550268 -0.178601
C129  C     C_R   0.461905 0.157195 0.449877 -0.192149
C130  C     C_R   0.538096 0.157195 0.550125 -0.192148
C131  C     C_R   0.961905 0.657195 0.449877 -0.192149
C132  C     C_R   0.038097 0.657195 0.550125 -0.192148
C133  C     C_R   0.500001 0.134136 0.500001 -0.027921
C134  C     C_R   0.000001 0.634136 0.500001 -0.027922
C135  C     C_R   0.500001 0.225889 0.500002 0.110657
C136  C     C_R   0.000001 0.725889 0.500002 0.110657
C137  C     C_R   0.012287 0.796719 0.548643 -0.177302
C138  C     C_R   0.987716 0.796719 0.451360 -0.177304
C139  C     C_R   0.512287 0.296718 0.548643 -0.177300
C140  C     C_R   0.487716 0.296719 0.451360 -0.177302
C141  C     C_R   0.012018 0.842511 0.548476 -0.192714
C142  C     C_R   0.987984 0.842511 0.451526 -0.192713
C143  C     C_R   0.512018 0.342511 0.548476 -0.192715
C144  C     C_R   0.487984 0.342511 0.451526 -0.192714
C145  C     C_R   0.000001 0.865563 0.500001 -0.032858
C146  C     C_R   0.500001 0.365563 0.500001 -0.032858
C147  C     C_R   0.000002 0.773816 0.500002 0.111128
C148  C     C_R   0.500002 0.273816 0.500002 0.111127
C149  C     C_1   0.499968 0.999975 0.125810 -0.187130
C150  C     C_1   0.500032 0.999976 0.874190 -0.187129
C151  C     C_1   0.999968 0.499975 0.125810 -0.187130
C152  C     C_1   0.000032 0.499976 0.874190 -0.187129
C153  C     C_1   0.500067 0.999973 0.374223 -0.184452
C154  C     C_1   0.499933 0.999973 0.625777 -0.184452
C155  C     C_1   0.000067 0.499973 0.374223 -0.184453
C156  C     C_1   0.999933 0.499974 0.625777 -0.184452
C157  C     C_3   0.501517 0.958135 0.237554 -0.161712
C158  C     C_3   0.498447 0.958137 0.762412 -0.161713
C159  C     C_3   0.001448 0.458132 0.237485 -0.161713
C160  C     C_3   0.998524 0.458134 0.762488 -0.161712
C161  C     C_3   0.500030 0.999988 0.208946 0.204508
C162  C     C_3   0.499970 0.999989 0.791054 0.204507
C163  C     C_3   0.000031 0.499988 0.208947 0.204509
C164  C     C_3   0.999970 0.499989 0.791053 0.204508
C165  C     C_3   0.464548 0.977793 0.228587 -0.161746
C166  C     C_3   0.535433 0.977765 0.771395 -0.161741
C167  C     C_3   0.964512 0.477852 0.228550 -0.161755
C168  C     C_3   0.035473 0.477829 0.771435 -0.161751
H1    H     H_    0.564683 0.040386 0.288331 0.135042
H2    H     H_    0.435351 0.040440 0.711703 0.135042
H3    H     H_    0.064750 0.540280 0.288399 0.135039
H4    H     H_    0.935277 0.540323 0.711630 0.135041
H5    H     H_    0.720634 0.932529 0.242462 0.133702
H6    H     H_    0.279366 0.932521 0.757548 0.133702
H7    H     H_    0.220633 0.432539 0.242492 0.133701
H8    H     H_    0.779365 0.432524 0.757542 0.133701
H9    H     H_    0.779092 0.978511 0.343972 0.133515
H10   H     H_    0.220907 0.978497 0.656031 0.133515
H11   H     H_    0.279092 0.478539 0.343980 0.133512
H12   H     H_    0.720907 0.478499 0.656029 0.133513
H13   H     H_    0.859811 0.978490 0.424783 0.154128
H14   H     H_    0.140188 0.978479 0.575219 0.154126
H15   H     H_    0.359810 0.478518 0.424790 0.154134
H16   H     H_    0.640188 0.478480 0.575218 0.154126
H17   H     H_    0.859912 0.021582 0.295140 0.153418
H18   H     H_    0.140088 0.021588 0.704857 0.153417
H19   H     H_    0.359911 0.521553 0.295131 0.153427
H20   H     H_    0.640089 0.521587 0.704859 0.153419
H21   H     H_    0.779206 0.021718 0.214701 0.133117
H22   H     H_    0.220794 0.021722 0.785297 0.133118
H23   H     H_    0.279205 0.521688 0.214691 0.133117
H24   H     H_    0.720795 0.521724 0.785296 0.133119
H25   H     H_    0.570053 0.778979 0.582206 0.138046
H26   H     H_    0.429944 0.778980 0.417788 0.138048
H27   H     H_    0.070039 0.278982 0.582274 0.138171
H28   H     H_    0.929961 0.278983 0.417716 0.138182
H29   H     H_    0.570364 0.859719 0.582534 0.160392
H30   H     H_    0.429634 0.859719 0.417463 0.160392
H31   H     H_    0.070348 0.359721 0.582607 0.160384
H32   H     H_    0.929653 0.359721 0.417392 0.160388
H33   H     H_    0.986581 0.139549 0.420077 0.164147
H34   H     H_    0.013417 0.139553 0.579918 0.164144
H35   H     H_    0.486675 0.639554 0.420154 0.164165
H36   H     H_    0.513324 0.639555 0.579843 0.164163
H37   H     H_    0.432444 0.220578 0.410833 0.133564
H38   H     H_    0.567558 0.220578 0.589170 0.133563
H39   H     H_    0.932444 0.720578 0.410833 0.133564
H40   H     H_    0.067558 0.720578 0.589170 0.133563
H41   H     H_    0.567390 0.964220 0.343454 0.136545
H42   H     H_    0.432580 0.964276 0.656516 0.136545
H43   H     H_    0.067331 0.464110 0.343396 0.136546
H44   H     H_    0.932645 0.464154 0.656581 0.136546
H45   H     H_    0.432252 0.139883 0.410690 0.154543
H46   H     H_    0.567749 0.139883 0.589312 0.154543
H47   H     H_    0.932252 0.639883 0.410690 0.154544
H48   H     H_    0.067749 0.639883 0.589312 0.154543
H49   H     H_    0.021602 0.779128 0.586262 0.132956
H50   H     H_    0.978401 0.779128 0.413742 0.132956
H51   H     H_    0.521602 0.279128 0.586262 0.132955
H52   H     H_    0.478401 0.279128 0.413742 0.132956
H53   H     H_    0.021536 0.859830 0.586376 0.153745
H54   H     H_    0.978465 0.859830 0.413626 0.153745
H55   H     H_    0.521536 0.359830 0.586376 0.153745
H56   H     H_    0.478465 0.359830 0.413626 0.153745
H57   H     H_    0.497407 0.076162 0.273618 0.133914
H58   H     H_    0.502657 0.076160 0.726446 0.133913
H59   H     H_    0.997533 0.576166 0.273742 0.133915
H60   H     H_    0.002519 0.576165 0.726307 0.133915
H61   H     H_    0.432728 0.035760 0.156663 0.133953
H62   H     H_    0.567302 0.035706 0.843367 0.133952
H63   H     H_    0.932787 0.535871 0.156721 0.133953
H64   H     H_    0.067237 0.535828 0.843302 0.133952
H65   H     H_    0.435436 0.959595 0.211784 0.136312
H66   H     H_    0.564530 0.959542 0.788182 0.136313
H67   H     H_    0.935369 0.459701 0.211716 0.136308
H68   H     H_    0.064603 0.459660 0.788255 0.136308
H69   H     H_    0.502711 0.923820 0.226501 0.136859
H70   H     H_    0.497225 0.923823 0.773436 0.136859
H71   H     H_    0.002585 0.423816 0.226376 0.136859
H72   H     H_    0.997363 0.423818 0.773574 0.136859
H73   H     H_    0.720651 0.067685 0.199229 0.134201
H74   H     H_    0.279348 0.067684 0.800760 0.134201
H75   H     H_    0.220651 0.567673 0.199197 0.134200
H76   H     H_    0.779349 0.567685 0.800762 0.134201
H77   H     H_    0.639947 0.067803 0.118457 0.154659
H78   H     H_    0.360051 0.067804 0.881532 0.154662
H79   H     H_    0.139947 0.567791 0.118425 0.154649
H80   H     H_    0.860052 0.567804 0.881534 0.154662
H81   H     H_    0.639931 0.932265 0.161609 0.154784
H82   H     H_    0.360069 0.932260 0.838400 0.154786
H83   H     H_    0.139929 0.432276 0.161639 0.154775
H84   H     H_    0.860068 0.432261 0.838397 0.154785
O1    O     O_R   0.565460 0.963010 0.065460 -0.626057
O2    O     O_R   0.434540 0.963010 0.934540 -0.626059
O3    O     O_R   0.065460 0.463010 0.065460 -0.626053
O4    O     O_R   0.934540 0.463010 0.934540 -0.626058
O5    O     O_R   0.934500 0.999950 0.469270 -0.624600
O6    O     O_R   0.065500 0.999950 0.530730 -0.624599
O7    O     O_R   0.434500 0.499950 0.469270 -0.624606
O8    O     O_R   0.565500 0.499950 0.530730 -0.624602
O9    O     O_R   0.934490 0.999950 0.399700 -0.628171
O10   O     O_R   0.065510 0.999950 0.600300 -0.628173
O11   O     O_R   0.434490 0.499950 0.399700 -0.628170
O12   O     O_R   0.565510 0.499950 0.600300 -0.628167
O13   O     O_R   0.000010 0.934490 0.534800 -0.625926
O14   O     O_R   0.999990 0.934490 0.465200 -0.625926
O15   O     O_R   0.500010 0.434490 0.534800 -0.625925
O16   O     O_R   0.499990 0.434490 0.465200 -0.625927
O17   O     O_R   0.565400 0.036920 0.065400 -0.625965
O18   O     O_R   0.434600 0.036920 0.934600 -0.625967
O19   O     O_R   0.065400 0.536920 0.065400 -0.625962
O20   O     O_R   0.934600 0.536920 0.934600 -0.625967
O21   O     O_R   0.499990 0.963010 0.061610 -0.616343
O22   O     O_R   0.500010 0.963010 0.938390 -0.616343
O23   O     O_R   0.999990 0.463010 0.061610 -0.616345
O24   O     O_R   0.000010 0.463010 0.938390 -0.616342
O25   O     O_R   0.499940 0.036920 0.061550 -0.616392
O26   O     O_R   0.500060 0.036920 0.938450 -0.616394
O27   O     O_R   0.999940 0.536920 0.061550 -0.616391
O28   O     O_R   0.000060 0.536920 0.938450 -0.616395
O29   O     O_R   0.536910 0.934410 0.536900 -0.626752
O30   O     O_R   0.463090 0.934410 0.463100 -0.626752
O31   O     O_R   0.036910 0.434410 0.536900 -0.626750
O32   O     O_R   0.963090 0.434410 0.463100 -0.626749
O33   O     O_R   0.536920 0.999880 0.475310 -0.614560
O34   O     O_R   0.463080 0.999880 0.524690 -0.614560
O35   O     O_R   0.036920 0.499880 0.475310 -0.614557
O36   O     O_R   0.963080 0.499880 0.524690 -0.614557
O37   O     O_R   0.463000 0.999950 0.401380 -0.618129
O38   O     O_R   0.537000 0.999950 0.598620 -0.618131
O39   O     O_R   0.963000 0.499950 0.401380 -0.618134
O40   O     O_R   0.037000 0.499950 0.598620 -0.618137
O41   O     O_R   0.536940 0.065340 0.536940 -0.626378
O42   O     O_R   0.463060 0.065340 0.463060 -0.626377
O43   O     O_R   0.036940 0.565340 0.536940 -0.626378
O44   O     O_R   0.963060 0.565340 0.463060 -0.626377
O45   O     O_R   0.999920 0.065420 0.534690 -0.627004
O46   O     O_R   0.000080 0.065420 0.465310 -0.627006
O47   O     O_R   0.499920 0.565420 0.534690 -0.627012
O48   O     O_R   0.500080 0.565420 0.465310 -0.627009
Zn1   Zn    Zn3+2 0.500000 0.950610 0.000000 0.952578
Zn2   Zn    Zn3+2 0.000000 0.450610 0.000000 0.952580
Zn3   Zn    Zn3+2 0.500000 0.049320 0.000000 0.952032
Zn4   Zn    Zn3+2 0.000000 0.549320 0.000000 0.952034
Zn5   Zn    Zn3+2 0.549320 0.999860 0.549320 0.954411
Zn6   Zn    Zn3+2 0.450680 0.999860 0.450680 0.954411
Zn7   Zn    Zn3+2 0.049320 0.499860 0.549320 0.954409
Zn8   Zn    Zn3+2 0.950680 0.499860 0.450680 0.954411
Zn9   Zn    Zn3+2 0.999970 0.999950 0.546410 0.944527
Zn10  Zn    Zn3+2 0.000030 0.999950 0.453590 0.944526
Zn11  Zn    Zn3+2 0.499970 0.499950 0.546410 0.944522
Zn12  Zn    Zn3+2 0.500030 0.499950 0.453590 0.944522
O49   O     O_3   0.985267 0.227102 0.410888 -0.771730
H85   H     H_    0.980481 0.206163 0.382563 0.333069
O50   O     O_3   0.014718 0.227107 0.589090 -0.771724
H86   H     H_    0.019501 0.206170 0.617413 0.333068
O51   O     O_3   0.485370 0.727109 0.410977 -0.771679
H87   H     H_    0.480620 0.706172 0.382682 0.333067
O52   O     O_3   0.514624 0.727110 0.589014 -0.771678
H88   H     H_    0.519369 0.706173 0.617306 0.333067

loop_
_geom_bond_atom_site_label_1
_geom_bond_atom_site_label_2
_ccdc_geom_bond_type
C4    O20   A    
C99   C103  A    
C4    C36   S    
C165  H65   S    
C23   C155  T    
C94   O12   A    
O1    Zn1   S    
C119  C161  S    
C89   O45   A    
C112  O52   S    
C167  H67   S    
C46   O22   A    
C32   H80   S    
C112  C124  A    
C55   C59   A    
C26   C50   A    
C13   H57   S    
C99   H27   S    
C100  C104  A    
C97   H25   S    
C9    C13   S    
C8    C168  S    
C54   C74   A    
C43   H7    S    
C140  H52   S    
C12   C16   S    
C115  H35   S    
C70   C74   A    
C132  H48   S    
C113  H33   S    
C77   O30   A    
C5    C13   S    
C7    C23   S    
C141  C145  A    
C125  C135  A    
C7    C15   S    
C8    C16   S    
C11   C167  S    
C107  C124  S    
C2    O2    A    
O12   Zn11  S    
C41   C49   A    
C116  H36   S    
C67   H19   S    
C63   C67   A    
C100  H28   S    
C25   C29   A    
C27   C31   A    
C86   H42   S    
C28   C32   A    
C127  C136  A    
C88   C122  S    
O6    Zn10  S    
C62   C66   A    
C95   O14   A    
O44   Zn8   S    
C54   H10   S    
C15   H59   S    
C110  C123  A    
O48   Zn12  S    
C68   C72   A    
C115  C118  A    
C97   C101  A    
O16   Zn12  S    
C158  H70   S    
C129  C133  A    
C45   O25   A    
C66   H18   S    
C10   C14   S    
C49   C73   S    
O13   Zn9   S    
C90   C118  S    
O15   Zn11  S    
C70   H22   S    
C90   O48   A    
C16   H60   S    
C11   H63   S    
O27   Zn4   S    
C30   H78   S    
C111  C124  A    
C80   O34   A    
C53   H9    S    
C57   C61   A    
O18   Zn3   S    
O42   Zn6   S    
C59   C63   A    
C60   C64   A    
C78   C106  S    
O30   Zn6   S    
C64   C94   S    
C6    C14   S    
O46   Zn10  S    
C80   O38   A    
C66   C70   A    
C77   C105  S    
C159  C167  S    
C130  H46   S    
C88   C160  S    
O29   Zn5   S    
C78   O31   A    
C97   C107  A    
C61   C65   A    
C5    C21   S    
C132  C134  A    
C88   H44   S    
C137  H49   S    
O39   Zn8   S    
C21   C153  T    
C128  H40   S    
C18   C150  T    
C24   C156  T    
C141  H53   S    
C20   C164  S    
C96   O16   A    
C29   C33   A    
C43   C51   A    
O20   Zn4   S    
C84   O43   A    
C99   C108  A    
C64   C68   A    
C79   O33   A    
C50   C74   S    
C101  H29   S    
C1    O17   A    
C121  C163  S    
C10   H62   S    
C122  C164  S    
C157  C161  S    
C125  H37   S    
C85   C119  S    
O36   Zn8   S    
C16   C122  S    
C93   O7    A    
C139  C143  A    
C94   O8    A    
C116  C118  A    
C19   C151  T    
C110  C114  A    
C91   O9    A    
C120  C162  S    
C55   C75   A    
C44   C52   A    
C160  C168  S    
O26   Zn3   S    
O8    Zn12  S    
C104  H32   S    
C11   C15   S    
C27   C51   A    
C111  O51   S    
C127  C131  A    
C139  C148  A    
C100  C108  A    
C30   C34   A    
C42   H6    S    
C157  C165  S    
C109  C123  A    
C8    C88   S    
C59   H15   S    
C125  C129  A    
C79   C153  S    
C3    C35   S    
C10   C166  S    
C11   C163  S    
C19   C163  S    
C9    C161  S    
O40   Zn7   S    
C17   C161  S    
C42   C50   A    
C113  C117  A    
C48   O24   A    
C119  H1    S    
C26   C30   A    
C110  O50   S    
C4    O4    A    
C112  C116  A    
C28   H76   S    
C56   H12   S    
C7    C167  S    
C46   C150  S    
C87   H43   S    
C44   H8    S    
C89   C117  S    
C52   C76   S    
C27   H75   S    
C25   H73   S    
C96   C146  S    
C6    C86   S    
O32   Zn8   S    
C2    C34   S    
C38   H82   S    
C45   O21   A    
C8    C24   S    
C37   C41   A    
O14   Zn10  S    
C114  C117  A    
C139  H51   S    
C40   C44   A    
C55   H11   S    
C68   H20   S    
C10   C162  S    
C86   C120  S    
C77   O29   A    
C72   H24   S    
C58   C62   A    
C143  C146  A    
O43   Zn7   S    
C6    C166  S    
C95   C145  S    
C131  C134  A    
C104  C106  A    
O23   Zn2   S    
O33   Zn5   S    
C84   C134  S    
C160  C164  S    
C14   H58   S    
C128  C136  A    
C54   C58   A    
C40   H84   S    
C83   O42   A    
C95   O13   A    
C126  C130  A    
C6    C22   S    
C98   H26   S    
C102  C105  A    
C41   H5    S    
C7    C87   S    
C47   O27   A    
C114  H34   S    
C69   C73   A    
C81   O35   A    
C82   O36   A    
C48   O28   A    
O50   H86   S    
C142  C145  A    
C85   C157  S    
O19   Zn4   S    
C1    O1    A    
C89   O46   A    
C2    O18   A    
C53   C73   A    
C1    C33   S    
O9    Zn10  S    
C144  C146  A    
C138  C142  A    
O17   Zn3   S    
C53   C57   A    
O37   Zn6   S    
C131  H47   S    
C33   C37   A    
C98   C107  A    
C56   C60   A    
C35   C39   A    
C166  H66   S    
C91   O5    A    
C12   C164  S    
C81   O39   A    
C78   O32   A    
C82   O40   A    
C157  H69   S    
C47   C151  S    
C126  C135  A    
C14   C120  S    
C48   C152  S    
C31   C35   A    
C130  C133  A    
C108  C123  S    
C87   C159  S    
O22   Zn1   S    
C32   C36   A    
C158  C166  S    
C87   C121  S    
C137  C141  A    
C109  O49   S    
C29   H77   S    
C137  C147  A    
C140  C144  A    
O35   Zn7   S    
C81   C155  S    
C92   O6    A    
C80   C154  S    
C84   O44   A    
C63   C93   S    
C58   H14   S    
C9    C165  S    
C60   H16   S    
C98   C102  A    
C18   C162  S    
C120  H2    S    
O49   H85   S    
C126  H38   S    
C65   C69   A    
C46   O26   A    
C67   C71   A    
O4    Zn2   S    
C25   C49   A    
O52   H88   S    
C20   C152  T    
C39   H83   S    
C159  H71   S    
O24   Zn2   S    
O25   Zn3   S    
C90   O47   A    
C56   C76   A    
C83   O41   A    
C72   C76   A    
C140  C148  A    
C57   H13   S    
C3    O19   A    
O21   Zn1   S    
C38   C42   A    
C102  H30   S    
C143  H55   S    
C47   O23   A    
C9    H61   S    
O5    Zn9   S    
O7    Zn11  S    
C62   C92   S    
C5    C165  S    
C109  C113  A    
C168  H68   S    
C82   C156  S    
C96   O15   A    
O34   Zn6   S    
C129  H45   S    
C31   H79   S    
O11   Zn12  S    
C128  C132  A    
C13   C119  S    
O31   Zn7   S    
C12   H64   S    
C3    O3    A    
C101  C105  A    
C65   H17   S    
C144  H56   S    
O28   Zn4   S    
C36   C40   A    
C127  H39   S    
C69   H21   S    
C39   C43   A    
O41   Zn5   S    
C138  C147  A    
O45   Zn9   S    
C103  H31   S    
C86   C158  S    
O2    Zn1   S    
C79   O37   A    
O47   Zn11  S    
C121  H3    S    
C122  H4    S    
C159  C163  S    
O10   Zn9   S    
C51   C75   S    
C22   C154  T    
O38   Zn5   S    
C160  H72   S    
C34   C38   A    
C17   C149  T    
C12   C168  S    
C26   H74   S    
C71   H23   S    
O3    Zn2   S    
C5    C85   S    
C71   C75   A    
C28   C52   A    
C37   H81   S    
C103  C106  A    
C45   C149  S    
O51   H87   S    
C15   C121  S    
C83   C133  S    
C136  C147  S    
C158  C162  S    
C85   H41   S    
C138  H50   S    
C135  C148  S    
C111  C115  A    
C142  H54   S    
C92   O10   A    
C61   C91   S    
C93   O11   A    
