data_mof_unit_46861.cif
_audit_creation_date              2012-12-11T15:23:32-0500
_audit_creation_method            fapswitch 2.2
_symmetry_space_group_name_H-M    P1
_symmetry_Int_Tables_number       1
_space_group_crystal_system       triclinic
_cell_length_a                    6.921496
_cell_length_b                    17.587981
_cell_length_c                    19.255984
_cell_angle_alpha                 109.591768
_cell_angle_beta                  90.585724
_cell_angle_gamma                 90.332732
_cell_volume                      2208.19650086

loop_
_atom_site_label
_atom_site_type_symbol
_atom_type_description
_atom_site_fract_x
_atom_site_fract_y
_atom_site_fract_z
_atom_type_partial_charge
O1    O     O_R   0.505810 0.439670 0.562310 -0.513030
O2    O     O_R   0.169070 0.404920 0.411210 -0.552248
O3    O     O_R   0.005550 0.560330 0.437690 -0.544190
C1    C     C_R   0.337991 0.381541 0.383069 0.774302
O4    O     O_R   0.175650 0.430000 0.560110 -0.537045
O5    O     O_R   0.012170 0.585580 0.587650 -0.533510
C2    C     C_R   0.346013 0.417942 0.584599 0.754830
O6    O     O_R   0.499180 0.414420 0.412350 -0.523775
O7    O     O_3   0.341430 0.551020 0.508860 -0.372996
V1    V     V_3+5 0.063930 0.490540 0.498360 1.568154
O8    O     O_R   0.682850 0.595080 0.588790 -0.546185
C3    C     C_R   0.852926 0.618177 0.616896 0.807532
O9    O     O_R   0.676280 0.570000 0.439890 -0.529432
C4    C     C_R   0.844729 0.583697 0.417404 0.722056
V2    V     V_3+5 0.564760 0.509460 0.501640 1.596104
O10   O     O_3   0.837130 0.448980 0.491140 -0.352307
C5    C     C_R   0.827933 0.896119 0.200819 0.278695
C6    C     C_R   0.916181 0.865262 0.131171 -0.164617
C7    C     C_R   0.999539 0.787677 0.109374 -0.122985
C8    C     C_R   0.965445 0.736330 0.151887 0.056640
C9    C     C_R   0.897693 0.771292 0.225260 -0.013882
C10   C     C_R   0.843880 0.853793 0.251896 -0.074520
C11   C     C_R   0.998034 0.651595 0.124218 -0.073156
C12   C     C_R   0.992533 0.606918 0.172145 -0.111712
C13   C     C_R   0.932101 0.640723 0.245441 0.079445
C14   C     C_R   0.883898 0.723765 0.272148 0.014235
C15   C     C_R   0.822609 0.759343 0.345863 -0.031065
C16   C     C_R   0.787356 0.842986 0.373973 0.223342
C17   C     C_R   0.807797 0.890581 0.328429 0.289608
C18   C     C_R   0.917601 0.593338 0.292545 -0.017308
C19   C     C_R   0.856151 0.629839 0.365858 -0.133059
C20   C     C_R   0.806833 0.711265 0.391197 -0.096663
H1    H     H_    0.030216 0.544003 0.150055 0.211500
H2    H     H_    0.760162 0.736597 0.447650 0.181734
C21   C     C_3   0.788692 0.813107 0.743932 0.220923
C22   C     C_3   0.958177 0.771134 0.695231 -0.052127
C23   C     C_3   0.868119 0.688441 0.687172 -0.112447
C24   C     C_3   0.696753 0.729986 0.735676 -0.174410
C25   C     C_3   0.812140 0.729243 0.804660 0.287331
C26   C     C_3   0.982401 0.686497 0.755997 -0.123535
C27   C     C_3   0.073604 0.770201 0.764142 -0.261219
C28   C     C_3   0.902407 0.811845 0.812638 -0.127913
H3    H     H_    0.541908 0.713308 0.724066 0.148239
H4    H     H_    0.061085 0.633702 0.760987 0.177278
H5    H     H_    0.228350 0.787072 0.775829 0.169679
C29   C     C_3   0.496515 0.241664 0.302000 0.315654
C30   C     C_3   0.339543 0.180784 0.258795 -0.093758
H6    H     H_    0.304519 0.122851 0.267237 0.187068
C31   C     C_3   0.414550 0.190025 0.186513 -0.076636
C32   C     C_3   0.572591 0.250211 0.229503 -0.208972
C33   C     C_3   0.428923 0.320319 0.239467 -0.082021
C34   C     C_3   0.272752 0.260073 0.196044 -0.055374
C35   C     C_3   0.196992 0.251707 0.268548 -0.237896
C36   C     C_3   0.354861 0.311922 0.311822 -0.098483
H7    H     H_    0.726573 0.250119 0.213957 0.128484
H8    H     H_    0.042993 0.252110 0.284126 0.171736
C37   C     C_R   0.254973 0.128294 0.822799 -0.076647
C38   C     C_R   0.413346 0.135913 0.870633 -0.078202
C39   C     C_R   0.555931 0.193845 0.874768 -0.080297
C40   C     C_R   0.540875 0.245640 0.832861 0.040193
C41   C     C_R   0.383135 0.236196 0.783030 0.026533
C42   C     C_R   0.238634 0.177024 0.777951 0.034679
C43   C     C_R   0.674885 0.309036 0.842476 0.207903
C44   C     C_R   0.652250 0.362392 0.802603 0.295418
C45   C     C_R   0.515218 0.345022 0.743506 -0.022666
C46   C     C_R   0.371389 0.285132 0.737770 -0.030896
C47   C     C_R   0.215751 0.274083 0.686896 0.023542
C48   C     C_R   0.069463 0.216225 0.683223 0.253702
C49   C     C_R   0.080948 0.168001 0.728545 0.233351
C50   C     C_R   0.518565 0.383976 0.689377 0.295990
C51   C     C_R   0.359908 0.373925 0.639049 -0.143482
C52   C     C_R   0.209496 0.320916 0.640394 -0.108400
H9    H     H_    0.146587 0.083003 0.820477 0.160713
H10   H     H_    0.675131 0.199422 0.912883 0.167900
H11   H     H_    0.091245 0.313792 0.601641 0.201914
O11   O     O_R   0.271890 0.085690 0.087580 -0.528904
O12   O     O_R   0.595690 0.070020 0.939870 -0.541673
O13   O     O_R   0.758900 0.914390 0.912370 -0.524021
C53   C     C_R   0.426079 0.085001 0.918181 0.749033
O14   O     O_R   0.602020 0.095100 0.088770 -0.540177
O15   O     O_R   0.765280 0.939660 0.062330 -0.513039
C54   C     C_R   0.432803 0.118965 0.116522 0.787257
O16   O     O_R   0.265520 0.060430 0.937620 -0.536421
O17   O     O_3   0.429560 0.949050 0.991100 -0.363892
V3    V     V_3+5 0.707160 0.009450 0.001650 1.579624
O18   O     O_R   0.094540 0.929890 0.060190 -0.550822
C55   C     C_R   0.926049 0.915407 0.082294 0.733514
O19   O     O_R   0.088200 0.904800 0.911290 -0.552184
C56   C     C_R   0.918022 0.881728 0.883180 0.752271
V4    V     V_3+5 0.206300 0.990390 0.998440 1.559814
O20   O     O_3   0.934030 0.050940 0.008900 -0.365211
Br1   Br    Br    0.661590 0.989057 0.219638 -0.481292
Br2   Br    Br    0.641572 0.902748 0.734799 -0.492645
Br3   Br    Br    0.705448 0.699415 0.884586 -0.488607
Br4   Br    Br    0.659487 0.225784 0.378305 -0.412634
C57   C     C_2   0.476134 0.396717 0.224772 0.393213
H12   H     H_    0.522303 0.393669 0.170268 0.124597
O21   O     O_2   0.461838 0.462198 0.273175 -0.537666
C58   C     C_2   0.144205 0.273732 0.138265 0.375194
H13   H     H_    0.027523 0.316512 0.154701 0.106674
O22   O     O_2   0.170364 0.237670 0.072949 -0.511826
C59   C     C_2   0.130376 0.763698 0.044934 0.420369
H14   H     H_    0.092501 0.776368 0.995111 0.063453
O23   O     O_2   0.284942 0.731792 0.048103 -0.488743
Br5   Br    Br    0.887702 0.326221 0.912461 -0.419845
Br6   Br    Br    0.771063 0.468054 0.845782 -0.333052
Br7   Br    Br    0.755269 0.436157 0.674598 -0.485421
Br8   Br    Br    0.852662 0.200576 0.615258 -0.357236
Br9   Br    Br    0.879405 0.088964 0.721210 -0.404892
C60   C     C_2   0.011630 0.605309 0.044038 0.584088
H15   H     H_    0.945563 0.628099 0.003729 0.083317
O24   O     O_2   0.093106 0.540299 0.022106 -0.464236
C61   C     C_2   0.958710 0.505337 0.266276 0.351465
H16   H     H_    0.045276 0.479421 0.299778 0.066674
O25   O     O_2   0.887416 0.460364 0.208918 -0.544767
Br10  Br    Br    0.718014 0.894666 0.476285 -0.319449
Br11  Br    Br    0.837841 0.005864 0.377444 -0.257091
C62   C     C_2   0.041637 0.798206 0.635832 0.476738
H17   H     H_    0.102530 0.858532 0.649883 0.121932
O26   O     O_2   0.041507 0.753234 0.571897 -0.530816

loop_
_geom_bond_atom_site_label_1
_geom_bond_atom_site_label_2
_ccdc_geom_bond_type
C53   O16   A    
C9    C14   A    
C10   C17   A    
C27   C28   S    
C21   C22   S    
C4    C19   S    
C1    O6    A    
V3    O20   S    
C37   C42   A    
C30   C31   S    
C35   C36   S    
C14   C15   A    
C23   C24   S    
C40   C43   A    
C16   C17   A    
C6    C7    A    
C23   C26   S    
C50   Br7   S    
O5    C3    A    
C18   C19   A    
C7    C59   S    
V2    O10   S    
C47   C52   A    
C37   H9    S    
C3    C23   S    
O16   V4    S    
C21   C28   S    
C60   H15   S    
C16   Br10  S    
C62   H17   S    
C49   Br9   S    
C41   C46   A    
C29   Br4   S    
C7    C8    A    
C48   C49   A    
C57   O21   D    
C32   H7    S    
C11   C12   A    
C50   C51   A    
O1    V2    S    
C43   Br5   S    
C22   C62   S    
O7    V1    S    
C33   C57   S    
C30   C35   S    
O12   C53   A    
C46   C47   A    
O12   V3    S    
C39   C40   A    
O9    C4    A    
C22   C27   S    
C41   C42   A    
C5    Br1   S    
O17   V4    S    
C52   H11   S    
O4    V1    S    
C5    C6    A    
C25   C28   S    
C60   O24   D    
C21   Br2   S    
O13   C56   A    
C47   C48   A    
C30   H6    S    
C21   C24   S    
C12   C13   A    
O14   C54   A    
O18   V4    S    
O11   C54   A    
C25   C26   S    
O4    C2    A    
O18   C55   A    
C38   C39   A    
C17   Br11  S    
C33   C34   S    
C42   C49   A    
C40   C41   A    
C20   H2    S    
C31   C54   S    
O2    C1    A    
C25   Br3   S    
O14   V3    S    
C12   H1    S    
C58   H13   S    
C8    C11   A    
C31   C34   S    
C57   H12   S    
C29   C36   S    
C32   C33   S    
O17   V3    S    
C59   O23   D    
C39   H10   S    
O15   C55   A    
O3    C4    A    
C38   C53   S    
O13   V3    S    
C26   C27   S    
C58   O22   D    
O19   V4    S    
C31   C32   S    
O6    V2    S    
O8    V2    S    
O9    V2    S    
O2    V1    S    
C34   C35   S    
C61   H16   S    
C35   H8    S    
C13   C18   A    
C11   C60   S    
C29   C30   S    
C22   C23   S    
C1    C36   S    
C15   C20   A    
O1    C2    A    
C19   C20   A    
C6    C55   S    
O5    V1    S    
O8    C3    A    
C44   Br6   S    
C29   C32   S    
C34   C58   S    
C5    C10   A    
C33   C36   S    
C44   C45   A    
C28   C56   S    
C13   C14   A    
C24   H3    S    
O3    V1    S    
V1    O10   S    
C2    C51   S    
V4    O20   S    
C24   C25   S    
O7    V2    S    
C59   H14   S    
C62   O26   D    
C43   C44   A    
C26   H4    S    
C51   C52   A    
O19   C56   A    
C8    C9    A    
C45   C46   A    
C15   C16   A    
C27   H5    S    
C48   Br8   S    
C37   C38   A    
C9    C10   A    
O15   V3    S    
C45   C50   A    
O11   V4    S    
C61   O25   D    
C18   C61   S    
