data_mof_unit_18125.cif
_audit_creation_date              2012-12-10T18:44:22-0500
_audit_creation_method            fapswitch 2.2
_symmetry_space_group_name_H-M    P1
_symmetry_Int_Tables_number       1
_space_group_crystal_system       triclinic
_cell_length_a                    12.901605
_cell_length_b                    10.701232
_cell_length_c                    9.827265
_cell_angle_alpha                 89.570428
_cell_angle_beta                  96.856148
_cell_angle_gamma                 90.168677
_cell_volume                      1347.03927781

loop_
_atom_site_label
_atom_site_type_symbol
_atom_type_description
_atom_site_fract_x
_atom_site_fract_y
_atom_site_fract_z
_atom_type_partial_charge
C1    C     C_R   0.501166 0.259981 0.500800 0.947384
C2    C     C_R   0.498834 0.740019 0.499200 0.947384
C3    C     C_R   0.498713 0.872425 0.497854 -0.209444
C4    C     C_R   0.501286 0.127575 0.502145 -0.209445
C5    C     C_R   0.563490 0.579490 0.081251 -0.075592
C6    C     C_R   0.436510 0.420510 0.918749 -0.075591
C7    C     C_R   0.563434 0.579494 0.937255 -0.083719
C8    C     C_R   0.436565 0.420506 0.062745 -0.083719
C9    C     C_R   0.298102 0.499683 0.473543 0.887107
C10   C     C_R   0.701898 0.500316 0.526457 0.887107
C11   C     C_R   0.813889 0.500145 0.541962 -0.049232
C12   C     C_R   0.186111 0.499854 0.458038 -0.049232
C13   C     C_R   0.021113 0.511209 0.316125 -0.219470
C14   C     C_R   0.978886 0.488791 0.683875 -0.219470
C15   C     C_R   0.128985 0.508728 0.327875 -0.189351
C16   C     C_R   0.871015 0.491272 0.672125 -0.189351
C17   C     C_R   0.136056 0.492480 0.576200 -0.278726
C18   C     C_R   0.863943 0.507520 0.423800 -0.278726
C19   C     C_R   0.028922 0.495221 0.565503 0.186412
C20   C     C_R   0.971078 0.504779 0.434497 0.186412
C21   C     C_R   0.452717 0.066701 0.386541 -0.373086
C22   C     C_R   0.547282 0.933298 0.613459 -0.373086
C23   C     C_R   0.452660 0.937990 0.382064 0.550031
C24   C     C_R   0.547339 0.062009 0.617936 0.550030
H1    H     H_    0.819843 0.515020 0.322921 0.160599
H2    H     H_    0.180157 0.484980 0.677079 0.160599
H3    H     H_    0.832565 0.485549 0.764135 0.165465
H4    H     H_    0.167435 0.514451 0.235865 0.165465
H5    H     H_    0.977057 0.518405 0.215306 0.138427
H6    H     H_    0.022943 0.481594 0.784694 0.138427
H7    H     H_    0.413191 0.119092 0.300878 0.180376
H8    H     H_    0.586808 0.880907 0.699123 0.180376
H9    H     H_    0.614229 0.642966 0.143309 0.120200
H10   H     H_    0.385771 0.357035 0.856691 0.120201
H11   H     H_    0.614101 0.643016 0.889980 0.120835
H12   H     H_    0.385899 0.356984 0.110020 0.120835
N1    N     N_R   0.499970 0.499970 0.857200 -0.073167
N2    N     N_R   0.500030 0.500030 0.142800 -0.073167
O1    O     O_R   0.499990 0.316750 0.614620 -0.582841
O2    O     O_R   0.500010 0.683250 0.385380 -0.582841
O3    O     O_R   0.499990 0.316780 0.385290 -0.636983
O4    O     O_R   0.500010 0.683220 0.614710 -0.636983
O5    O     O_R   0.346360 0.499970 0.595710 -0.633756
O6    O     O_R   0.653640 0.500030 0.404290 -0.633755
O7    O     O_R   0.346360 0.499990 0.366380 -0.621479
O8    O     O_R   0.653640 0.500010 0.633620 -0.621479
Zn1   Zn    Zn3+2 0.500000 0.499980 0.653120 0.961632
Zn2   Zn    Zn3+2 0.500000 0.500020 0.346880 0.961631
O9    O     O_3   0.398977 0.875831 0.271904 -0.586067
C25   C     C_3   0.450235 0.895153 0.154291 -0.285909
H13   H     H_    0.416652 0.829922 0.073428 0.192390
H14   H     H_    0.535363 0.874849 0.174737 0.146310
H15   H     H_    0.437419 0.991664 0.113334 0.141653
O10   O     O_3   0.601024 0.124169 0.728095 -0.586067
C26   C     C_3   0.549770 0.104845 0.845712 -0.285907
H16   H     H_    0.464642 0.125149 0.825269 0.146309
H17   H     H_    0.583355 0.170076 0.926574 0.192391
H18   H     H_    0.562586 0.008334 0.886666 0.141653

loop_
_geom_bond_atom_site_label_1
_geom_bond_atom_site_label_2
_ccdc_geom_bond_type
C12   C17   A    
C10   O8    A    
C25   H14   S    
C26   H16   S    
C11   C18   A    
C9    O7    A    
C14   C16   A    
N1    Zn1   S    
O5    Zn1   S    
C11   C16   A    
C3    C23   A    
C19   C20   A    
C12   C15   A    
C1    C4    S    
C6    H10   S    
C16   H3    S    
C13   C15   A    
C25   H13   S    
C7    N1    A    
C6    N1    A    
C5    N2    A    
C4    C21   A    
C21   H7    S    
C15   H4    S    
C18   H1    S    
C22   H8    S    
C8    N2    A    
C2    O4    A    
C17   H2    S    
C1    O3    A    
C17   C19   A    
O3    Zn2   S    
C14   H6    S    
C2    C3    S    
C18   C20   A    
O4    Zn1   S    
C26   H17   S    
C21   C23   A    
C4    C24   A    
C9    C12   S    
C22   C24   A    
C9    O5    A    
C25   H15   S    
C23   O9    S    
C10   C11   S    
C1    O1    A    
C10   O6    A    
C2    O2    A    
C7    H11   S    
N2    Zn2   S    
O1    Zn1   S    
O9    C25   S    
C8    H12   S    
C26   H18   S    
C13   H5    S    
C5    C7    A    
O2    Zn2   S    
O10   C26   S    
C3    C22   A    
C6    C8    A    
O7    Zn2   S    
C13   C20   A    
O8    Zn1   S    
C24   O10   S    
C14   C19   A    
O6    Zn2   S    
C5    H9    S    
