data_mof_unit_14760.cif
_audit_creation_date              2013-03-05T15:47:57-0500
_audit_creation_method            fapswitch 2.2
_symmetry_space_group_name_H-M    P1
_symmetry_Int_Tables_number       1
_space_group_crystal_system       triclinic
_cell_length_a                    11.78171
_cell_length_b                    13.082434
_cell_length_c                    13.467961
_cell_angle_alpha                 96.085801
_cell_angle_beta                  77.842984
_cell_angle_gamma                 100.143981
_cell_volume                      1992.45753554

loop_
_atom_site_label
_atom_site_type_symbol
_atom_site_description
_atom_site_fract_x
_atom_site_fract_y
_atom_site_fract_z
_atom_type_partial_charge
O1    O     O_R   0.419710 0.645650 0.494620 -0.521067
O2    O     O_R   0.611450 0.658430 0.507430 -0.580391
C1    C     C_R   0.521579 0.701014 0.500537 0.829119
O3    O     O_R   0.357340 0.490460 0.641450 -0.551746
O4    O     O_R   0.549080 0.503250 0.654260 -0.632877
C2    C     C_R   0.437606 0.477908 0.691813 0.861275
Cu1   Cu    Cu3+1 0.386470 0.492430 0.492410 1.028600
Cu2   Cu    Cu3+1 0.613530 0.507570 0.507590 0.992216
O5    O     O_R   0.388550 0.341570 0.492570 -0.560548
O6    O     O_R   0.580290 0.354350 0.505380 -0.578840
O7    O     O_R   0.450920 0.496750 0.345740 -0.559003
O8    O     O_R   0.642660 0.509540 0.358550 -0.510069
C3    C     C_R   0.478652 0.299521 0.498240 0.861120
C4    C     C_R   0.561866 0.510948 0.305128 0.880572
C5    C     C_R   0.743174 0.521063 0.039707 0.411929
C6    C     C_R   0.594139 0.518708 0.193746 -0.317195
C7    C     C_R   0.285097 0.392966 0.833783 -0.195003
C8    C     C_R   0.247532 0.381050 0.938459 0.313255
C9    C     C_R   0.327946 0.403162 0.004333 0.482410
C10   C     C_R   0.447894 0.443512 0.966723 -0.073945
C11   C     C_R   0.485846 0.443746 0.859878 -0.069852
C12   C     C_R   0.534388 0.474004 0.029211 -0.141806
C13   C     C_R   0.655207 0.477522 0.983625 -0.149640
C14   C     C_R   0.686531 0.440642 0.881748 0.583207
C15   C     C_R   0.602988 0.430017 0.819584 -0.157359
C16   C     C_R   0.506166 0.504115 0.134433 0.424325
C17   C     C_R   0.712088 0.540942 0.146089 0.291824
C18   C     C_R   0.402389 0.438516 0.796144 -0.149349
H1    H     H_    0.625953 0.399226 0.742313 0.177208
C19   C     C_R   0.468519 0.185884 0.487793 -0.221819
C20   C     C_R   0.531689 0.815438 0.504125 -0.109690
C21   C     C_R   0.570171 0.980077 0.599519 -0.236143
C22   C     C_R   0.594174 0.880088 0.571659 -0.074299
C23   C     C_R   0.464083 0.860181 0.450455 0.380263
C24   C     C_R   0.470668 0.970117 0.456926 -0.113249
C25   C     C_R   0.516345 0.028925 0.538570 0.006256
C26   C     C_R   0.515304 0.136741 0.554099 0.464556
C27   C     C_R   0.423108 0.128560 0.405856 -0.110077
C28   C     C_R   0.431042 0.021544 0.386122 -0.030976
H2    H     H_    0.606123 0.022382 0.662243 0.177611
N1    N     N_R   0.215880 0.481050 0.481000 -0.226106
N2    N     N_R   0.784100 0.518950 0.519000 -0.284911
C29   C     C_R   0.955245 0.613213 0.582195 0.396174
C30   C     C_R   0.831018 0.592233 0.586499 0.042011
C31   C     C_R   0.854731 0.454669 0.454960 0.618128
C32   C     C_R   0.978842 0.464335 0.457568 -0.202143
C33   C     C_R   0.024841 0.539785 0.528521 -0.241227
C34   C     C_R   0.144159 0.544999 0.540416 0.680878
C35   C     C_R   0.176351 0.413125 0.408706 -0.016145
C36   C     C_R   0.061569 0.405405 0.391775 -0.084144
H3    H     H_    0.237805 0.367986 0.359834 0.172645
O9    O     O_3   0.790734 0.597395 0.202895 -0.575797
C37   C     C_3   0.887209 0.546232 0.198155 -0.072104
H4    H     H_    0.865638 0.460549 0.182683 0.193722
H5    H     H_    0.915403 0.561190 0.272541 0.196001
H6    H     H_    0.962210 0.579953 0.140417 0.150652
C38   C     C_2   0.371527 0.182433 0.339142 0.484001
H7    H     H_    0.423503 0.248101 0.299042 0.000839
O10   O     O_2   0.268016 0.157222 0.334039 -0.530065
C39   C     C_2   0.418240 0.967819 0.284522 0.404545
H8    H     H_    0.475845 0.912283 0.249394 0.087792
O11   O     O_2   0.343338 0.982873 0.239896 -0.518331
C40   C     C_2   0.693723 0.852463 0.606891 0.324206
H9    H     H_    0.700661 0.867525 0.686388 0.046812
O12   O     O_2   0.774411 0.821427 0.545202 -0.517110
O13   O     O_3   0.394165 0.795590 0.390977 -0.630427
C41   C     C_3   0.274642 0.793602 0.438022 -0.148479
H10   H     H_    0.259107 0.787375 0.521767 0.209832
H11   H     H_    0.221963 0.724528 0.405199 0.188485
H12   H     H_    0.241545 0.863545 0.422770 0.182481
O14   O     O_3   0.191276 0.617070 0.609729 -0.550484
C42   C     C_3   0.151736 0.583138 0.709032 -0.271983
H13   H     H_    0.073444 0.616560 0.747722 0.143829
H14   H     H_    0.220968 0.612208 0.754182 0.176629
H15   H     H_    0.131471 0.497282 0.711141 0.116977
O15   O     O_3   0.016756 0.714126 0.594095 -0.561045
C43   C     C_3   0.976000 0.772834 0.684180 -0.199510
H16   H     H_    0.955889 0.727981 0.752498 0.157396
H17   H     H_    0.900968 0.809570 0.676442 0.196816
H18   H     H_    0.047503 0.837496 0.696365 0.170707
C44   C     C_2   0.042447 0.340736 0.298639 0.452687
H19   H     H_    0.071710 0.265422 0.283536 0.087874
O16   O     O_2   0.002339 0.373292 0.234383 -0.562840
C45   C     C_2   0.749468 0.638830 0.670939 0.380470
H20   H     H_    0.673665 0.666321 0.658685 0.145775
O17   O     O_2   0.760663 0.640281 0.758883 -0.664737
O18   O     O_3   0.786039 0.392821 0.853118 -0.571085
C46   C     C_3   0.860526 0.433897 0.765804 -0.275259
H21   H     H_    0.890803 0.518062 0.780127 0.210314
H22   H     H_    0.819472 0.418396 0.697941 0.118024
H23   H     H_    0.939216 0.394798 0.748209 0.160229
O19   O     O_3   0.804527 0.386489 0.383847 -0.535404
C47   C     C_3   0.802083 0.280699 0.400532 -0.284715
H24   H     H_    0.711178 0.241743 0.424102 0.173332
H25   H     H_    0.855347 0.268149 0.456086 0.109196
H26   H     H_    0.832686 0.237846 0.327042 0.187956
O20   O     O_3   0.858761 0.545368 0.989922 -0.580406
C48   C     C_3   0.882306 0.652337 0.973017 -0.340698
H27   H     H_    0.818203 0.674496 0.932561 0.207220
H28   H     H_    0.971086 0.669442 0.924747 0.162670
H29   H     H_    0.882883 0.701438 0.045500 0.203869
O21   O     O_3   0.395706 0.527061 0.178897 -0.510919
C49   C     C_3   0.394175 0.632656 0.167456 -0.210868
H30   H     H_    0.462017 0.684885 0.203418 0.172377
H31   H     H_    0.306993 0.652026 0.206500 0.193732
H32   H     H_    0.406329 0.647548 0.085717 0.130795
C50   C     C_2   0.205562 0.339607 0.765427 0.435273
H33   H     H_    0.110969 0.330912 0.790805 0.083270
O22   O     O_2   0.244432 0.298126 0.682785 -0.517719
O23   O     O_3   0.290314 0.368183 0.100885 -0.520018
C51   C     C_3   0.317891 0.267263 0.098925 -0.202498
H34   H     H_    0.413616 0.270427 0.095107 0.135578
H35   H     H_    0.288956 0.214626 0.035201 0.169962
H36   H     H_    0.269991 0.232650 0.170203 0.210929
O24   O     O_3   0.133953 0.334552 0.975801 -0.565407
C52   C     C_3   0.063357 0.413439 0.000719 -0.168555
H37   H     H_    0.063003 0.455269 0.932994 0.136073
H38   H     H_    0.093274 0.469801 0.061335 0.177031
H39   H     H_    0.971584 0.376964 0.029646 0.223894
O25   O     O_3   0.545536 0.192445 0.641153 -0.565496
C53   C     C_3   0.669187 0.215113 0.632000 -0.369012
H40   H     H_    0.719018 0.160226 0.578569 0.142976
H41   H     H_    0.690430 0.212877 0.708090 0.210237
H42   H     H_    0.701845 0.294698 0.607594 0.191544

loop_
_geom_bond_atom_site_label_1
_geom_bond_atom_site_label_2
_geom_bond_distance
_ccdc_geom_bond_type
C43   H16   1.104870 S    
O18   C46   1.405342 S    
C40   O12   1.220912 D    
C47   H24   1.098379 S    
C51   H34   1.111713 S    
C23   O13   1.386903 S    
O20   C48   1.411159 S    
Cu1   Cu2   2.696777 S    
C37   H4    1.112186 S    
C17   O9    1.388178 S    
Cu1   O7    1.964325 S    
C21   C25   1.399134 A    
C25   C26   1.405644 A    
C45   O17   1.216872 D    
C8    C9    1.404096 A    
C7    C50   1.486458 S    
O4    C2    1.301165 A    
O7    C4    1.295051 A    
C38   O10   1.220478 D    
O24   C52   1.407428 S    
C52   H37   1.113419 S    
C19   C27   1.413611 A    
C39   O11   1.220041 D    
C23   C24   1.420945 A    
C31   O19   1.390802 S    
O5    C3    1.297720 A    
O23   C51   1.410489 S    
C53   H42   1.103770 S    
C45   H20   1.068632 S    
C49   H31   1.109825 S    
C2    C18   1.498264 S    
C24   C25   1.419374 A    
Cu1   N1    2.026099 S    
C35   H3    1.083347 S    
C50   H33   1.083956 S    
C20   C22   1.408599 A    
C51   H36   1.104108 S    
C22   C40   1.466771 S    
C37   H6    1.107310 S    
C6    C17   1.396148 A    
C43   H17   1.105611 S    
O13   C41   1.414182 S    
C47   H25   1.113837 S    
C6    C16   1.412634 A    
C50   O22   1.219761 D    
N2    C30   1.375251 A    
C5    O20   1.383226 S    
C42   H15   1.108532 S    
N1    C35   1.347699 A    
C44   O16   1.214454 D    
C44   H19   1.085658 S    
C37   H5    1.108142 S    
C15   H1    1.072088 S    
C41   H10   1.113339 S    
C3    C19   1.464374 S    
C14   C15   1.401178 A    
C42   H14   1.109197 S    
O3    Cu1   1.966028 S    
C31   C32   1.452908 A    
C19   C26   1.403031 A    
C39   H8    1.085301 S    
C41   H11   1.109284 S    
N2    C31   1.390677 A    
C24   C28   1.419189 A    
C29   C30   1.430717 A    
C27   C38   1.479355 S    
C5    C17   1.409992 A    
C33   C34   1.437100 A    
C46   H23   1.107309 S    
Cu2   O8    1.966028 S    
C10   C11   1.414230 A    
C7    C8    1.402538 A    
C20   C23   1.412788 A    
C51   H35   1.114536 S    
O15   C43   1.406909 S    
C1    C20   1.477047 S    
C53   H40   1.113147 S    
O3    C2    1.315216 A    
C11   C18   1.423941 A    
C46   H22   1.105786 S    
C35   C36   1.402815 A    
C47   H26   1.107780 S    
C48   H28   1.108511 S    
C4    C6    1.477700 S    
C10   C12   1.432720 A    
C34   O14   1.384144 S    
O9    C37   1.404426 S    
C9    O23   1.381590 S    
C29   O15   1.400300 S    
Cu1   O5    1.978315 S    
C11   C15   1.408099 A    
C32   C33   1.418046 A    
O1    Cu1   1.971797 S    
C7    C18   1.414457 A    
C12   C13   1.421305 A    
O2    Cu2   1.978313 S    
Cu2   N2    2.025865 S    
C42   H13   1.097653 S    
C30   C45   1.478906 S    
O6    C3    1.299621 A    
C8    O24   1.381418 S    
O4    Cu2   1.964325 S    
C48   H29   1.110817 S    
C32   C36   1.444151 A    
C52   H39   1.108529 S    
C41   H12   1.109422 S    
C21   C22   1.383272 A    
C9    C10   1.422940 A    
O2    C1    1.303940 A    
O8    C4    1.312072 A    
O14   C42   1.411872 S    
C16   O21   1.383343 S    
C43   H18   1.109047 S    
C38   H7    1.085582 S    
C27   C28   1.412871 A    
C26   O25   1.391346 S    
C28   C39   1.494913 S    
C5    C13   1.414085 A    
O19   C47   1.419837 S    
N1    C34   1.369867 A    
C52   H38   1.111941 S    
C49   H32   1.113373 S    
C21   H2    1.080898 S    
O21   C49   1.409802 S    
C14   O18   1.389727 S    
C53   H41   1.109338 S    
C13   C14   1.400227 A    
C40   H9    1.085486 S    
C46   H21   1.105637 S    
Cu2   O6    1.971798 S    
C48   H27   1.111420 S    
C12   C16   1.415385 A    
C49   H30   1.113920 S    
O25   C53   1.416117 S    
O1    C1    1.301247 A    
C29   C33   1.413595 A    
C36   C44   1.472007 S    
