data_mof_unit_52220.cif
_audit_creation_date              2012-12-11T15:21:36-0500
_audit_creation_method            fapswitch 2.2
_symmetry_space_group_name_H-M    P1
_symmetry_Int_Tables_number       1
_space_group_crystal_system       triclinic
_cell_length_a                    19.075079
_cell_length_b                    7.143809
_cell_length_c                    17.890047
_cell_angle_alpha                 89.997098
_cell_angle_beta                  109.061524
_cell_angle_gamma                 90.005969
_cell_volume                      2304.18247473

loop_
_atom_site_label
_atom_site_type_symbol
_atom_type_description
_atom_site_fract_x
_atom_site_fract_y
_atom_site_fract_z
_atom_type_partial_charge
O1    O     O_R   0.562310 0.505770 0.439670 -0.541938
O2    O     O_R   0.437690 0.005770 0.560330 -0.541920
O3    O     O_R   0.411650 0.169150 0.405330 -0.543309
O4    O     O_R   0.588350 0.669150 0.594670 -0.543174
C1    C     C_R   0.384184 0.345304 0.383598 0.637175
C2    C     C_R   0.615811 0.845308 0.616407 0.637247
O5    O     O_R   0.560140 0.175610 0.430010 -0.509813
O6    O     O_R   0.439860 0.675610 0.569990 -0.509891
O7    O     O_R   0.587240 0.012100 0.585200 -0.541737
O8    O     O_R   0.412760 0.512100 0.414800 -0.541725
C3    C     C_R   0.582000 0.344436 0.416048 0.727978
C4    C     C_R   0.417979 0.844418 0.583928 0.727731
O9    O     O_3   0.508720 0.341420 0.550890 -0.372133
O10   O     O_3   0.491280 0.841420 0.449110 -0.372172
V1    V     V_3+5 0.498380 0.063930 0.490560 1.420813
V2    V     V_3+5 0.501620 0.563930 0.509440 1.420932
C5    C     C_R   0.185976 0.784986 0.880027 0.388482
C6    C     C_R   0.814114 0.284713 0.120081 0.388566
C7    C     C_R   0.126613 0.914530 0.860827 -0.254006
C8    C     C_R   0.873417 0.414458 0.139204 -0.253969
C9    C     C_R   0.115079 0.033022 0.793701 0.282713
C10   C     C_R   0.884916 0.533073 0.206284 0.282662
C11   C     C_R   0.164301 0.023983 0.749183 0.001100
C12   C     C_R   0.835694 0.524025 0.250802 0.001109
C13   C     C_R   0.220948 0.887725 0.766940 -0.055799
C14   C     C_R   0.779078 0.387665 0.233089 -0.055833
C15   C     C_R   0.229350 0.762529 0.830093 0.009189
C16   C     C_R   0.770738 0.262292 0.170014 0.009138
C17   C     C_R   0.156127 0.144973 0.684889 -0.188516
C18   C     C_R   0.843847 0.645096 0.315060 -0.188592
C19   C     C_R   0.205084 0.138291 0.640846 0.388983
C20   C     C_R   0.794879 0.638439 0.359092 0.388941
C21   C     C_R   0.262474 0.004034 0.659239 0.002049
C22   C     C_R   0.737491 0.504140 0.340714 0.002037
C23   C     C_R   0.269436 0.876068 0.721452 -0.013806
C24   C     C_R   0.730567 0.376059 0.278553 -0.013769
C25   C     C_R   0.324152 0.734267 0.737671 0.024184
C26   C     C_R   0.675883 0.234154 0.262379 0.024052
C27   C     C_R   0.328670 0.604118 0.797894 -0.207144
C28   C     C_R   0.671448 0.103797 0.202257 -0.207458
C29   C     C_R   0.282406 0.618934 0.843778 -0.176127
C30   C     C_R   0.717737 0.118551 0.156400 -0.176045
C31   C     C_R   0.312347 0.993576 0.616067 -0.244484
C32   C     C_R   0.687599 0.493718 0.383863 -0.244490
C33   C     C_R   0.367420 0.854042 0.632094 -0.185864
C34   C     C_R   0.632552 0.354091 0.367875 -0.185751
C35   C     C_R   0.372916 0.723154 0.693064 0.335699
C36   C     C_R   0.627096 0.223083 0.306963 0.335700
H1    H     H_    0.111339 0.245978 0.667847 0.190078
H2    H     H_    0.888633 0.746128 0.332088 0.190040
H3    H     H_    0.307519 0.091878 0.568502 0.175787
H4    H     H_    0.692399 0.592104 0.431390 0.175896
H5    H     H_    0.368654 0.491058 0.810588 0.160171
H6    H     H_    0.631517 0.990602 0.189626 0.160069
H7    H     H_    0.288525 0.517151 0.890361 0.151570
H8    H     H_    0.711680 0.016609 0.109891 0.151603
C37   C     C_3   0.798530 0.699177 0.784114 -0.315621
C38   C     C_3   0.201325 0.199257 0.216056 -0.315410
H9    H     H_    0.846036 0.635520 0.770311 0.146485
H10   H     H_    0.153760 0.135946 0.229869 0.146538
H11   H     H_    0.792695 0.619236 0.834721 0.155654
H12   H     H_    0.207147 0.118981 0.165528 0.155645
C39   C     C_3   0.726577 0.673365 0.712883 -0.345278
C40   C     C_3   0.273234 0.173458 0.287343 -0.345454
H13   H     H_    0.688473 0.577412 0.729977 0.149208
H14   H     H_    0.311255 0.076981 0.270379 0.149170
H15   H     H_    0.740147 0.606122 0.663191 0.141165
H16   H     H_    0.259577 0.106808 0.337110 0.141175
H17   H     H_    0.757087 0.926148 0.612035 0.137071
H18   H     H_    0.243050 0.427531 0.388023 0.136930
C41   C     C_3   0.817840 0.020785 0.734464 0.209658
C42   C     C_3   0.182244 0.521277 0.265462 0.209567
C43   C     C_3   0.746253 0.983208 0.828312 -0.397298
C44   C     C_3   0.253780 0.482758 0.171614 -0.397195
C45   C     C_3   0.814364 0.909978 0.808260 0.059834
C46   C     C_3   0.185631 0.410010 0.191744 0.059899
H19   H     H_    0.753716 0.134423 0.842562 0.149186
H20   H     H_    0.246439 0.633991 0.157349 0.149101
H21   H     H_    0.741950 0.908645 0.881259 0.157706
H22   H     H_    0.257981 0.408088 0.118648 0.157766
C47   C     C_3   0.688321 0.864290 0.685907 0.097478
C48   C     C_3   0.311669 0.364302 0.314102 0.097589
C49   C     C_3   0.744870 0.990788 0.662875 -0.351972
C50   C     C_3   0.255246 0.491480 0.337029 -0.351733
C51   C     C_3   0.673303 0.955952 0.757958 -0.345691
C52   C     C_3   0.326741 0.455229 0.241932 -0.345912
H23   H     H_    0.634982 0.866573 0.777501 0.132083
H24   H     H_    0.364896 0.365209 0.222414 0.132291
H25   H     H_    0.645738 0.094055 0.740801 0.148655
H26   H     H_    0.354521 0.593155 0.258949 0.148546
H27   H     H_    0.822105 0.172507 0.749516 0.117390
H28   H     H_    0.178004 0.672924 0.250272 0.117358
H29   H     H_    0.719823 0.130093 0.642471 0.129135
H30   H     H_    0.280402 0.630835 0.357184 0.129202
O11   O     O_R   0.087220 0.271820 0.085230 -0.548248
O12   O     O_R   0.912780 0.771820 0.914770 -0.548239
O13   O     O_R   0.939860 0.595540 0.069990 -0.541183
O14   O     O_R   0.060140 0.095540 0.930010 -0.541256
C53   C     C_R   0.920833 0.426208 0.087156 0.747524
C54   C     C_R   0.079177 0.926226 0.912855 0.747656
O15   O     O_R   0.088340 0.601930 0.094680 -0.542793
O16   O     O_R   0.911660 0.101930 0.905320 -0.542849
O17   O     O_R   0.062310 0.765410 0.939660 -0.506874
O18   O     O_R   0.937690 0.265410 0.060340 -0.506865
C55   C     C_R   0.114887 0.431142 0.119403 0.689071
C56   C     C_R   0.885110 0.931134 0.880599 0.689147
O19   O     O_3   0.991270 0.429630 0.949130 -0.373609
O20   O     O_3   0.008730 0.929630 0.050870 -0.373538
V3    V     V_3+5 0.001620 0.707150 0.009440 1.475208
V4    V     V_3+5 0.998380 0.207150 0.990560 1.475040
O21   O     O_3   0.203331 0.684405 0.949896 -0.550964
C57   C     C_3   0.265038 0.769256 0.007013 0.067891
H31   H     H_    0.307703 0.824128 0.982391 0.111879
H32   H     H_    0.293786 0.660690 0.050339 0.134729
C58   C     C_3   0.239984 0.925914 0.050250 -0.780936
H33   H     H_    0.191687 0.879609 0.067153 0.229192
H34   H     H_    0.285738 0.963861 0.104355 0.173756
H35   H     H_    0.224471 0.051973 0.012123 0.206926
O22   O     O_3   0.796809 0.183897 0.050279 -0.550917
C59   C     C_3   0.735069 0.268455 0.993109 0.068162
H36   H     H_    0.692370 0.323279 0.017690 0.111819
H37   H     H_    0.706373 0.159709 0.949850 0.134658
C60   C     C_3   0.760059 0.425073 0.949787 -0.781088
H38   H     H_    0.808499 0.379039 0.933081 0.229373
H39   H     H_    0.714354 0.462380 0.895536 0.173785
H40   H     H_    0.775328 0.551429 0.987771 0.206794
O23   O     O_3   0.881400 0.974803 0.714736 -0.657462
H41   H     H_    0.874450 0.848144 0.690807 0.302552
O24   O     O_3   0.118707 0.475609 0.285296 -0.657500
H42   H     H_    0.125669 0.349130 0.309400 0.302533
O25   O     O_3   0.056661 0.158091 0.769781 -0.627987
H43   H     H_    0.015819 0.112939 0.787693 0.323962
O26   O     O_3   0.943302 0.658272 0.230155 -0.627962
H44   H     H_    0.984170 0.613090 0.212299 0.323977
O27   O     O_3   0.190990 0.249129 0.574139 -0.555113
C61   C     C_3   0.214120 0.434349 0.596927 0.059290
H45   H     H_    0.274583 0.445925 0.606910 0.156179
H46   H     H_    0.202651 0.480262 0.651423 0.132148
C62   C     C_3   0.172966 0.567385 0.530781 -0.654449
H47   H     H_    0.112523 0.561650 0.521523 0.234958
H48   H     H_    0.192754 0.712731 0.546463 0.187581
H49   H     H_    0.182592 0.527955 0.475031 0.225929
O28   O     O_3   0.808965 0.749311 0.425787 -0.555085
C63   C     C_3   0.785926 0.934554 0.402962 0.059218
H50   H     H_    0.725424 0.946126 0.392689 0.156390
H51   H     H_    0.797672 0.980526 0.348632 0.132225
C64   C     C_3   0.826852 0.067516 0.469228 -0.654382
H52   H     H_    0.887354 0.061593 0.478868 0.235132
H53   H     H_    0.807191 0.212903 0.453441 0.187556
H54   H     H_    0.816860 0.028188 0.524795 0.225705
O29   O     O_3   0.423098 0.577125 0.706243 -0.550253
C65   C     C_3   0.491532 0.638018 0.759378 0.122003
H55   H     H_    0.486290 0.674068 0.817904 0.102024
H56   H     H_    0.512649 0.762068 0.735731 0.086808
C66   C     C_3   0.547814 0.481212 0.771142 -0.717641
H57   H     H_    0.554027 0.441359 0.713650 0.239775
H58   H     H_    0.602003 0.530038 0.811363 0.153461
H59   H     H_    0.529800 0.357080 0.797530 0.208348
O30   O     O_3   0.577008 0.076855 0.293907 -0.550246
C67   C     C_3   0.508595 0.137121 0.240547 0.121766
H60   H     H_    0.513885 0.171951 0.181922 0.102173
H61   H     H_    0.487431 0.261821 0.263761 0.086490
C68   C     C_3   0.452354 0.980343 0.229257 -0.717076
H62   H     H_    0.445942 0.942092 0.286826 0.239886
H63   H     H_    0.398243 0.028411 0.188648 0.153307
H64   H     H_    0.470533 0.855293 0.203541 0.208382

loop_
_geom_bond_atom_site_label_1
_geom_bond_atom_site_label_2
_ccdc_geom_bond_type
C38   H12   S    
C18   C20   A    
C39   H13   S    
C46   C55   S    
O14   V4    S    
C66   H58   S    
C62   H48   S    
C64   H52   S    
O1    C3    A    
C42   C46   S    
O2    C4    A    
C2    O7    A    
C57   H32   S    
C38   C46   S    
C60   H38   S    
C27   C29   A    
C17   H1    S    
O5    C3    A    
C44   C46   S    
C39   C47   S    
C11   C17   A    
C68   H63   S    
C12   C14   A    
C63   C64   S    
C42   H28   S    
C62   H49   S    
C52   H24   S    
C37   H9    S    
C38   H10   S    
C58   H33   S    
C49   H29   S    
O20   V3    S    
C6    C8    A    
C29   H7    S    
C20   O28   S    
O11   C55   A    
C30   H8    S    
C9    O25   S    
O21   C57   S    
C59   H37   S    
C58   H34   S    
O29   C65   S    
C19   C21   A    
C25   C35   A    
H18   C50   S    
C5    C15   A    
C26   C36   A    
C59   C60   S    
C32   H4    S    
C51   H23   S    
C53   O18   A    
C18   H2    S    
O6    V2    S    
C2    C47   S    
C44   H22   S    
C66   H59   S    
C38   C40   S    
C43   C45   S    
C41   O23   S    
C61   C62   S    
C5    O21   S    
C57   H31   S    
O13   C53   A    
C32   C34   A    
C37   C39   S    
C41   C49   S    
C33   C35   A    
O15   C55   A    
C36   O30   S    
C39   H15   S    
C64   H53   S    
C10   O26   S    
C21   C31   A    
C67   C68   S    
O27   C61   S    
C64   H54   S    
C6    C16   A    
C63   H51   S    
C52   H26   S    
C51   H25   S    
C4    C33   S    
C60   H40   S    
O5    V1    S    
C48   C52   S    
C54   O17   A    
C20   C22   A    
O4    V2    S    
H17   C49   S    
O13   V3    S    
C15   C29   A    
C28   C30   A    
O30   C67   S    
C65   C66   S    
O6    C4    A    
C58   H35   S    
C40   C48   S    
C68   H64   S    
C42   O24   S    
C43   H21   S    
C22   C32   A    
O1    V2    S    
C50   H30   S    
C44   C52   S    
O2    V1    S    
C31   C33   A    
C43   C51   S    
C42   C50   S    
C13   C23   A    
C19   O27   S    
C35   O29   S    
C28   H6    S    
C9    C11   A    
O26   H44   S    
O19   V4    S    
C10   C12   A    
O16   V4    S    
O4    C2    A    
C5    C7    A    
O23   H41   S    
C40   H16   S    
O3    V1    S    
C59   H36   S    
O18   V4    S    
C61   H46   S    
O24   H42   S    
C65   H56   S    
C14   C24   A    
O12   C56   A    
C23   C25   A    
C14   C16   A    
C67   H61   S    
C8    C10   A    
C63   H50   S    
O3    C1    A    
O11   V4    S    
C47   C49   S    
O22   C59   S    
C37   H11   S    
C13   C15   A    
O12   V3    S    
C48   C50   S    
O17   V3    S    
C67   H60   S    
C37   C45   S    
C24   C26   A    
O7    V1    S    
C1    O8    A    
C17   C19   A    
O8    V2    S    
C7    C54   S    
C41   C45   S    
C1    C48   S    
C62   H47   S    
C31   H3    S    
C27   H5    S    
C8    C53   S    
C26   C28   A    
C16   C30   A    
C21   C23   A    
O16   C56   A    
C22   C24   A    
C11   C13   A    
O25   H43   S    
O14   C54   A    
C12   C18   A    
C68   H62   S    
C60   H39   S    
C34   C36   A    
C41   H27   S    
C65   H55   S    
C45   C56   S    
C25   C27   A    
C44   H20   S    
O9    V2    S    
C66   H57   S    
C43   H19   S    
O10   V1    S    
C61   H45   S    
C3    C34   S    
O15   V3    S    
C6    O22   S    
C57   C58   S    
C47   C51   S    
O28   C63   S    
C40   H14   S    
C7    C9    A    
