data_mof_unit_47449.cif
_audit_creation_date              2012-12-10T17:47:51-0500
_audit_creation_method            fapswitch 2.2
_symmetry_space_group_name_H-M    P1
_symmetry_Int_Tables_number       1
_space_group_crystal_system       triclinic
_cell_length_a                    14.629269
_cell_length_b                    14.622031
_cell_length_c                    14.347732
_cell_angle_alpha                 77.870559
_cell_angle_beta                  101.958381
_cell_angle_gamma                 114.682131
_cell_volume                      2701.69846115

loop_
_atom_site_label
_atom_site_type_symbol
_atom_type_description
_atom_site_fract_x
_atom_site_fract_y
_atom_site_fract_z
_atom_type_partial_charge
C1    C     C_R   0.880247 0.312197 0.511205 0.812691
C2    C     C_R   0.119969 0.688084 0.485293 0.802882
C3    C     C_R   0.641653 0.076182 0.480524 0.040832
C4    C     C_R   0.360111 0.925135 0.465357 0.035826
C5    C     C_R   0.677328 0.998019 0.525220 0.041663
C6    C     C_R   0.320717 0.000316 0.420552 0.049085
C7    C     C_R   0.534726 0.052095 0.460336 0.067299
C8    C     C_R   0.466406 0.949703 0.474655 0.058594
C9    C     C_R   0.505462 0.873627 0.492796 -0.227847
C10   C     C_R   0.494027 0.127385 0.434281 -0.211392
C11   C     C_R   0.608469 0.895702 0.521265 -0.038421
C12   C     C_R   0.390037 0.103330 0.410052 -0.052847
C13   C     C_R   0.704921 0.645023 0.324470 -0.123318
C14   C     C_R   0.274906 0.325310 0.658001 -0.132589
C15   C     C_R   0.792910 0.627881 0.361942 0.058883
C16   C     C_R   0.198868 0.363058 0.631570 0.060447
C17   C     C_R   0.715010 0.513539 0.491944 0.055856
C18   C     C_R   0.285288 0.482380 0.508294 0.049512
C19   C     C_R   0.618504 0.516325 0.452677 -0.023384
C20   C     C_R   0.360596 0.441137 0.523843 -0.024827
C21   C     C_R   0.613481 0.584187 0.365824 0.059671
C22   C     C_R   0.356821 0.362107 0.602188 0.050971
C23   C     C_R   0.999728 0.500001 0.668867 0.819507
C24   C     C_R   0.000246 0.499948 0.331139 0.809668
C25   C     C_R   0.528410 0.456269 0.498100 0.023407
C26   C     C_R   0.440350 0.478845 0.464934 0.031444
C27   C     C_R   0.431442 0.530940 0.370236 -0.095415
C28   C     C_R   0.518782 0.369603 0.569790 -0.078163
C29   C     C_R   0.517257 0.584841 0.321948 -0.075181
C30   C     C_R   0.432813 0.321742 0.619211 -0.067746
C31   C     C_1   0.999320 0.500095 0.771087 -0.171516
C32   C     C_1   0.000650 0.499787 0.228946 -0.153268
C33   C     C_1   0.999444 0.500058 0.856529 0.019522
C34   C     C_1   0.000599 0.499779 0.143536 0.031064
C35   C     C_1   0.999866 0.499952 0.957292 0.033258
C36   C     C_1   0.000260 0.499857 0.042803 0.035277
C37   C     C_R   0.812435 0.204118 0.512304 -0.097972
C38   C     C_R   0.187866 0.796396 0.469018 -0.111527
C39   C     C_R   0.780066 0.026519 0.570018 -0.021481
C40   C     C_R   0.213879 0.968452 0.391778 -0.023521
C41   C     C_R   0.844137 0.129209 0.567283 -0.228751
C42   C     C_R   0.150032 0.866510 0.412677 -0.227384
C43   C     C_R   0.714779 0.175703 0.459791 -0.055696
C44   C     C_R   0.292010 0.828590 0.502915 -0.086939
Cu1   Cu    Cu3+1 0.081740 0.475690 0.523180 0.963760
Cu2   Cu    Cu3+1 0.918260 0.524310 0.476820 0.965024
H1    H     H_    0.455411 0.795468 0.485343 0.149545
H2    H     H_    0.542032 0.206752 0.434021 0.167333
N1    N     N_R   0.795420 0.560790 0.441960 -0.185862
N2    N     N_R   0.204580 0.439210 0.558040 -0.180680
O1    O     O_R   0.977910 0.338120 0.530560 -0.587643
O2    O     O_R   0.022090 0.661880 0.469440 -0.581486
O3    O     O_R   0.839850 0.379180 0.491410 -0.555586
O4    O     O_R   0.160150 0.620820 0.508590 -0.572411
O5    O     O_R   0.069040 0.479460 0.643530 -0.562297
O6    O     O_R   0.930960 0.520540 0.356470 -0.564960
O7    O     O_R   0.930990 0.520530 0.604380 -0.558541
O8    O     O_R   0.069010 0.479470 0.395620 -0.547014
C45   C     C_1   0.639607 0.811091 0.539305 0.260711
N3    N     N_1   0.663634 0.742820 0.553175 -0.265203
C46   C     C_1   0.358994 0.188248 0.383883 0.257968
N4    N     N_1   0.335120 0.256824 0.363304 -0.252967
C47   C     C_1   0.331845 0.514148 0.314656 0.253765
N5    N     N_1   0.252847 0.500682 0.270064 -0.253976
C48   C     C_1   0.588257 0.318376 0.585762 0.196503
N6    N     N_1   0.643042 0.276807 0.599989 -0.275433
C49   C     C_1   0.325555 0.770458 0.587901 0.267653
N7    N     N_1   0.352087 0.724197 0.655673 -0.249140
C50   C     C_1   0.697657 0.241940 0.373255 0.245433
N8    N     N_1   0.684397 0.294832 0.304240 -0.257373
H3    H     H_    0.069727 0.841912 0.385548 0.163528
H4    H     H_    0.920017 0.150824 0.607017 0.161456
C51   C     C_1   0.820760 0.954878 0.627684 0.260020
N9    N     N_1   0.854037 0.898156 0.674175 -0.241058
C52   C     C_1   0.166312 0.034550 0.334183 0.254850
N10   N     N_1   0.127386 0.086702 0.287888 -0.235607
C53   C     C_1   0.502095 0.633917 0.224134 0.274047
N11   N     N_1   0.488747 0.672311 0.146207 -0.228164
C54   C     C_1   0.422286 0.227477 0.683324 0.276154
N12   N     N_1   0.414903 0.152326 0.733660 -0.230513
H5    H     H_    0.289957 0.549243 0.457095 0.125744
H6    H     H_    0.729113 0.475606 0.562594 0.144252
H7    H     H_    0.134163 0.332056 0.670805 0.135316
H8    H     H_    0.860651 0.668338 0.327055 0.129917
C55   C     C_1   0.714759 0.727607 0.246291 0.235682
N13   N     N_1   0.723804 0.794197 0.184005 -0.230721
C56   C     C_1   0.265524 0.252350 0.744525 0.238301
N14   N     N_1   0.257085 0.194252 0.814069 -0.228495

loop_
_geom_bond_atom_site_label_1
_geom_bond_atom_site_label_2
_ccdc_geom_bond_type
C7    C10   A    
C56   N14   T    
C27   C29   A    
C51   N9    T    
C35   C36   T    
C4    C8    A    
C7    C8    A    
C39   C41   A    
C53   N11   T    
C25   C28   A    
Cu2   N1    S    
C3    C43   A    
C26   C27   A    
C19   C21   A    
C16   N2    A    
C14   C56   S    
C5    C11   A    
C3    C7    A    
C6    C12   A    
Cu1   O1    S    
Cu2   O2    S    
C18   H5    S    
C17   H6    S    
C1    O3    A    
C17   C19   A    
C8    C9    A    
C31   C33   T    
C34   C36   S    
C1    C37   S    
C40   C42   A    
C45   N3    T    
C43   C50   S    
C50   N8    T    
C11   C45   S    
C10   C12   A    
Cu1   O8    S    
C49   N7    T    
C6    C40   A    
C4    C6    A    
C2    O4    A    
C17   N1    A    
C4    C44   A    
C25   C26   A    
C55   N13   T    
C21   C29   A    
C16   H7    S    
C47   N5    T    
C15   N1    A    
C23   C31   S    
C37   C43   A    
C52   N10   T    
C24   C32   S    
C38   C44   A    
C9    C11   A    
C2    C38   S    
C13   C21   A    
C1    O1    A    
C2    O2    A    
C41   H4    S    
C30   C54   S    
C20   C22   A    
Cu1   O4    S    
C9    H1    S    
C13   C15   A    
Cu2   O7    S    
C10   H2    S    
C14   C16   A    
Cu2   O6    S    
C18   N2    A    
C23   O7    A    
C5    C39   A    
C22   C30   A    
C3    C5    A    
C23   O5    A    
C15   H8    S    
C24   O6    A    
C40   C52   S    
C14   C22   A    
C28   C30   A    
C28   C48   S    
C12   C46   S    
C20   C26   A    
Cu1   N2    S    
Cu2   O3    S    
C42   H3    S    
C33   C35   S    
C18   C20   A    
C39   C51   S    
C37   C41   A    
C46   N4    T    
C19   C25   A    
C54   N12   T    
C38   C42   A    
Cu1   Cu2   S    
C29   C53   S    
Cu1   O5    S    
C24   O8    A    
C48   N6    T    
C13   C55   S    
C27   C47   S    
C44   C49   S    
C32   C34   T    
