data_mof_unit_53762.cif
_audit_creation_date              2012-12-11T16:24:08-0500
_audit_creation_method            fapswitch 2.2
_symmetry_space_group_name_H-M    P1
_symmetry_Int_Tables_number       1
_space_group_crystal_system       triclinic
_cell_length_a                    14.719226
_cell_length_b                    14.747428
_cell_length_c                    33.074073
_cell_angle_alpha                 96.061529
_cell_angle_beta                  96.020709
_cell_angle_gamma                 61.187145
_cell_volume                      6243.39778004

loop_
_atom_site_label
_atom_site_type_symbol
_atom_type_description
_atom_site_fract_x
_atom_site_fract_y
_atom_site_fract_z
_atom_type_partial_charge
C1    C     C_R   0.390813 0.699900 0.445994 0.579804
C2    C     C_R   0.328611 0.350768 0.307930 -0.048280
C3    C     C_R   0.419198 0.273725 0.326030 0.366302
C4    C     C_R   0.439367 0.279416 0.367953 0.380080
C5    C     C_R   0.397901 0.261144 0.164674 0.092145
C6    C     C_R   0.390129 0.245388 0.122230 0.311687
C7    C     C_R   0.216274 0.393200 0.119570 0.085254
C8    C     C_R   0.224704 0.409332 0.162046 0.331982
C9    C     C_R   0.312492 0.340380 0.184539 -0.018628
C10   C     C_1   0.313568 0.349256 0.228071 0.123266
C11   C     C_1   0.317420 0.351867 0.264521 0.142809
C12   C     C_R   0.405295 0.385610 0.434061 0.561714
C13   C     C_R   0.295451 0.303603 0.100018 -0.026963
C14   C     C_R   0.749522 0.374837 0.407735 -0.063797
C15   C     C_R   0.737976 0.448305 0.380952 0.333585
C16   C     C_R   0.758644 0.419260 0.339819 0.076198
C17   C     C_R   0.795611 0.314156 0.325673 -0.078996
C18   C     C_R   0.816095 0.239581 0.353193 0.415829
C19   C     C_R   0.792252 0.269679 0.393815 0.367598
C20   C     C_R   0.837841 0.250912 0.201455 0.317217
C21   C     C_R   0.808307 0.283260 0.282124 0.395612
C22   C     C_R   0.902935 0.324899 0.155370 0.126426
C23   C     C_R   0.699968 0.410251 0.447021 0.596355
C24   C     C_R   0.908745 0.348883 0.115778 0.126444
C25   C     C_R   0.857511 0.219166 0.087097 0.121728
C26   C     C_R   0.831399 0.211730 0.125992 0.108334
C27   C     C_R   0.860305 0.259420 0.160332 -0.008178
C28   C     C_R   0.903826 0.281931 0.082384 -0.020298
C29   C     C_R   0.371347 0.753097 0.408066 -0.073412
C30   C     C_R   0.296955 0.749313 0.378345 0.378879
C31   C     C_R   0.297103 0.770164 0.338478 0.374906
C32   C     C_R   0.369580 0.797320 0.327530 -0.056243
C33   C     C_R   0.435923 0.813355 0.357502 0.312309
C34   C     C_R   0.391885 0.704440 0.561035 0.566654
C35   C     C_R   0.437200 0.791807 0.398062 0.092896
C36   C     C_R   0.374192 0.814938 0.203358 0.319713
C37   C     C_R   0.379109 0.801313 0.284357 0.408235
C38   C     C_R   0.261529 0.839921 0.139561 0.107255
C39   C     C_R   0.237529 0.866425 0.098775 0.129186
C40   C     C_R   0.402297 0.868086 0.097682 0.105474
C41   C     C_R   0.428172 0.837623 0.137980 0.109992
C42   C     C_R   0.355301 0.829452 0.159587 0.003437
C43   C     C_R   0.302482 0.892461 0.079322 -0.001667
C44   C     C_R   0.366821 0.361357 0.583237 -0.041205
C45   C     C_R   0.405669 0.387159 0.548425 0.555462
C46   C     C_R   0.267224 0.428576 0.598067 0.098790
C47   C     C_R   0.246734 0.420726 0.637909 0.108332
C48   C     C_R   0.324002 0.343547 0.662337 -0.021403
C49   C     C_R   0.413929 0.265992 0.644581 0.340839
C50   C     C_R   0.434334 0.272401 0.604973 0.151657
C51   C     C_R   0.319004 0.349531 0.788929 0.376547
C52   C     C_R   0.315504 0.345655 0.706633 0.344121
C53   C     C_R   0.225643 0.412564 0.852750 0.366386
C54   C     C_R   0.214289 0.392257 0.891601 0.320754
C55   C     C_R   0.391748 0.252553 0.894145 0.295532
C56   C     C_R   0.702004 0.412946 0.562502 0.597080
C57   C     C_R   0.404774 0.274650 0.855541 0.071911
C58   C     C_R   0.318076 0.349111 0.833355 -0.051084
C59   C     C_R   0.294044 0.306336 0.911133 -0.043325
C60   C     C_R   0.752139 0.379523 0.603146 -0.066681
C61   C     C_R   0.827022 0.406469 0.621601 0.315735
C62   C     C_R   0.858819 0.390156 0.662802 0.376336
C63   C     C_R   0.816757 0.345925 0.685594 -0.082223
C64   C     C_R   0.746164 0.313402 0.666803 0.085171
C65   C     C_R   0.714781 0.329917 0.625782 0.323439
C66   C     C_R   0.890472 0.224775 0.821364 0.366084
C67   C     C_R   0.368945 0.363623 0.392481 -0.084530
C68   C     C_R   0.902484 0.209065 0.863413 0.112347
C69   C     C_R   0.849964 0.393360 0.878095 0.129183
C70   C     C_R   0.832011 0.409082 0.836129 0.088514
C71   C     C_R   0.859399 0.322949 0.808063 -0.003554
C72   C     C_1   0.849472 0.334369 0.765032 0.056797
C73   C     C_1   0.838341 0.340785 0.728804 0.058349
C74   C     C_R   0.897826 0.291255 0.891366 -0.038073
C75   C     C_R   0.367351 0.771667 0.600129 -0.023004
C76   C     C_R   0.264631 0.822586 0.613838 0.111809
C77   C     C_R   0.246603 0.865209 0.654389 0.084930
C78   C     C_R   0.271386 0.434967 0.374463 0.089220
C79   C     C_R   0.330448 0.857799 0.680995 0.006510
C80   C     C_R   0.427324 0.823436 0.665924 0.360019
C81   C     C_R   0.446976 0.779981 0.625872 0.091483
C82   C     C_R   0.391520 0.893478 0.831000 0.099728
C83   C     C_R   0.387160 0.894791 0.873815 0.126684
C84   C     C_R   0.230458 0.875614 0.862093 0.130581
C85   C     C_R   0.240748 0.865885 0.820162 0.403178
C86   C     C_R   0.316070 0.881536 0.804480 -0.017734
C87   C     C_1   0.317977 0.879908 0.760896 0.058651
C88   C     C_1   0.321643 0.874081 0.724454 0.062797
C89   C     C_R   0.253042 0.428945 0.331930 0.352737
C90   C     C_R   0.295579 0.904291 0.889088 -0.072051
C91   C     C_R   0.961663 0.265111 0.045489 0.562832
C92   C     C_R   0.274008 0.261892 0.059392 0.572975
C93   C     C_R   0.260653 0.956942 0.043278 0.559533
C94   C     C_R   0.958551 0.269231 0.931493 0.570915
C95   C     C_R   0.271864 0.264858 0.945638 0.593932
C96   C     C_R   0.258265 0.961318 0.929353 0.534116
Cr1   Cr    Cr6+3 0.576280 0.580550 0.506370 1.097798
Cr2   Cr    Cr6+3 0.346780 0.572400 0.496520 1.058655
Cr3   Cr    Cr6+3 0.576960 0.347070 0.497150 1.170356
Cr4   Cr    Cr6+3 0.087320 0.083240 0.984860 1.005513
Cr5   Cr    Cr6+3 0.087720 0.316210 0.996740 1.065223
Cr6   Cr    Cr6+3 0.317350 0.090340 0.995890 1.068717
N1    N     N_R   0.742878 0.317680 0.214957 -0.230515
N2    N     N_R   0.270301 0.437203 0.729168 -0.241267
N3    N     N_R   0.362109 0.256292 0.726139 -0.121308
N4    N     N_R   0.363546 0.258174 0.766433 -0.209489
N5    N     N_R   0.728259 0.333118 0.254603 -0.219509
N6    N     N_R   0.902468 0.213315 0.268610 -0.154152
N7    N     N_R   0.917163 0.198001 0.228889 -0.238455
N8    N     N_R   0.381502 0.729242 0.218011 -0.226306
N9    N     N_R   0.383606 0.722726 0.257857 -0.181272
N10   N     N_R   0.375338 0.885704 0.269838 -0.139763
N11   N     N_R   0.372394 0.892568 0.229870 -0.245988
N12   N     N_R   0.271087 0.439174 0.769559 -0.141866
O1    O     O_R   0.679450 0.499830 0.463150 -0.437859
O2    O     O_R   0.356040 0.477400 0.534170 -0.529388
O3    O     O_R   0.495910 0.323070 0.537100 -0.432058
O4    O     O_R   0.663920 0.359620 0.542290 -0.433801
O5    O     O_3   0.500010 0.500010 0.500010 -0.300081
O6    O     O_R   0.170070 0.978950 0.027680 -0.498328
O7    O     O_R   0.001760 0.175230 0.026640 -0.482705
O8    O     O_R   0.984760 0.333570 0.037150 -0.511306
O9    O     O_R   0.183410 0.309240 0.041890 -0.476370
O10   O     O_R   0.340240 0.172500 0.045430 -0.467038
O11   O     O_R   0.309670 0.000990 0.032050 -0.484737
O12   O     O_R   0.480650 0.664000 0.464630 -0.467386
O13   O     O_R   0.168330 0.982130 0.939200 -0.512714
O14   O     O_R   0.000140 0.178170 0.944610 -0.497426
O15   O     O_R   0.983010 0.336750 0.948660 -0.471058
O16   O     O_R   0.181800 0.312190 0.959860 -0.452524
O17   O     O_R   0.338500 0.175680 0.956950 -0.435970
O18   O     O_R   0.308050 0.003930 0.950020 -0.492190
O19   O     O_3   0.164130 0.163270 0.992500 -0.266792
O20   O     O_R   0.323930 0.675950 0.455370 -0.428522
O21   O     O_R   0.354700 0.475360 0.451930 -0.470762
O22   O     O_R   0.494470 0.320860 0.448390 -0.432237
O23   O     O_R   0.662580 0.357570 0.460050 -0.445231
O24   O     O_R   0.680900 0.502040 0.551870 -0.486885
O25   O     O_R   0.481990 0.666040 0.546870 -0.479092
O26   O     O_R   0.325370 0.678160 0.544080 -0.492290
F1    F     F_    0.473787 0.170474 0.103087 -0.655938
F2    F     F_    0.807195 0.196372 0.419177 -0.529496
N13   N     N_2   0.915268 0.440442 0.108842 -0.486343
H1    H     H_    0.885131 0.467212 0.080407 0.267230
C97   C     C_3   0.877578 0.527942 0.138757 -0.277687
H2    H     H_    0.856942 0.600550 0.124163 0.112724
H3    H     H_    0.939370 0.518020 0.162873 0.240428
H4    H     H_    0.807099 0.537574 0.152080 0.151172
N14   N     N_2   0.744299 0.496230 0.313387 -0.440843
H5    H     H_    0.791389 0.469502 0.289183 0.254860
C98   C     C_3   0.637148 0.567664 0.301977 -0.199097
H6    H     H_    0.634180 0.627268 0.283191 0.172728
H7    H     H_    0.593137 0.607834 0.329343 0.212988
H8    H     H_    0.599181 0.525842 0.283956 0.159510
F3    F     F_    0.853102 0.138278 0.340107 -0.507378
N15   N     N_2   0.941324 0.365880 0.189919 -0.509554
H9    H     H_    0.902796 0.383107 0.216234 0.267842
C99   C     C_3   0.053243 0.312965 0.196648 -0.259658
H10   H     H_    0.076826 0.354303 0.222058 0.194381
H11   H     H_    0.090451 0.311848 0.168921 0.173673
H12   H     H_    0.080929 0.232084 0.204659 0.153534
N16   N     N_2   0.826257 0.173788 0.051936 -0.493949
H13   H     H_    0.748014 0.195788 0.049364 0.279821
C100  C     C_3   0.891382 0.063771 0.043107 -0.245026
H14   H     H_    0.854815 0.019487 0.052636 0.135037
H15   H     H_    0.969730 0.036055 0.058781 0.183323
H16   H     H_    0.900391 0.048472 0.009798 0.148294
N17   N     N_2   0.776431 0.156133 0.130029 -0.495242
H17   H     H_    0.711249 0.197808 0.146444 0.276325
C101  C     C_3   0.839893 0.052169 0.143369 -0.289096
H18   H     H_    0.866970 0.054507 0.175879 0.166435
H19   H     H_    0.908267 0.008133 0.124726 0.136792
H20   H     H_    0.793157 0.010790 0.140043 0.162149
F4    F     F_    0.228963 0.717238 0.386740 -0.539279
N18   N     N_2   0.507979 0.804197 0.428070 -0.429128
H21   H     H_    0.572927 0.799483 0.416773 0.337023
C102  C     C_3   0.459878 0.892032 0.457037 -0.268472
H22   H     H_    0.424024 0.965493 0.441248 0.170448
H23   H     H_    0.519642 0.892636 0.480372 0.145669
H24   H     H_    0.399539 0.887128 0.472824 0.143470
N19   N     N_2   0.147779 0.867118 0.077406 -0.491837
H25   H     H_    0.087774 0.882441 0.095091 0.262397
C103  C     C_3   0.170454 0.779119 0.048564 -0.288129
H26   H     H_    0.097197 0.787682 0.032169 0.129334
H27   H     H_    0.207530 0.706287 0.064750 0.139199
H28   H     H_    0.223130 0.774269 0.025739 0.156811
N20   N     N_2   0.490528 0.195348 0.187400 -0.469397
H29   H     H_    0.557506 0.174684 0.173157 0.295910
C104  C     C_3   0.489674 0.106457 0.201798 -0.232750
H30   H     H_    0.484881 0.054808 0.175639 0.133215
H31   H     H_    0.422777 0.131353 0.220828 0.181456
H32   H     H_    0.562274 0.062145 0.220696 0.207234
F5    F     F_    0.228610 0.759744 0.309997 -0.521826
F6    F     F_    0.503272 0.843915 0.346880 -0.580554
N21   N     N_2   0.188213 0.828094 0.160401 -0.523119
H33   H     H_    0.218480 0.762595 0.176515 0.304586
C105  C     C_3   0.116261 0.921131 0.182633 -0.268627
H34   H     H_    0.055626 0.907805 0.194010 0.181739
H35   H     H_    0.077682 0.987049 0.162516 0.139109
H36   H     H_    0.157382 0.941579 0.209102 0.194607
N22   N     N_2   0.477317 0.872521 0.075210 -0.513662
H37   H     H_    0.543148 0.802166 0.071076 0.246426
C106  C     C_3   0.500221 0.956623 0.087810 -0.191134
H38   H     H_    0.564845 0.932528 0.111733 0.156001
H39   H     H_    0.430582 0.025529 0.099701 0.205924
H40   H     H_    0.524231 0.978119 0.061213 0.190487
N23   N     N_2   0.525909 0.820737 0.157053 -0.522307
H41   H     H_    0.521456 0.860788 0.184895 0.272952
C107  C     C_3   0.604253 0.713198 0.157645 -0.301565
H42   H     H_    0.678460 0.708636 0.171194 0.150573
H43   H     H_    0.616535 0.676526 0.126187 0.146888
H44   H     H_    0.581133 0.670277 0.176371 0.166024
N24   N     N_2   0.183558 0.498192 0.572559 -0.488684
H45   H     H_    0.194014 0.554591 0.561369 0.262778
C108  C     C_3   0.140593 0.448888 0.542252 -0.254353
H46   H     H_    0.198954 0.399292 0.519865 0.113069
H47   H     H_    0.071591 0.509122 0.525810 0.154582
H48   H     H_    0.115757 0.400895 0.557075 0.204037
N25   N     N_2   0.524007 0.189230 0.587431 -0.402236
H49   H     H_    0.585616 0.150100 0.607924 0.335820
C109  C     C_3   0.501900 0.119630 0.559083 -0.273104
H50   H     H_    0.574366 0.061191 0.544936 0.160010
H51   H     H_    0.444260 0.163019 0.534445 0.144644
H52   H     H_    0.471219 0.078727 0.575266 0.151787
F7    F     F_    0.122522 0.452701 0.908763 -0.626834
N26   N     N_2   0.145987 0.487554 0.652208 -0.441828
H53   H     H_    0.119964 0.456760 0.671991 0.306501
C110  C     C_3   0.120657 0.594859 0.662283 -0.224753
H54   H     H_    0.054160 0.645147 0.641881 0.171450
H55   H     H_    0.187518 0.608433 0.659086 0.134837
H56   H     H_    0.098082 0.617259 0.694290 0.183162
F8    F     F_    0.484973 0.185171 0.666221 -0.611115
F9    F     F_    0.491287 0.195937 0.302750 -0.557250
F10   F     F_    0.142791 0.488171 0.832735 -0.584842
F11   F     F_    0.473676 0.176306 0.914336 -0.619670
N27   N     N_2   0.503399 0.218207 0.838200 -0.481891
H57   H     H_    0.552767 0.148143 0.850466 0.295322
C111  C     C_3   0.555177 0.278716 0.834239 -0.282362
H58   H     H_    0.574954 0.305943 0.864840 0.151828
H59   H     H_    0.505369 0.346549 0.815932 0.155703
H60   H     H_    0.627976 0.230029 0.818456 0.150310
N28   N     N_2   0.916615 0.114681 0.878384 -0.499841
H61   H     H_    0.887373 0.125484 0.906515 0.252628
C112  C     C_3   0.892357 0.043462 0.851853 -0.225106
H62   H     H_    0.893025 0.984089 0.870143 0.112250
H63   H     H_    0.952584 0.001137 0.829463 0.264950
H64   H     H_    0.813786 0.085276 0.836389 0.170697
F12   F     F_    0.910049 0.145474 0.792753 -0.645228
N29   N     N_2   0.703664 0.266309 0.688985 -0.437927
H65   H     H_    0.753904 0.219492 0.711183 0.278014
C113  C     C_3   0.601852 0.336688 0.703332 -0.233222
H66   H     H_    0.572914 0.292843 0.718581 0.194477
H67   H     H_    0.545889 0.374873 0.677467 0.192458
H68   H     H_    0.605989 0.396730 0.725610 0.106381
F13   F     F_    0.642772 0.302482 0.608861 -0.601718
F14   F     F_    0.867042 0.450977 0.600089 -0.592092
N30   N     N_2   0.785145 0.511519 0.822655 -0.536561
H69   H     H_    0.723015 0.527627 0.801736 0.250762
C114  C     C_3   0.857187 0.541660 0.809642 -0.251451
H70   H     H_    0.888820 0.499737 0.780281 0.193295
H71   H     H_    0.922661 0.524961 0.832797 0.214132
H72   H     H_    0.816035 0.626191 0.805370 0.158621
N31   N     N_2   0.808136 0.479498 0.907245 -0.497460
H73   H     H_    0.728171 0.521595 0.904663 0.247904
C115  C     C_3   0.857798 0.544350 0.913380 -0.226651
H74   H     H_    0.816005 0.612483 0.894520 0.135793
H75   H     H_    0.940042 0.500408 0.905623 0.249113
H76   H     H_    0.855391 0.572763 0.945885 0.142401
F15   F     F_    0.531511 0.205916 0.383859 -0.510700
F16   F     F_    0.927637 0.420838 0.680815 -0.593021
N32   N     N_2   0.474117 0.884093 0.901138 -0.459916
H77   H     H_    0.467292 0.875097 0.930905 0.259620
C116  C     C_3   0.577445 0.809148 0.888922 -0.266040
H78   H     H_    0.630756 0.777837 0.916263 0.108961
H79   H     H_    0.609923 0.847261 0.872217 0.199884
H80   H     H_    0.576437 0.742646 0.869969 0.153087
N33   N     N_2   0.470153 0.906878 0.814968 -0.519149
H81   H     H_    0.495003 0.867868 0.787220 0.287525
C117  C     C_3   0.449531 0.013391 0.816605 -0.248456
H82   H     H_    0.516238 0.016464 0.805215 0.176831
H83   H     H_    0.439135 0.047354 0.848469 0.207360
H84   H     H_    0.378515 0.059904 0.797216 0.170919
F17   F     F_    0.504771 0.827486 0.691015 -0.638173
N34   N     N_2   0.547519 0.743970 0.611957 -0.478079
H85   H     H_    0.569486 0.801093 0.614191 0.281448
C118  C     C_3   0.627116 0.650003 0.629420 -0.216626
H86   H     H_    0.700094 0.623436 0.614191 0.215691
H87   H     H_    0.603115 0.588680 0.625089 0.131903
H88   H     H_    0.642608 0.663717 0.662445 0.198770
N35   N     N_2   0.179408 0.830869 0.586808 -0.464809
H89   H     H_    0.122067 0.906182 0.583284 0.267981
C119  C     C_3   0.138174 0.763154 0.594151 -0.249053
H90   H     H_    0.086007 0.795980 0.619739 0.160781
H91   H     H_    0.092786 0.754670 0.566408 0.154341
H92   H     H_    0.202350 0.685489 0.601488 0.151417
F18   F     F_    0.174302 0.844285 0.794469 -0.600545
N36   N     N_2   0.155155 0.853855 0.876010 -0.450660
H93   H     H_    0.090114 0.917066 0.886899 0.288031
C120  C     C_3   0.196377 0.763676 0.899682 -0.260737
H94   H     H_    0.233282 0.776350 0.929235 0.125666
H95   H     H_    0.254478 0.694485 0.882464 0.174504
H96   H     H_    0.132336 0.748515 0.905823 0.164720
N37   N     N_2   0.144571 0.911091 0.668438 -0.519494
H97   H     H_    0.141033 0.885483 0.695774 0.290536
C121  C     C_3   0.088351 0.022903 0.667862 -0.263048
H98   H     H_    0.007656 0.051636 0.676536 0.177988
H99   H     H_    0.084807 0.047408 0.636853 0.156388
H100  H     H_    0.126528 0.058278 0.689899 0.171200
N38   N     N_2   0.193588 0.514933 0.398624 -0.416921
H101  H     H_    0.142818 0.580113 0.383492 0.354900
C122  C     C_3   0.140519 0.479467 0.422100 -0.266103
H102  H     H_    0.086481 0.545080 0.441938 0.157544
H103  H     H_    0.095168 0.449438 0.401402 0.170364
H104  H     H_    0.196914 0.417440 0.441864 0.129130
F19   F     F_    0.146309 0.490781 0.181583 -0.619963
N39   N     N_2   0.127742 0.466067 0.096893 -0.455696
H105  H     H_    0.062766 0.508521 0.113262 0.304353
C123  C     C_3   0.148682 0.531595 0.074009 -0.278768
H106  H     H_    0.172333 0.581289 0.095181 0.154812
H107  H     H_    0.077411 0.582180 0.055659 0.132169
H108  H     H_    0.211126 0.484125 0.052885 0.154386
F20   F     F_    0.162890 0.500492 0.313893 -0.564576
F21   F     F_    0.701844 0.549538 0.394117 -0.583448

loop_
_geom_bond_atom_site_label_1
_geom_bond_atom_site_label_2
_ccdc_geom_bond_type
C55   C59   A    
Cr4   O13   S    
N22   C106  S    
C36   C42   S    
Cr6   O11   S    
C15   F21   S    
C97   H2    S    
N37   C121  S    
C66   F12   S    
C106  H39   S    
N34   H85   S    
Cr6   O18   S    
C5    C6    A    
N32   H77   S    
C116  H80   S    
N6    N7    A    
C105  H35   S    
N8    N9    A    
C46   C47   A    
C40   C43   A    
C12   O21   A    
N28   C112  S    
C16   N14   S    
C93   O6    A    
Cr1   O1    S    
C112  H62   S    
C118  H88   S    
C34   C75   S    
Cr5   O16   S    
C110  H54   S    
C44   C46   A    
N16   C100  S    
N24   C108  S    
C78   C89   A    
C111  H59   S    
C113  H66   S    
C77   N37   S    
C92   O9    A    
Cr1   O12   S    
N19   H25   S    
C85   F18   S    
C17   C21   S    
C96   O13   A    
N39   H105  S    
C41   N23   S    
C75   C76   A    
N37   H97   S    
C78   N38   S    
C1    C29   S    
C69   C74   A    
C6    F1    S    
C62   F16   S    
N17   H17   S    
C33   F6    S    
C22   C27   A    
C55   C57   A    
C99   H10   S    
C103  H28   S    
C97   H4    S    
C44   C50   A    
N31   C115  S    
C123  H108  S    
C14   C19   A    
C72   C73   T    
C114  H71   S    
C53   C58   A    
Cr5   O19   S    
C29   C35   A    
Cr5   O8    S    
C112  H64   S    
C35   N18   S    
N15   C99   S    
C64   C65   A    
C118  H87   S    
C47   N26   S    
C65   F13   S    
C34   O26   A    
Cr3   O22   S    
C98   H7    S    
C69   C70   A    
C37   N9    A    
Cr3   O5    S    
N21   H33   S    
C48   C52   S    
C80   F17   S    
N35   H89   S    
N1    N5    A    
C53   F10   S    
C30   F4    S    
C110  H56   S    
C3    F9    S    
N13   H1    S    
C7    C8    A    
C69   N31   S    
C85   C86   A    
C38   N21   S    
N29   H65   S    
C109  H50   S    
C18   C19   A    
N14   C98   S    
C38   C39   A    
C101  H18   S    
C24   N13   S    
C68   C74   A    
C50   N25   S    
N27   H57   S    
N18   C102  S    
N30   H69   S    
C13   C92   S    
C104  H31   S    
C123  H107  S    
C70   N30   S    
C102  H23   S    
C95   O16   A    
C9    C10   S    
C76   N35   S    
C121  H100  S    
C117  H83   S    
N33   H81   S    
N36   C120  S    
C84   C90   A    
C2    C11   S    
C107  H42   S    
C54   C59   A    
N38   C122  S    
C51   N12   A    
C1    O12   A    
C108  H48   S    
C31   F5    S    
C113  H68   S    
C25   C26   A    
Cr2   O21   S    
C91   O8    A    
Cr1   O5    S    
C54   F7    S    
C5    C9    A    
C29   C30   A    
Cr3   O3    S    
C31   C32   A    
C7    C13   A    
C98   H6    S    
C46   N24   S    
C17   C18   A    
C21   N5    A    
C32   C37   S    
C115  H75   S    
C52   N3    A    
C102  H22   S    
C122  H103  S    
C36   N8    A    
C3    C4    A    
C81   N34   S    
C84   N36   S    
C45   O3    A    
C4    F15   S    
Cr4   O14   S    
C24   C28   A    
C90   C96   S    
C49   F8    S    
N32   C116  S    
Cr6   O19   S    
C71   C72   S    
C45   O2    A    
C57   C58   A    
C116  H79   S    
C112  H63   S    
C28   C91   S    
C105  H34   S    
C120  H96   S    
C21   N6    A    
C10   C11   T    
C63   C64   A    
C49   C50   A    
C12   O22   A    
N23   C107  S    
C14   C15   A    
Cr3   O23   S    
Cr1   O25   S    
C1    O20   A    
N21   C105  S    
Cr5   O15   S    
C99   H11   S    
C87   C88   T    
C41   C42   A    
C74   C94   S    
C122  H102  S    
C110  H55   S    
N31   H73   S    
C20   N1    A    
N24   H45   S    
C25   C28   A    
C111  H60   S    
C26   C27   A    
C117  H84   S    
C89   F20   S    
C100  H14   S    
C109  H52   S    
C92   O10   A    
C30   C31   A    
C107  H44   S    
N39   C123  S    
Cr4   O7    S    
N36   H93   S    
C99   H12   S    
C16   C17   A    
C117  H82   S    
C70   C71   A    
N17   C101  S    
C95   O17   A    
Cr6   O10   S    
C79   C88   S    
C97   H3    S    
C106  H40   S    
N23   H41   S    
Cr6   O17   S    
N19   C103  S    
N25   H49   S    
C86   C87   S    
C63   C73   S    
C53   C54   A    
C82   C83   A    
C56   C60   S    
C60   C61   A    
C105  H36   S    
C120  H94   S    
C62   C63   A    
C66   C71   A    
N28   H61   S    
C77   C79   A    
C51   C58   S    
C84   C85   A    
C83   N32   S    
C48   C49   A    
C19   F2    S    
C8    F19   S    
C22   C24   A    
C5    N20   S    
C57   N27   S    
C44   C45   S    
N16   H13   S    
C111  H58   S    
C52   N2    A    
C56   O4    A    
C100  H16   S    
C55   F11   S    
C119  H90   S    
C20   C27   S    
C94   O14   A    
N3    N4    A    
C32   C33   A    
C103  H27   S    
N20   H29   S    
C82   C86   A    
N14   H5    S    
C101  H19   S    
N34   C118  S    
C43   C93   S    
N27   C111  S    
C108  H46   S    
C104  H30   S    
C93   O11   A    
C64   N29   S    
C40   N22   S    
C121  H98   S    
C18   F3    S    
Cr3   O4    S    
C101  H20   S    
C66   C68   A    
C106  H38   S    
C2    C89   A    
N22   H37   S    
C7    N39   S    
C103  H26   S    
C114  H72   S    
Cr2   O5    S    
C22   N15   S    
N38   H101  S    
C26   N17   S    
Cr5   O9    S    
N15   H9    S    
C38   C42   A    
C108  H47   S    
C118  H86   S    
C113  H67   S    
C15   C16   A    
C34   O25   A    
C98   H8    S    
C37   N10   A    
C33   C35   A    
N18   H21   S    
C68   N28   S    
C8    C9    A    
Cr4   O6    S    
C115  H74   S    
C96   O18   A    
C61   C62   A    
C67   C78   A    
C59   C95   S    
C36   N11   A    
N10   N11   A    
C12   C67   S    
N29   C113  S    
C94   O15   A    
C76   C77   A    
C75   C81   A    
C39   C43   A    
C121  H99   S    
C119  H91   S    
C79   C80   A    
Cr2   O26   S    
N30   C114  S    
C14   C23   S    
C104  H32   S    
C123  H106  S    
N25   C109  S    
C56   O24   A    
Cr2   O2    S    
C47   C48   A    
C25   N16   S    
C102  H24   S    
C116  H78   S    
C120  H95   S    
C39   N19   S    
N2    N12   A    
C40   C41   A    
N26   H53   S    
C61   F14   S    
N26   C110  S    
N33   C117  S    
C91   O7    A    
C82   N33   S    
C114  H70   S    
Cr1   O24   S    
Cr4   O19   S    
N13   C97   S    
C83   C90   A    
C23   O23   A    
C119  H92   S    
C80   C81   A    
C60   C65   A    
C4    C67   A    
Cr2   O20   S    
C100  H15   S    
C2    C3    A    
C109  H51   S    
C6    C13   A    
C51   N4    A    
C107  H43   S    
N35   C119  S    
C115  H76   S    
N20   C104  S    
C23   O1    A    
C20   N7    A    
C122  H104  S    
