data_mof_unit_23076.cif
_audit_creation_date              2012-12-10T17:29:18-0500
_audit_creation_method            fapswitch 2.2
_symmetry_space_group_name_H-M    P1
_symmetry_Int_Tables_number       1
_space_group_crystal_system       triclinic
_cell_length_a                    12.023806
_cell_length_b                    12.867246
_cell_length_c                    13.129797
_cell_angle_alpha                 87.0832
_cell_angle_beta                  113.494813
_cell_angle_gamma                 93.755974
_cell_volume                      1858.2642758

loop_
_atom_site_label
_atom_site_type_symbol
_atom_type_description
_atom_site_fract_x
_atom_site_fract_y
_atom_site_fract_z
_atom_type_partial_charge
C1    C     C_R   0.477280 0.299541 0.499118 0.886916
C2    C     C_R   0.609859 0.485213 0.829117 -0.110368
C3    C     C_R   0.540827 0.812109 0.509761 -0.156461
C4    C     C_R   0.566212 0.491586 0.708515 0.884328
C5    C     C_R   0.462696 0.188242 0.498020 -0.063687
C6    C     C_R   0.338325 0.031174 0.436934 -0.164590
C7    C     C_R   0.347787 0.138367 0.447342 -0.203004
C8    C     C_R   0.567260 0.131829 0.542296 -0.212100
C9    C     C_R   0.558863 0.025566 0.531913 0.093663
C10   C     C_R   0.443785 0.974922 0.477815 0.181743
C11   C     C_R   0.435959 0.868808 0.465802 -0.310229
C12   C     C_R   0.556563 0.481105 0.988684 0.070691
C13   C     C_R   0.656182 0.862577 0.564102 0.393215
C14   C     C_R   0.664176 0.969722 0.574029 -0.228271
C15   C     C_R   0.006998 0.597186 0.391273 0.295445
C16   C     C_R   0.523876 0.700559 0.503473 0.930103
C17   C     C_R   0.128069 0.587708 0.403815 -0.042722
C18   C     C_R   0.158686 0.459136 0.546289 -0.021125
C19   C     C_R   0.038217 0.466238 0.537712 -0.025947
C20   C     C_R   0.960390 0.535582 0.458973 -0.004511
C21   C     C_R   0.839177 0.540622 0.451438 -0.032777
C22   C     C_R   0.875127 0.414399 0.597536 0.532071
C23   C     C_R   0.530246 0.450593 0.879804 0.089152
C24   C     C_R   0.994566 0.405818 0.606784 -0.313430
C25   C     C_R   0.433302 0.503633 0.291490 0.866186
C26   C     C_R   0.262459 0.396726 0.009446 -0.173950
C27   C     C_R   0.391196 0.490136 0.173012 -0.054311
C28   C     C_R   0.725922 0.527804 0.893227 -0.150599
C29   C     C_R   0.759534 0.542847 0.005744 -0.105672
C30   C     C_R   0.675066 0.522443 0.053014 -0.160637
C31   C     C_R   0.463169 0.468967 0.028500 0.085789
C32   C     C_R   0.353300 0.411659 0.967625 0.173657
C33   C     C_R   0.337054 0.368405 0.867306 -0.237293
C34   C     C_R   0.424454 0.387698 0.823687 -0.190174
C35   C     C_R   0.475528 0.513803 0.126737 -0.238512
C36   C     C_R   0.282411 0.434264 0.113368 -0.187237
Cl1   Cl    Cl    0.792068 0.796236 0.626738 -0.575062
Cl2   Cl    Cl    0.828614 0.339869 0.690362 -0.642814
Cl3   Cl    Cl    0.918332 0.687125 0.290853 -0.662718
H1    H     H_    0.216608 0.414868 0.149428 0.161746
H2    H     H_    0.217957 0.404891 0.605508 0.132148
H3    H     H_    0.553468 0.563957 0.172251 0.154804
H4    H     H_    0.789074 0.552684 0.855622 0.192652
H5    H     H_    0.705830 0.537104 0.140399 0.168181
H6    H     H_    0.849577 0.574738 0.055457 0.187363
H7    H     H_    0.409392 0.351835 0.746217 0.156998
H8    H     H_    0.347401 0.830086 0.423264 0.181531
H9    H     H_    0.178761 0.352351 0.964129 0.161858
H10   H     H_    0.249530 0.992653 0.395931 0.159505
H11   H     H_    0.752316 0.009129 0.616015 0.190177
H12   H     H_    0.266514 0.182339 0.412842 0.166231
H13   H     H_    0.655788 0.170836 0.583073 0.205897
H14   H     H_    0.777301 0.592978 0.391718 0.191224
H15   H     H_    0.053187 0.352672 0.668576 0.167927
H16   H     H_    0.163443 0.634848 0.351797 0.162833
H17   H     H_    0.256027 0.321014 0.821720 0.147387
N1    N     N_R   0.798200 0.480260 0.519790 -0.131718
N2    N     N_R   0.201820 0.519740 0.480210 -0.122465
O1    O     O_R   0.579910 0.341070 0.505280 -0.580213
O2    O     O_R   0.388440 0.353740 0.492580 -0.638295
O3    O     O_R   0.643280 0.490550 0.663120 -0.555550
O4    O     O_R   0.451810 0.503220 0.650420 -0.619289
O5    O     O_R   0.611560 0.646260 0.507420 -0.565854
O6    O     O_R   0.420090 0.658930 0.494720 -0.623332
O7    O     O_R   0.548190 0.496780 0.349580 -0.624915
O8    O     O_R   0.356720 0.509450 0.336880 -0.623212
Zn1   Zn    Zn3+2 0.627850 0.491540 0.508480 1.030405
Zn2   Zn    Zn3+2 0.372150 0.508460 0.491520 0.951216

loop_
_geom_bond_atom_site_label_1
_geom_bond_atom_site_label_2
_ccdc_geom_bond_type
C6    C10   A    
C5    C8    A    
O8    Zn2   S    
C9    C14   A    
C21   N1    A    
C6    C7    A    
C34   H7    S    
C16   O5    A    
O4    Zn2   S    
C27   C36   A    
C25   C27   S    
C27   C35   A    
C9    C10   A    
O3    Zn1   S    
C28   H4    S    
C11   H8    S    
C19   C20   A    
C3    C13   A    
C26   H9    S    
C17   N2    A    
C23   C34   A    
C12   C30   A    
C32   C33   A    
C33   H17   S    
C19   C24   A    
C7    H12   S    
C6    H10   S    
C14   H11   S    
C13   C14   A    
C21   H14   S    
C12   C23   A    
C30   H5    S    
C29   C30   A    
N1    Zn1   S    
C1    C5    S    
C2    C4    S    
O6    Zn2   S    
C22   N1    A    
C26   C36   A    
C28   C29   A    
C17   H16   S    
C33   C34   A    
C31   C35   A    
C1    O1    A    
C12   C31   A    
C15   C20   A    
C1    O2    A    
O5    Zn1   S    
C18   H2    S    
C3    C11   A    
C10   C11   A    
C3    C16   S    
C24   H15   S    
C22   Cl2   S    
C4    O4    A    
C36   H1    S    
C25   O7    A    
C20   C21   A    
O2    Zn2   S    
C5    C7    A    
C18   C19   A    
C22   C24   A    
N2    Zn2   S    
C2    C23   A    
C15   C17   A    
C35   H3    S    
C8    H13   S    
C26   C32   A    
C2    C28   A    
C16   O6    A    
O1    Zn1   S    
C13   Cl1   S    
C4    O3    A    
C18   N2    A    
C31   C32   A    
C25   O8    A    
C15   Cl3   S    
C29   H6    S    
C8    C9    A    
O7    Zn1   S    
