data_mof_unit_35173.cif
_audit_creation_date              2012-12-11T17:05:33-0500
_audit_creation_method            fapswitch 2.2
_symmetry_space_group_name_H-M    P1
_symmetry_Int_Tables_number       1
_space_group_crystal_system       triclinic
_cell_length_a                    6.988226
_cell_length_b                    14.565518
_cell_length_c                    15.993205
_cell_angle_alpha                 90.171284
_cell_angle_beta                  89.922097
_cell_angle_gamma                 89.797513
_cell_volume                      1627.88349357

loop_
_atom_site_label
_atom_site_type_symbol
_atom_type_description
_atom_site_fract_x
_atom_site_fract_y
_atom_site_fract_z
_atom_type_partial_charge
O1    O     O_R   0.494380 0.415640 0.412830 -0.549287
O2    O     O_R   0.823960 0.405540 0.586560 -0.544314
O3    O     O_R   0.994270 0.584360 0.587170 -0.509018
C1    C     C_R   0.655248 0.382803 0.614459 0.695484
O4    O     O_R   0.824090 0.404620 0.413450 -0.550056
O5    O     O_R   0.994400 0.583430 0.412820 -0.543686
C2    C     C_R   0.655346 0.383637 0.383661 0.675988
O6    O     O_R   0.494250 0.416570 0.587180 -0.537816
O7    O     O_3   0.660800 0.558670 0.500000 -0.341338
V1    V     V_3+5 0.935650 0.489120 0.500000 1.437580
O8    O     O_R   0.324110 0.594460 0.413440 -0.523019
C3    C     C_R   0.155075 0.616580 0.384900 0.689816
O9    O     O_R   0.323980 0.595380 0.586550 -0.537909
C4    C     C_R   0.154076 0.617218 0.615705 0.728891
V2    V     V_3+5 0.435660 0.510880 0.500000 1.466789
O10   O     O_3   0.160640 0.441330 0.500000 -0.389262
C5    C     C_3   0.933676 0.690227 0.727258 0.390347
H1    H     H_    0.912510 0.621581 0.756165 0.102865
C6    C     C_3   0.925952 0.759847 0.801482 -0.390240
H2    H     H_    0.892528 0.721874 0.860048 0.113334
H3    H     H_    0.809871 0.811127 0.795879 0.152452
H4    H     H_    0.096021 0.804237 0.601867 0.158595
H5    H     H_    0.072375 0.910973 0.712532 0.129240
C7    C     C_3   0.188539 0.784506 0.655058 -0.424915
C8    C     C_3   0.287757 0.663474 0.757411 0.257555
C9    C     C_3   0.139563 0.687005 0.686910 -0.019891
H6    H     H_    0.432777 0.669213 0.728685 0.132856
C10   C     C_3   0.121349 0.809260 0.811828 0.033539
C11   C     C_3   0.176965 0.855959 0.727802 -0.356576
C12   C     C_3   0.273536 0.734487 0.830514 -0.380397
H7    H     H_    0.236460 0.699468 0.890122 0.161105
H8    H     H_    0.416239 0.766647 0.839750 0.126545
H9    H     H_    0.332779 0.784450 0.627153 0.139554
H10   H     H_    0.317960 0.890323 0.734609 0.140115
C13   C     C_R   0.280409 0.754618 0.190446 0.023490
C14   C     C_R   0.119254 0.810804 0.179471 -0.089308
C15   C     C_R   0.965444 0.798714 0.235281 -0.196254
H11   H     H_    0.841073 0.842549 0.230912 0.140407
C16   C     C_R   0.977367 0.735305 0.301515 -0.196848
H12   H     H_    0.862809 0.731437 0.346266 0.192621
C17   C     C_R   0.142848 0.682333 0.314443 -0.077850
C18   C     C_R   0.292169 0.692711 0.257064 0.006297
C19   C     C_3   0.495851 0.717183 0.273299 0.350288
C20   C     C_3   0.484637 0.782642 0.198558 -0.472480
H13   H     H_    0.591311 0.657429 0.260980 0.065196
H14   H     H_    0.570379 0.758162 0.144245 0.148628
H15   H     H_    0.500943 0.857121 0.210910 0.168055
C21   C     C_R   0.499023 0.318659 0.742607 0.021919
C22   C     C_R   0.647685 0.316489 0.684251 -0.098861
C23   C     C_R   0.796635 0.253162 0.698445 -0.163150
H16   H     H_    0.917002 0.249556 0.656001 0.114428
C24   C     C_R   0.784364 0.188988 0.764008 -0.155493
H17   H     H_    0.895309 0.137300 0.769276 0.111016
C25   C     C_R   0.625058 0.187789 0.818625 -0.153624
C26   C     C_R   0.491108 0.259679 0.810635 0.058195
C27   C     C_3   0.276189 0.261228 0.810016 0.310197
C28   C     C_3   0.288106 0.319230 0.730988 -0.391853
H18   H     H_    0.208204 0.193054 0.799810 0.048273
H19   H     H_    0.224568 0.388974 0.736923 0.220546
H20   H     H_    0.245897 0.281253 0.673585 0.115223
C29   C     C_R   0.481641 0.261254 0.302141 0.049005
C30   C     C_R   0.645258 0.314341 0.315385 -0.096211
C31   C     C_R   0.799248 0.299730 0.260474 -0.204152
H21   H     H_    0.921412 0.343641 0.264760 0.174776
C32   C     C_R   0.788725 0.234831 0.194968 -0.184376
H22   H     H_    0.906385 0.229326 0.151344 0.132210
C33   C     C_R   0.622334 0.182333 0.182120 -0.091762
C34   C     C_R   0.471837 0.194873 0.238878 0.031844
C35   C     C_3   0.267276 0.215196 0.220618 -0.397262
C36   C     C_3   0.279513 0.290546 0.286834 0.146828
H23   H     H_    0.174041 0.157293 0.239882 0.133990
H24   H     H_    0.244571 0.237735 0.155252 0.171379
H25   H     H_    0.186590 0.277675 0.342057 0.087086
O11   O     O_R   0.771490 0.080820 0.910070 -0.542524
O12   O     O_R   0.441590 0.092730 0.083780 -0.544353
O13   O     O_R   0.271350 0.913900 0.084390 -0.532306
C37   C     C_R   0.610373 0.115283 0.112233 0.688959
O14   O     O_R   0.441780 0.091820 0.910670 -0.551972
O15   O     O_R   0.271540 0.912980 0.910040 -0.538417
C38   C     C_R   0.610801 0.115632 0.883554 0.684156
O16   O     O_R   0.771300 0.081740 0.084420 -0.540544
O17   O     O_3   0.604960 0.938700 0.997240 -0.364609
V3    V     V_3+5 0.330090 0.008230 0.997220 1.354712
O18   O     O_R   0.941820 0.901930 0.910640 -0.543798
C39   C     C_R   0.110991 0.879623 0.882089 0.696366
O19   O     O_R   0.941630 0.902840 0.083750 -0.541532
C40   C     C_R   0.110512 0.881013 0.112558 0.705275
V4    V     V_3+5 0.830090 0.986410 0.997190 1.363601
O20   O     O_3   0.105080 0.055990 0.997200 -0.386426
O21   O     O_3   0.783130 0.696915 0.666995 -0.545383
C41   C     C_3   0.716087 0.786296 0.648868 -0.259206
H26   H     H_    0.824853 0.840398 0.651173 0.130656
H27   H     H_    0.601810 0.805539 0.693454 0.117604
H28   H     H_    0.655755 0.786226 0.584770 0.164939
O22   O     O_3   0.525918 0.753321 0.355471 -0.542812
C42   C     C_3   0.457505 0.843564 0.369078 -0.248345
H29   H     H_    0.313764 0.855792 0.341800 0.151908
H30   H     H_    0.562608 0.894297 0.345490 0.125755
H31   H     H_    0.444250 0.854715 0.437486 0.140697
O23   O     O_3   0.200983 0.315952 0.875710 -0.549051
C43   C     C_3   0.146826 0.260945 0.943654 -0.180684
H32   H     H_    0.038888 0.209279 0.924594 0.157883
H33   H     H_    0.078876 0.305474 0.991699 0.128201
H34   H     H_    0.273887 0.228578 0.972995 0.146218
N1    N     N_2   0.260013 0.384435 0.255228 -0.515311
H35   H     H_    0.255750 0.434598 0.300682 0.262039
C44   C     C_3   0.346676 0.412666 0.176887 -0.524054
H36   H     H_    0.345494 0.488799 0.172785 0.172673
H37   H     H_    0.262537 0.386281 0.123298 0.195005
H38   H     H_    0.496955 0.388944 0.171971 0.212977
O24   O     O_3   0.256885 0.573383 0.787997 -0.565440
C45   C     C_3   0.428718 0.537191 0.821111 -0.245348
H39   H     H_    0.497939 0.585092 0.866087 0.124326
H40   H     H_    0.530122 0.519610 0.769828 0.141985
H41   H     H_    0.395607 0.473524 0.855847 0.208841

loop_
_geom_bond_atom_site_label_1
_geom_bond_atom_site_label_2
_ccdc_geom_bond_type
C29   C36   S    
C21   C26   A    
C12   H8    S    
C26   C27   S    
C31   C32   A    
C43   H32   S    
C17   C18   A    
O22   C42   S    
C33   C37   S    
C1    O6    A    
C45   H40   S    
C21   C28   S    
C16   C17   A    
N1    C44   S    
C15   H11   S    
C5    C9    S    
H5    C11   S    
C14   C15   A    
C6    H3    S    
C7    C9    S    
O5    C3    A    
C12   H7    S    
O19   V4    S    
C28   H19   S    
V2    O10   S    
C42   H31   S    
C27   C28   S    
C35   H23   S    
C13   C18   A    
C7    C11   S    
O8    V2    S    
O14   V3    S    
O24   C45   S    
C24   C25   A    
C34   C35   S    
C32   C33   A    
C42   H30   S    
C19   O22   S    
C44   H36   S    
O1    V2    S    
O7    V1    S    
C20   H15   S    
C43   H33   S    
O11   C38   A    
O9    C4    A    
C44   H37   S    
C35   C36   S    
O13   V3    S    
C45   H39   S    
C20   H14   S    
C23   H16   S    
C25   C38   S    
C14   C40   S    
V3    O20   S    
C33   C34   A    
O18   C39   A    
C41   H26   S    
O4    C2    A    
O19   C40   A    
C28   H20   S    
C8    C9    S    
C11   H10   S    
C13   C14   A    
C35   H24   S    
O2    C1    A    
C19   C20   S    
C2    C30   S    
C30   C31   A    
C6    C10   S    
C41   H27   S    
C19   H13   S    
C23   C24   A    
C37   O16   A    
C42   H29   S    
C36   H25   S    
C5    H1    S    
C4    C9    S    
C13   C20   S    
O12   C37   A    
O13   C40   A    
O3    C4    A    
C21   C22   A    
O17   V3    S    
O6    V2    S    
O9    V2    S    
C44   H38   S    
H4    C7    S    
C8    H6    S    
C18   C19   S    
C27   O23   S    
O2    V1    S    
O15   C39   A    
C24   H17   S    
C3    C17   S    
C8    C12   S    
C25   C26   A    
C10   C11   S    
O1    C2    A    
C5    O21   S    
O18   V4    S    
C36   N1    S    
O5    V1    S    
O8    C3    A    
C43   H34   S    
N1    H35   S    
C7    H9    S    
C1    C22   S    
C6    H2    S    
C10   C12   S    
O7    V2    S    
O4    V1    S    
C15   C16   A    
O3    V1    S    
V1    O10   S    
C41   H28   S    
O15   V3    S    
C29   C34   A    
O12   V3    S    
O21   C41   S    
O17   V4    S    
O23   C43   S    
C5    C6    S    
C27   H18   S    
O14   C38   A    
C32   H22   S    
C29   C30   A    
O16   V4    S    
C8    O24   S    
C31   H21   S    
C16   H12   S    
V4    O20   S    
C22   C23   A    
C10   C39   S    
O11   V4    S    
C45   H41   S    
