data_mof_unit_15163.cif
_audit_creation_date              2012-12-10T20:40:56-0500
_audit_creation_method            fapswitch 2.2
_symmetry_space_group_name_H-M    P1
_symmetry_Int_Tables_number       1
_space_group_crystal_system       triclinic
_cell_length_a                    27.729779
_cell_length_b                    10.734174
_cell_length_c                    9.855342
_cell_angle_alpha                 89.888282
_cell_angle_beta                  89.320317
_cell_angle_gamma                 90.273863
_cell_volume                      2933.25854822

loop_
_atom_site_label
_atom_site_type_symbol
_atom_type_description
_atom_site_fract_x
_atom_site_fract_y
_atom_site_fract_z
_atom_type_partial_charge
C1    C     C_R   0.499846 0.260445 0.499981 0.927022
C2    C     C_R   0.277547 0.460965 0.624665 -0.075332
C3    C     C_R   0.252529 0.487625 0.503943 0.191091
C4    C     C_R   0.101538 0.490570 0.482196 -0.129744
C5    C     C_R   0.127348 0.384212 0.438862 -0.095227
C6    C     C_R   0.102221 0.281969 0.384162 0.503389
C7    C     C_R   0.126705 0.593622 0.535608 -0.003142
C8    C     C_R   0.353176 0.498050 0.502434 -0.087922
C9    C     C_R   0.646703 0.501916 0.494813 -0.038172
C10   C     C_R   0.973943 0.390772 0.423992 -0.014322
C11   C     C_R   0.975244 0.611288 0.490742 0.046523
C12   C     C_R   0.405968 0.500112 0.500744 0.944599
C13   C     C_R   0.949217 0.502801 0.455002 0.075281
C14   C     C_R   0.946533 0.283510 0.394018 -0.209188
C15   C     C_R   0.896638 0.286093 0.389066 0.454544
C16   C     C_R   0.871687 0.395690 0.425699 -0.138159
C17   C     C_R   0.898084 0.505945 0.452965 -0.095498
C18   C     C_R   0.873381 0.618817 0.480440 -0.072452
C19   C     C_R   0.822825 0.614288 0.495839 0.528073
C20   C     C_R   0.821300 0.397654 0.441772 0.518176
C21   C     C_R   0.723524 0.507128 0.608826 -0.083972
C22   C     C_R   0.673333 0.505253 0.615095 -0.213236
C23   C     C_R   0.500676 0.739458 0.499779 0.896957
C24   C     C_R   0.670852 0.500757 0.368671 -0.203444
C25   C     C_R   0.720805 0.502567 0.362839 -0.104078
C26   C     C_R   0.747128 0.505633 0.482585 0.315943
C27   C     C_R   0.025178 0.389324 0.423907 0.030765
C28   C     C_R   0.050646 0.494621 0.471977 0.082997
C29   C     C_R   0.025657 0.604505 0.509592 0.068585
C30   C     C_R   0.051861 0.285999 0.376702 -0.319808
C31   C     C_R   0.101475 0.698366 0.579869 -0.109135
C32   C     C_R   0.950280 0.724712 0.502690 -0.251457
C33   C     C_R   0.900267 0.730554 0.494672 -0.034841
C34   C     C_R   0.593999 0.500354 0.499018 0.862517
C35   C     C_R   0.051861 0.703685 0.567822 -0.210916
C36   C     C_R   0.491797 0.061512 0.615887 0.022738
C37   C     C_R   0.500604 0.129183 0.498584 -0.074757
C38   C     C_R   0.510773 0.065063 0.377171 -0.178042
C39   C     C_R   0.511354 0.935747 0.377118 -0.177684
C40   C     C_R   0.502161 0.870583 0.498706 -0.052649
C41   C     C_R   0.493490 0.936970 0.616458 -0.023764
C42   C     C_3   0.481142 0.924180 0.764147 -0.369470
C43   C     C_3   0.478433 0.069214 0.763829 0.283859
C44   C     C_R   0.466343 0.432543 0.072681 0.243405
C45   C     C_R   0.177940 0.384854 0.450002 0.677077
C46   C     C_R   0.535513 0.558257 0.070666 -0.113923
C47   C     C_R   0.535473 0.558438 0.926655 -0.098305
C48   C     C_R   0.466451 0.432021 0.929902 0.278003
C49   C     C_3   0.413268 0.450296 0.926399 -0.470211
C50   C     C_3   0.413304 0.452438 0.079731 -0.460587
C51   C     C_R   0.176864 0.589650 0.543920 0.593206
C52   C     C_R   0.277504 0.519799 0.384124 0.517382
C53   C     C_R   0.327838 0.524799 0.384239 -0.294145
C54   C     C_R   0.327941 0.467405 0.621818 -0.260592
H1    H     H_    0.347655 0.445874 0.712393 0.188406
H2    H     H_    0.119998 0.777169 0.624352 0.200375
H3    H     H_    0.969410 0.812161 0.510764 0.164901
H4    H     H_    0.651249 0.498348 0.274300 0.161962
H5    H     H_    0.739211 0.501426 0.265306 0.138645
H6    H     H_    0.034779 0.785602 0.609006 0.158223
H7    H     H_    0.518191 0.113953 0.282875 0.186665
H8    H     H_    0.518861 0.887642 0.282709 0.177083
H9    H     H_    0.511796 0.886300 0.823067 0.164606
H10   H     H_    0.563565 0.607705 0.124007 0.142961
H11   H     H_    0.563462 0.608165 0.871287 0.140767
H12   H     H_    0.402936 0.540889 0.880626 0.244502
H13   H     H_    0.394222 0.367758 0.885642 0.226777
H14   H     H_    0.403997 0.545463 0.121357 0.224562
H15   H     H_    0.393839 0.372236 0.126800 0.235514
H16   H     H_    0.655481 0.506385 0.713424 0.160293
H17   H     H_    0.744087 0.509219 0.701520 0.143518
H18   H     H_    0.962582 0.194209 0.373984 0.175796
H19   H     H_    0.034657 0.207592 0.329400 0.140780
H20   H     H_    0.347017 0.550834 0.292456 0.157290
N1    N     N_R   0.201107 0.486490 0.501431 -0.332819
N2    N     N_R   0.798472 0.505687 0.474679 -0.357622
N3    N     N_R   0.499670 0.499140 0.142800 -0.116752
N4    N     N_R   0.499670 0.499180 0.857150 -0.109475
O1    O     O_R   0.500010 0.316790 0.614690 -0.589031
O2    O     O_2   0.795038 0.292127 0.430134 -0.514847
O3    O     O_2   0.201463 0.688180 0.593268 -0.534667
O4    O     O_2   0.797936 0.715601 0.536068 -0.520959
O5    O     O_R   0.500000 0.316760 0.385350 -0.626297
O6    O     O_R   0.428760 0.500040 0.614660 -0.622047
O7    O     O_R   0.428750 0.500000 0.385310 -0.624266
O8    O     O_R   0.500000 0.683240 0.614650 -0.625015
O9    O     O_R   0.499990 0.683210 0.385310 -0.622632
O10   O     O_R   0.571250 0.500000 0.614690 -0.628561
O11   O     O_R   0.571240 0.499960 0.385340 -0.632572
O12   O     O_2   0.204131 0.285506 0.410187 -0.444315
Zn1   Zn    Zn3+2 0.500000 0.500020 0.653130 0.990689
Zn2   Zn    Zn3+2 0.500000 0.499980 0.346870 0.972061
O13   O     O_3   0.251582 0.546627 0.268915 -0.730563
H21   H     H_    0.274338 0.566726 0.193521 0.357556
C55   C     C_2   0.878673 0.856753 0.494110 1.028058
O14   O     O_2   0.849827 0.885532 0.406644 -0.531302
O15   O     O_R   0.893454 0.944848 0.589525 -0.796283
H22   H     H_    0.876675 0.027869 0.578337 0.381347
C56   C     C_2   0.434418 0.854398 0.788787 0.991981
O16   O     O_2   0.430210 0.787817 0.888995 -0.625514
O17   O     O_R   0.396416 0.864676 0.697353 -0.776582
H23   H     H_    0.367460 0.812024 0.724936 0.356131
C57   C     C_2   0.252325 0.425552 0.753803 0.980595
O18   O     O_2   0.274385 0.426051 0.860620 -0.611181
O19   O     O_R   0.203750 0.390012 0.754494 -0.804229
H24   H     H_    0.191161 0.368275 0.848642 0.365769
C58   C     C_2   0.429285 0.124389 0.791251 0.991668
O20   O     O_2   0.412639 0.122294 0.906670 -0.604335
O21   O     O_R   0.402720 0.176295 0.685578 -0.808690
H25   H     H_    0.369932 0.207074 0.716819 0.344801
O22   O     O_3   0.514281 0.127007 0.842298 -0.764179
H26   H     H_    0.546153 0.092323 0.815610 0.339018
O23   O     O_3   0.127199 0.178943 0.337601 -0.678548
H27   H     H_    0.104239 0.115375 0.303890 0.334074
O24   O     O_3   0.873753 0.179277 0.346370 -0.703870
H28   H     H_    0.850634 0.204418 0.275545 0.371818

loop_
_geom_bond_atom_site_label_1
_geom_bond_atom_site_label_2
_ccdc_geom_bond_type
C10   C27   A    
C21   C26   A    
N3    Zn2   S    
C40   C41   A    
O17   H23   S    
C41   C42   S    
C55   O14   D    
O15   H22   S    
O5    Zn2   S    
C20   N2    A    
O13   H21   S    
C12   O7    A    
C21   H17   S    
C19   N2    A    
C50   H15   S    
C51   N1    A    
O8    Zn1   S    
C5    C6    A    
C9    C22   A    
O24   H28   S    
C12   O6    A    
C18   C19   A    
C48   N4    A    
C54   H1    S    
O22   H26   S    
C16   C17   A    
C23   O8    A    
C26   N2    S    
C58   O20   D    
O6    Zn1   S    
C31   H2    S    
C19   O4    S    
C3    N1    S    
C51   O3    S    
O1    Zn1   S    
C8    C12   S    
C38   H7    S    
C23   O9    A    
C21   C22   A    
C27   C30   A    
C58   O21   S    
C36   C41   A    
C43   O22   S    
C32   H3    S    
C4    C7    A    
C33   C55   S    
C4    C28   A    
O7    Zn2   S    
C7    C31   A    
C49   H12   S    
C20   O2    S    
C24   C25   A    
C2    C54   A    
C8    C54   A    
C39   C40   A    
C30   H19   S    
C34   O10   A    
C25   C26   A    
C5    C45   A    
C46   H10   S    
C35   H6    S    
C6    O23   S    
C37   C38   A    
C56   O16   D    
O10   Zn1   S    
C16   C20   A    
C17   C18   A    
C52   O13   S    
C57   O19   S    
C43   C58   S    
O11   Zn2   S    
C45   O12   S    
C24   H4    S    
C48   C49   S    
C6    C30   A    
C11   C32   A    
C10   C14   A    
C9    C34   S    
C1    O1    A    
C31   C35   A    
C42   C43   S    
C28   C29   A    
C57   O18   D    
C52   C53   A    
O23   H27   S    
C44   C50   S    
C39   H8    S    
C46   C47   A    
C44   N3    A    
C49   H13   S    
C56   O17   S    
C14   H18   S    
C4    C5    A    
C10   C13   A    
C8    C53   A    
C46   N3    A    
C3    C52   A    
C55   O15   S    
C9    C24   A    
C1    C37   S    
N4    Zn1   S    
C1    O5    A    
O19   H24   S    
C29   C35   A    
C13   C17   A    
C45   N1    A    
C32   C33   A    
C2    C3    A    
C34   O11   A    
C7    C51   A    
O21   H25   S    
C42   C56   S    
C11   C13   A    
C38   C39   A    
C2    C57   S    
C15   C16   A    
C47   H11   S    
C15   O24   S    
C18   C33   A    
C44   C48   A    
C11   C29   A    
C36   C37   A    
C49   C50   S    
C27   C28   A    
C14   C15   A    
C36   C43   S    
C25   H5    S    
C47   N4    A    
O9    Zn2   S    
C50   H14   S    
C42   H9    S    
C22   H16   S    
C23   C40   S    
C53   H20   S    
