data_mof_unit_14340.cif
_audit_creation_date              2012-12-10T16:52:38-0500
_audit_creation_method            fapswitch 2.2
_symmetry_space_group_name_H-M    P1
_symmetry_Int_Tables_number       1
_space_group_crystal_system       triclinic
_cell_length_a                    7.860213
_cell_length_b                    8.577179
_cell_length_c                    13.743214
_cell_angle_alpha                 93.941195
_cell_angle_beta                  93.132779
_cell_angle_gamma                 93.583292
_cell_volume                      920.929861185

loop_
_atom_site_label
_atom_site_type_symbol
_atom_type_description
_atom_site_fract_x
_atom_site_fract_y
_atom_site_fract_z
_atom_type_partial_charge
C1    C     C_R   0.044221 0.794336 0.499349 0.885757
C2    C     C_R   0.936452 0.486051 0.317939 0.829020
C3    C     C_R   0.091704 0.516851 0.787577 -0.048980
C4    C     C_R   0.900051 0.452280 0.213917 -0.057159
C5    C     C_R   0.033216 0.619967 0.949112 -0.192437
C6    C     C_R   0.920816 0.283123 0.067910 -0.192264
C7    C     C_R   0.985193 0.595193 0.850019 -0.181411
C8    C     C_R   0.986888 0.340832 0.160482 -0.173616
C9    C     C_R   0.236769 0.451976 0.824938 -0.246838
C10   C     C_R   0.752722 0.509190 0.174040 -0.239692
C11   C     C_R   0.287343 0.474238 0.923951 0.087732
C12   C     C_R   0.955777 0.205667 0.500601 0.886650
C13   C     C_R   0.673296 0.439468 0.087421 0.102227
C14   C     C_R   0.187075 0.565661 0.985655 0.176087
C15   C     C_R   0.762798 0.329661 0.031689 0.165601
C16   C     C_R   0.442265 0.419015 0.961005 0.056663
C17   C     C_R   0.507009 0.475464 0.055739 0.063007
C18   C     C_2   0.194869 0.019718 0.597172 0.494941
C19   C     C_2   0.805309 0.980395 0.402603 0.496605
C20   C     C_R   0.401549 0.562063 0.116822 -0.203168
C21   C     C_R   0.534571 0.309797 0.906544 -0.208714
C22   C     C_R   0.243618 0.605022 0.082242 -0.223215
C23   C     C_R   0.691629 0.265253 0.941959 -0.214606
C24   C     C_2   0.063835 0.958089 0.517950 -0.270827
C25   C     C_2   0.936195 0.041934 0.481923 -0.273311
C26   C     C_R   0.062855 0.510691 0.682153 0.836546
F1    F     F_    0.498770 0.347984 0.412941 -0.528561
F2    F     F_    0.501222 0.652167 0.586947 -0.527743
H1    H     H_    0.167150 0.672450 0.130816 0.150075
H2    H     H_    0.485452 0.251499 0.837817 0.161635
H3    H     H_    0.179295 0.128088 0.640384 0.030978
H4    H     H_    0.820462 0.871641 0.359709 0.031099
H5    H     H_    0.757533 0.179953 0.898888 0.154386
H6    H     H_    0.698415 0.603836 0.214946 0.142298
H7    H     H_    0.315121 0.393770 0.773777 0.161117
H8    H     H_    0.101604 0.295029 0.191390 0.176543
H9    H     H_    0.870424 0.644067 0.821620 0.176410
H10   H     H_    0.953771 0.686464 0.996366 0.142877
H11   H     H_    0.989239 0.197709 0.026550 0.142262
H12   H     H_    0.435225 0.594591 0.192920 0.171782
N1    N     N_2   0.440860 0.456490 0.474790 0.255103
N2    N     N_2   0.559140 0.543510 0.525210 0.256719
O1    O     O_R   0.891570 0.738930 0.506190 -0.626965
O2    O     O_2   0.680492 0.052788 0.382953 -0.483578
O3    O     O_R   0.108430 0.261070 0.493810 -0.627744
O4    O     O_R   0.174650 0.711050 0.490030 -0.533600
O5    O     O_R   0.825350 0.288950 0.509970 -0.533106
O6    O     O_R   0.909850 0.521900 0.644940 -0.619951
O7    O     O_R   0.090150 0.478100 0.355060 -0.624182
O8    O     O_R   0.192930 0.494020 0.628780 -0.579941
O9    O     O_R   0.807070 0.505980 0.371220 -0.575482
O10   O     O_2   0.320354 0.947898 0.616307 -0.487055
Zn1   Zn    Zn3+2 0.810990 0.518620 0.510790 1.122281
Zn2   Zn    Zn3+2 0.189010 0.481380 0.489210 1.117744

loop_
_geom_bond_atom_site_label_1
_geom_bond_atom_site_label_2
_ccdc_geom_bond_type
C2    C4    S    
C16   C21   A    
C3    C9    A    
C2    O7    A    
C26   O6    A    
N1    N2    D    
F1    N1    S    
C21   H2    S    
C20   H12   S    
C13   C17   A    
C12   C25   S    
C4    C8    A    
C14   C22   A    
C26   O8    A    
C15   C23   A    
C7    H9    S    
C18   O10   D    
C10   H6    S    
C5    H10   S    
C24   C25   D    
N1    Zn2   S    
C9    C11   A    
O4    Zn2   S    
C5    C14   A    
O8    Zn2   S    
C12   O5    A    
C18   C24   S    
O5    Zn1   S    
F2    N2    S    
C22   H1    S    
C20   C22   A    
O3    Zn2   S    
C3    C7    A    
C13   C15   A    
C21   C23   A    
O6    Zn1   S    
C19   C25   S    
C11   C14   A    
N2    Zn1   S    
C11   C16   A    
C2    O9    A    
C19   H4    S    
C4    C10   A    
O7    Zn2   S    
C17   C20   A    
C19   O2    D    
C1    C24   S    
C5    C7    A    
C8    H8    S    
C9    H7    S    
C6    H11   S    
C16   C17   A    
C6    C8    A    
C18   H3    S    
C1    O4    A    
C23   H5    S    
C6    C15   A    
O1    Zn1   S    
C1    O1    A    
C3    C26   S    
C12   O3    A    
O9    Zn1   S    
C10   C13   A    
