data_mof_unit_7934.cif
_audit_creation_date              2013-03-05T16:48:31-0500
_audit_creation_method            fapswitch 2.2
_symmetry_space_group_name_H-M    P1
_symmetry_Int_Tables_number       1
_space_group_crystal_system       triclinic
_cell_length_a                    10.953094
_cell_length_b                    14.783794
_cell_length_c                    14.903245
_cell_angle_alpha                 64.295616
_cell_angle_beta                  104.712681
_cell_angle_gamma                 103.216096
_cell_volume                      2083.63072926

loop_
_atom_site_label
_atom_site_type_symbol
_atom_site_description
_atom_site_fract_x
_atom_site_fract_y
_atom_site_fract_z
_atom_type_partial_charge
O1    O     O_R   0.455540 0.022090 0.338120 -0.611931
O2    O     O_R   0.544460 0.977910 0.661880 -0.618513
O3    O     O_R   0.512510 0.160150 0.379180 -0.566187
O4    O     O_R   0.487490 0.839850 0.620820 -0.539514
C1    C     C_R   0.478046 0.119983 0.312646 0.880519
C2    C     C_R   0.522513 0.880349 0.687618 0.892288
O5    O     O_R   0.291160 0.930970 0.479480 -0.496725
O6    O     O_R   0.708840 0.069030 0.520520 -0.550043
O7    O     O_R   0.348130 0.069020 0.520540 -0.577198
O8    O     O_R   0.651870 0.930980 0.479460 -0.580154
C3    C     C_R   0.262193 0.000182 0.499801 0.921149
C4    C     C_R   0.737246 0.998894 0.501469 0.900084
Cu1   Cu    Cu3+1 0.466270 0.918260 0.475690 1.071134
Cu2   Cu    Cu3+1 0.533730 0.081740 0.524310 1.043502
C5    C     C_R   0.334217 0.907551 0.830159 -0.148243
C6    C     C_R   0.668542 0.099485 0.168104 -0.179294
C7    C     C_R   0.236701 0.904541 0.749338 0.423085
C8    C     C_R   0.766179 0.099183 0.249905 0.381770
C9    C     C_R   0.191847 0.996156 0.675739 -0.094232
C10   C     C_R   0.803330 0.005232 0.325136 -0.059509
C11   C     C_R   0.242355 0.088251 0.688825 0.378756
C12   C     C_R   0.739321 0.913393 0.316068 0.433111
C13   C     C_R   0.346395 0.088812 0.766154 -0.123147
C14   C     C_R   0.637292 0.916975 0.236190 -0.143900
C15   C     C_R   0.392118 0.999283 0.836062 -0.247922
C16   C     C_R   0.602844 0.009170 0.162675 -0.245692
C17   C     C_R   0.962833 0.989450 0.590495 0.365749
C18   C     C_R   0.033520 0.004811 0.412402 0.397603
C19   C     C_R   0.870875 0.997281 0.502362 -0.193020
C20   C     C_R   0.127064 0.000244 0.499583 -0.255278
C21   C     C_R   0.904866 0.002616 0.414444 -0.097694
C22   C     C_R   0.091987 0.994840 0.587457 -0.086478
C23   C     C_R   0.452882 0.189610 0.205951 -0.104337
C24   C     C_R   0.544392 0.814015 0.795960 -0.145029
C25   C     C_R   0.328802 0.229702 0.037335 0.358140
C26   C     C_R   0.654860 0.784278 0.967857 0.418450
C27   C     C_R   0.371863 0.158046 0.132916 -0.237182
C28   C     C_R   0.623950 0.849989 0.866640 -0.180188
C29   C     C_R   0.502151 0.291650 0.179735 -0.091599
C30   C     C_R   0.486310 0.713949 0.828659 -0.097519
C31   C     C_R   0.460973 0.365864 0.084706 0.058050
C32   C     C_R   0.513755 0.645716 0.930008 0.049805
C33   C     C_R   0.364790 0.334294 0.016135 0.016910
C34   C     C_R   0.607988 0.679691 0.997921 -0.005575
C35   C     C_R   0.509719 0.470636 0.057273 0.089512
C36   C     C_R   0.456730 0.542765 0.963103 0.073694
C37   C     C_R   0.348056 0.509880 0.904757 -0.070358
C38   C     C_R   0.612090 0.505522 0.119132 -0.137161
C39   C     C_R   0.304647 0.407863 0.929696 -0.016462
C40   C     C_R   0.657424 0.607740 0.091234 -0.082980
N1    N     N_R   0.584450 0.204570 0.560790 -0.234149
N2    N     N_R   0.415550 0.795430 0.439210 -0.237831
C41   C     C_R   0.669885 0.262502 0.693468 0.323123
C42   C     C_R   0.315260 0.735309 0.309120 0.261793
C43   C     C_R   0.643746 0.187051 0.656966 0.007773
C44   C     C_R   0.341553 0.809554 0.347753 0.022395
C45   C     C_R   0.548720 0.297610 0.497173 0.128201
C46   C     C_R   0.472386 0.709819 0.493584 0.177720
C47   C     C_R   0.544725 0.369907 0.535141 -0.029860
C48   C     C_R   0.441483 0.626018 0.464669 -0.007910
C49   C     C_R   0.615335 0.353298 0.633850 -0.060036
C50   C     C_R   0.365581 0.642415 0.368194 -0.035817
C51   C     C_R   0.476272 0.457327 0.480153 -0.018744
C52   C     C_R   0.491576 0.530737 0.524006 -0.008300
C53   C     C_R   0.552758 0.503669 0.626992 0.386831
C54   C     C_R   0.386530 0.473368 0.387274 0.377277
C55   C     C_R   0.622464 0.423037 0.674785 -0.107533
C56   C     C_R   0.340913 0.566340 0.332185 -0.118315
H1    H     H_    0.469914 0.000607 0.897286 0.215674
H2    H     H_    0.525969 0.010598 0.100181 0.195712
S1    S     S_3+6 0.235954 0.187064 0.944052 0.064564
O9    O     O_2   0.100821 0.204237 0.927730 -0.201869
O10   O     O_2   0.286547 0.247431 0.847033 -0.235840
O11   O     O_3   0.239543 0.063398 0.978113 -0.427700
H3    H     H_    0.329312 0.058449 0.981481 0.335912
S2    S     S_3+6 0.751644 0.837388 0.052596 0.035453
O12   O     O_2   0.723498 0.778191 0.157951 -0.280040
O13   O     O_2   0.888933 0.837711 0.052880 -0.182228
O14   O     O_3   0.723663 0.956843 0.013574 -0.542643
H4    H     H_    0.779966 0.981246 0.064298 0.393113
H5    H     H_    0.295381 0.561650 0.837837 0.214491
H6    H     H_    0.661886 0.455929 0.189370 0.179641
H7    H     H_    0.672232 0.409374 0.750877 0.229146
H8    H     H_    0.280818 0.577409 0.259703 0.229875
H9    H     H_    0.547505 0.710989 0.555189 0.214612
H10   H     H_    0.521809 0.313418 0.418118 0.191043
H11   H     H_    0.309749 0.882157 0.301696 0.202929
H12   H     H_    0.669904 0.113204 0.706277 0.218462
S3    S     S_3+6 0.761412 0.235298 0.816710 0.041947
O15   O     O_2   0.865245 0.321956 0.815688 -0.223366
O16   O     O_2   0.676196 0.219877 0.888345 -0.309491
O17   O     O_3   0.828055 0.129743 0.855946 -0.429984
H13   H     H_    0.873343 0.118506 0.925624 0.417606
S4    S     S_3+6 0.223194 0.764007 0.185723 0.059196
O18   O     O_2   0.300553 0.759892 0.117786 -0.256918
O19   O     O_2   0.105256 0.687617 0.189595 -0.213652
O20   O     O_3   0.180317 0.880456 0.136966 -0.456041
H14   H     H_    0.106249 0.872387 0.167677 0.408034
S5    S     S_3+6 0.513601 0.540157 0.713782 -0.017461
O21   O     O_2   0.613333 0.622566 0.730974 -0.316918
O22   O     O_2   0.384514 0.574958 0.676607 -0.276983
O23   O     O_3   0.511023 0.438523 0.824474 -0.512111
H15   H     H_    0.590857 0.450083 0.869771 0.372038
S6    S     S_3+6 0.303924 0.381399 0.337669 0.012313
O24   O     O_2   0.368300 0.390445 0.255883 -0.354436
O25   O     O_2   0.298100 0.274753 0.415670 -0.280373
O26   O     O_3   0.152977 0.406019 0.286735 -0.446493
H16   H     H_    0.147638 0.432766 0.212524 0.397851
H17   H     H_    0.366832 0.838523 0.888965 0.202844
H18   H     H_    0.641436 0.170055 0.108396 0.213078
S7    S     S_3+6 0.166921 0.784205 0.747860 0.008972
O27   O     O_2   0.209362 0.770255 0.666992 -0.311015
O28   O     O_2   0.207391 0.702168 0.848905 -0.304744
O29   O     O_3   0.007270 0.773726 0.724665 -0.465419
H19   H     H_    0.977592 0.701344 0.737707 0.400331
S8    S     S_3+6 0.844040 0.217736 0.251840 0.041294
O30   O     O_2   0.779545 0.303040 0.167082 -0.276301
O31   O     O_2   0.841474 0.221501 0.350478 -0.296780
O32   O     O_3   0.995653 0.234689 0.236648 -0.399647
H20   H     H_    0.047225 0.217676 0.305278 0.386313
S9    S     S_3+6 0.171265 0.201661 0.622518 0.098075
O33   O     O_2   0.107460 0.212845 0.694471 -0.128410
O34   O     O_2   0.273412 0.290551 0.592263 -0.247614
O35   O     O_3   0.060713 0.205101 0.520032 -0.491730
H21   H     H_    0.103922 0.194342 0.475747 0.373247
S10   S     S_3+6 0.785683 0.793036 0.400556 0.051077
O36   O     O_2   0.688913 0.709731 0.382671 -0.286645
O37   O     O_2   0.910644 0.784985 0.382303 -0.187838
O38   O     O_3   0.801034 0.776608 0.521583 -0.525049
H22   H     H_    0.893839 0.781089 0.547466 0.390511
H23   H     H_    0.389603 0.158712 0.774856 0.215254
H24   H     H_    0.584843 0.848112 0.229335 0.216876
S11   S     S_3+6 0.912888 0.966083 0.705621 0.110895
O39   O     O_2   0.801717 0.883320 0.720349 -0.271552
O40   O     O_2   0.014195 0.933016 0.797991 -0.153591
O41   O     O_3   0.867292 0.070381 0.698105 -0.462314
H25   H     H_    0.890461 0.125523 0.634970 0.387152
S12   S     S_3+6 0.080551 0.018265 0.300150 0.035668
O42   O     O_2   0.194299 0.098330 0.280678 -0.312823
O43   O     O_2   0.116600 0.919144 0.318421 -0.280321
O44   O     O_3   0.968476 0.050599 0.195276 -0.506976
H26   H     H_    0.008252 0.053020 0.141345 0.394706
H27   H     H_    0.223307 0.387872 0.879821 0.230895
H28   H     H_    0.738032 0.628153 0.141219 0.232041
H29   H     H_    0.424270 0.689708 0.772323 0.233699
H30   H     H_    0.567312 0.311669 0.237706 0.179152
H31   H     H_    0.665067 0.928967 0.842395 0.235447
H32   H     H_    0.338112 0.078268 0.151740 0.209309

loop_
_geom_bond_atom_site_label_1
_geom_bond_atom_site_label_2
_geom_bond_distance
_ccdc_geom_bond_type
C54   C56   1.392717 A    
C55   H7    1.077770 S    
S10   O36   1.501868 D    
C4    C19   1.465877 S    
C17   C19   1.415106 A    
C5    H17   1.081185 S    
S7    O27   1.501701 D    
S2    O14   1.678373 S    
S6    O25   1.497665 D    
O29   H19   0.990524 S    
C6    H18   1.081917 S    
C37   C39   1.383659 A    
C35   C36   1.419381 A    
S8    O30   1.502421 D    
O5    C3    1.305915 A    
C23   C29   1.393965 A    
C30   H29   1.074694 S    
C24   C30   1.390129 A    
C9    C11   1.424411 A    
S2    O13   1.501584 D    
C45   C47   1.422355 A    
C46   C48   1.425623 A    
C43   H12   1.074312 S    
C45   H10   1.070448 S    
C48   C50   1.414154 A    
C32   C36   1.421444 A    
O4    Cu1   1.941354 S    
C49   C55   1.387748 A    
S9    O35   1.680184 S    
C26   S2    1.770505 S    
C41   C49   1.418006 A    
Cu2   N1    2.035529 S    
C3    C20   1.479477 S    
C38   H6    1.076033 S    
C53   C55   1.383698 A    
C1    C23   1.466716 S    
S11   O41   1.677309 S    
S10   O37   1.501074 D    
O26   H16   0.990613 S    
N1    C45   1.367632 A    
S3    O16   1.503531 D    
C25   C33   1.416662 A    
C8    C10   1.423952 A    
C38   C40   1.385574 A    
C51   C54   1.438466 A    
C25   S1    1.764427 S    
Cu1   Cu2   2.709764 S    
C31   C33   1.419193 A    
O2    C2    1.301376 A    
C32   C34   1.419625 A    
C9    C22   1.486358 S    
C7    S7    1.775745 S    
S6    O24   1.500922 D    
C40   H28   1.079182 S    
O20   H14   0.989376 S    
C41   C43   1.386850 A    
C6    C16   1.389944 A    
N2    C46   1.363975 A    
C42   C44   1.392351 A    
C47   C49   1.420606 A    
S9    O34   1.500665 D    
O11   H3    0.989586 S    
C17   S11   1.799609 S    
C54   S6    1.784238 S    
C18   S12   1.790479 S    
S2    O12   1.502257 D    
C53   S5    1.772227 S    
C29   C31   1.402441 A    
C8    S8    1.774235 S    
S1    O10   1.501878 D    
C33   C39   1.399128 A    
C44   H11   1.074705 S    
C42   C50   1.419759 A    
S10   O38   1.680836 S    
S12   O44   1.680459 S    
C23   C27   1.396642 A    
C2    C24   1.470903 S    
C56   H8    1.077805 S    
O7    Cu2   1.986839 S    
Cu1   N2    2.035529 S    
C14   H24   1.081618 S    
S5    O21   1.504420 D    
O6    C4    1.303956 A    
S5    O23   1.683422 S    
C13   H23   1.081728 S    
S4    O18   1.503177 D    
S7    O28   1.502533 D    
S3    O17   1.680004 S    
S4    O19   1.503898 D    
O7    C3    1.305479 A    
S9    O33   1.500971 D    
O3    Cu2   1.941354 S    
O8    C4    1.300262 A    
O4    C2    1.309478 A    
S5    O22   1.502748 D    
C10   C12   1.424435 A    
C11   C13   1.401326 A    
C41   S3    1.774421 S    
S11   O39   1.499839 D    
C16   H2    1.081482 S    
C12   C14   1.401956 A    
O14   H4    0.989940 S    
C26   C34   1.417015 A    
O1    Cu1   1.950289 S    
C46   H9    1.069477 S    
O1    C1    1.306587 A    
O38   H22   0.989280 S    
C35   C38   1.412846 A    
C34   C40   1.398681 A    
C5    C7    1.401751 A    
C36   C37   1.409133 A    
O6    Cu2   1.986514 S    
C25   C27   1.397137 A    
C17   C22   1.409763 A    
C24   C28   1.399846 A    
C18   C21   1.409867 A    
C14   C16   1.389335 A    
C30   C32   1.405584 A    
O3    C1    1.302489 A    
O8    Cu1   1.986838 S    
S1    O11   1.679110 S    
O32   H20   0.988341 S    
S12   O43   1.497077 D    
C47   C51   1.454737 A    
S4    O20   1.680338 S    
S8    O32   1.680251 S    
C50   C56   1.391703 A    
C48   C52   1.446934 A    
C52   C53   1.425590 A    
C26   C28   1.397720 A    
S1    O9    1.499923 D    
C19   C21   1.416448 A    
O44   H26   0.991402 S    
C20   C22   1.421213 A    
C39   H27   1.080451 S    
C29   H30   1.074903 S    
C18   C20   1.421909 A    
O17   H13   0.989121 S    
C7    C9    1.421534 A    
S8    O31   1.502505 D    
S7    O29   1.678363 S    
N1    C43   1.351073 A    
C37   H5    1.077409 S    
C27   H32   1.082907 S    
C11   S9    1.778427 S    
O23   H15   0.990693 S    
O2    Cu2   1.950289 S    
C28   H31   1.083015 S    
C42   S4    1.776427 S    
C12   S10   1.776011 S    
S12   O42   1.499635 D    
C51   C52   1.452419 A    
O5    Cu1   1.986513 S    
C13   C15   1.389237 A    
C15   H1    1.082574 S    
C5    C15   1.389595 A    
C6    C8    1.401830 A    
S11   O40   1.501230 D    
C31   C35   1.426455 A    
O41   H25   0.987725 S    
S3    O15   1.503534 D    
S6    O26   1.685296 S    
N2    C44   1.351905 A    
O35   H21   0.984380 S    
C10   C21   1.494320 S    
