data_mof_unit_63719.cif
_audit_creation_date              2012-10-26T18:21:11-0400
_audit_creation_method            fapswitch 2.2
_symmetry_space_group_name_H-M    P1
_symmetry_Int_Tables_number       1
_space_group_crystal_system       monoclinic
_cell_length_a                    18.381932
_cell_length_b                    18.382629
_cell_length_c                    31.992721
_cell_angle_alpha                 90.0
_cell_angle_beta                  90.0
_cell_angle_gamma                 89.999875
_cell_volume                      10810.6039262

loop_
_atom_site_label
_atom_site_type_symbol
_atom_type_description
_atom_site_fract_x
_atom_site_fract_y
_atom_site_fract_z
_atom_type_partial_charge
C1    C     C_R   0.639859 0.500019 1.000000 0.557276
C2    C     C_1   0.500000 0.500040 0.162819 -0.055677
C3    C     C_1   1.000000 0.000040 0.337181 -0.055677
C4    C     C_1   0.000000 0.000040 0.662819 -0.055678
C5    C     C_1   0.499999 0.500455 0.662818 0.025099
C6    C     C_1   0.500004 0.500455 0.337182 0.025100
C7    C     C_1   0.000008 0.000455 0.162818 0.025100
C8    C     C_1   0.000001 0.000455 0.837182 0.025099
C9    C     C_1   0.717322 0.500050 1.000000 -0.046592
C10   C     C_1   0.282678 0.500051 1.000000 -0.046641
C11   C     C_1   0.217322 0.000051 0.500000 -0.046587
C12   C     C_R   0.360141 0.500019 0.000000 0.557249
C13   C     C_1   0.782678 0.000051 0.500000 -0.046645
C14   C     C_1   0.782562 0.500042 1.000000 -0.045665
C15   C     C_1   0.217438 0.500042 1.000000 -0.045713
C16   C     C_1   0.282562 0.000042 0.500000 -0.045661
C17   C     C_1   0.717438 0.000042 0.500000 -0.045717
C18   C     C_R   0.500000 0.360018 0.500000 0.561959
C19   C     C_R   1.000000 0.860018 0.000000 0.561959
C20   C     C_R   0.500000 0.499891 0.580229 0.549679
C21   C     C_R   0.500000 0.499891 0.419771 0.549680
C22   C     C_R   0.000000 0.999891 0.080229 0.549680
C23   C     C_R   0.139859 0.000019 0.500000 0.557282
C24   C     C_R   1.000000 0.999891 0.919771 0.549679
C25   C     C_R   0.500000 0.639713 0.500000 0.553565
C26   C     C_R   1.000000 0.139713 0.000000 0.553565
C27   C     C_R   1.000000 0.639933 0.000000 0.561448
C28   C     C_R   0.500000 0.139933 0.500000 0.561448
C29   C     C_R   0.860026 0.500015 0.000000 0.560207
C30   C     C_R   0.139974 0.500016 0.000000 0.560190
C31   C     C_R   0.360026 0.000015 0.500000 0.560206
C32   C     C_R   0.639974 0.000016 0.500000 0.560191
C33   C     C_R   0.500000 0.500005 0.919770 0.551400
C34   C     C_R   0.860141 0.000019 0.500000 0.557244
C35   C     C_R   0.500000 0.500005 0.080230 0.551400
C36   C     C_R   1.000000 0.000005 0.419770 0.551400
C37   C     C_R   1.000000 0.000005 0.580230 0.551400
C38   C     C_R   1.000000 0.360009 0.000000 0.559226
C39   C     C_R   0.500000 0.860009 0.500000 0.559226
C40   C     C_1   0.500000 0.282587 0.500000 -0.037249
C41   C     C_1   0.000000 0.782587 0.000000 -0.037248
C42   C     C_1   0.000000 0.717366 0.000000 -0.039208
C43   C     C_1   0.500000 0.217366 0.500000 -0.039209
C44   C     C_1   0.500000 0.717226 0.500000 -0.046313
C45   C     C_3   0.499859 0.569843 0.736232 -0.172827
C46   C     C_1   1.000000 0.217226 0.000000 -0.046313
C47   C     C_1   1.000000 0.282495 0.000000 -0.046415
C48   C     C_1   0.500000 0.782495 0.500000 -0.046415
C49   C     C_3   0.558678 0.466837 0.736470 0.284723
C50   C     C_3   0.558071 0.465790 0.263531 0.284731
C51   C     C_3   0.441456 0.466601 0.736470 0.284724
C52   C     C_3   0.440864 0.467656 0.263530 0.284714
C53   C     C_3   0.057626 0.965047 0.236469 0.284738
C54   C     C_3   0.058450 0.966437 0.763530 0.284726
C55   C     C_3   0.940452 0.968418 0.236470 0.284708
C56   C     C_3   0.501109 0.569834 0.263767 -0.172825
C57   C     C_3   0.941229 0.967001 0.763530 0.284721
C58   C     C_3   0.559975 0.535512 0.764198 -0.111280
C59   C     C_3   0.560600 0.534431 0.235802 -0.111246
C60   C     C_3   0.439881 0.535270 0.764198 -0.111286
C61   C     C_3   0.440521 0.536342 0.235802 -0.111321
C62   C     C_3   0.061037 0.033649 0.264197 -0.111250
C63   C     C_3   0.060216 0.035102 0.735802 -0.111282
C64   C     C_3   0.940992 0.037103 0.264199 -0.111319
C65   C     C_3   0.940123 0.035679 0.735802 -0.111284
C66   C     C_1   0.500000 0.500012 0.874880 -0.019485
C67   C     C_3   0.002004 0.069814 0.236232 -0.172826
C68   C     C_1   0.500000 0.500012 0.125120 -0.019485
C69   C     C_1   1.000000 0.000012 0.374880 -0.019485
C70   C     C_1   1.000000 0.000012 0.625120 -0.019485
C71   C     C_1   0.500000 0.500146 0.625120 0.003662
C72   C     C_1   0.500001 0.500146 0.374880 0.003663
C73   C     C_1   0.000002 0.000146 0.125120 0.003662
C74   C     C_1   0.000000 0.000146 0.874880 0.003662
C75   C     C_3   0.500141 0.430347 0.763973 -0.094262
C76   C     C_3   0.498889 0.430356 0.236027 -0.094260
C77   C     C_3   0.997994 0.930376 0.263973 -0.094259
C78   C     C_3   0.000335 0.069842 0.763768 -0.172827
C79   C     C_3   0.999665 0.930347 0.736027 -0.094262
C80   C     C_3   0.500000 0.500063 0.791338 -0.034868
C81   C     C_3   0.499999 0.500063 0.208662 -0.034868
C82   C     C_3   0.999999 0.000063 0.291338 -0.034868
C83   C     C_3   1.000000 0.000063 0.708662 -0.034868
C84   C     C_3   0.499998 0.500901 0.708701 0.087538
C85   C     C_3   0.500011 0.500900 0.291299 0.087538
C86   C     C_3   0.000021 0.000900 0.208701 0.087539
C87   C     C_3   0.000004 0.000901 0.791299 0.087539
C88   C     C_3   0.664606 0.405594 0.751491 -0.109138
C89   C     C_1   0.500000 0.500040 0.837181 -0.055678
C90   C     C_3   0.662884 0.402658 0.248510 -0.109105
C91   C     C_3   0.335776 0.404932 0.751490 -0.109145
C92   C     C_3   0.334092 0.407898 0.248508 -0.109180
C93   C     C_3   0.161620 0.900574 0.251488 -0.109114
C94   C     C_3   0.163957 0.904474 0.748510 -0.109142
C95   C     C_3   0.832923 0.910034 0.251493 -0.109171
C96   C     C_3   0.835131 0.906054 0.748509 -0.109141
Cu1   Cu    Cu3+1 0.500000 0.427500 0.000000 0.956647
Cu2   Cu    Cu3+1 0.000000 0.500000 0.041440 0.961376
Cu3   Cu    Cu3+1 0.500000 1.000000 0.458560 0.961376
Cu4   Cu    Cu3+1 0.500000 1.000000 0.541440 0.961375
Cu5   Cu    Cu3+1 1.000000 0.927500 0.500000 0.956648
Cu6   Cu    Cu3+1 0.500000 0.572500 0.000000 0.967318
Cu7   Cu    Cu3+1 0.000000 0.072500 0.500000 0.967316
Cu8   Cu    Cu3+1 0.572520 0.499840 0.500000 0.979941
Cu9   Cu    Cu3+1 0.427480 0.499840 0.500000 0.980088
Cu10  Cu    Cu3+1 0.072520 0.999840 0.000000 0.979802
Cu11  Cu    Cu3+1 0.927480 0.999840 0.000000 0.980225
Cu12  Cu    Cu3+1 0.000000 0.500000 0.958560 0.961375
H1    H     H_    0.609140 0.563712 0.776167 0.117762
H2    H     H_    0.502012 0.626567 0.275638 0.120742
H3    H     H_    0.003635 0.126530 0.224362 0.120738
H4    H     H_    0.000607 0.126581 0.775638 0.120735
H5    H     H_    0.500255 0.373449 0.775586 0.099493
H6    H     H_    0.497984 0.373464 0.224414 0.099495
H7    H     H_    0.996358 0.873501 0.275586 0.099494
H8    H     H_    0.999392 0.873450 0.724414 0.099493
H9    H     H_    0.635753 0.363864 0.770421 0.114355
H10   H     H_    0.684671 0.450387 0.771813 0.112840
H11   H     H_    0.712860 0.379001 0.737355 0.148865
H12   H     H_    0.610263 0.561745 0.223834 0.117815
H13   H     H_    0.683751 0.447084 0.228189 0.112866
H14   H     H_    0.633287 0.361453 0.229579 0.114378
H15   H     H_    0.710652 0.375202 0.262647 0.148863
H16   H     H_    0.315530 0.449644 0.771812 0.112828
H17   H     H_    0.364798 0.363319 0.770421 0.114352
H18   H     H_    0.287630 0.378143 0.737354 0.148858
H19   H     H_    0.362362 0.365779 0.229571 0.114325
H20   H     H_    0.314646 0.452972 0.228192 0.112803
H21   H     H_    0.285477 0.381970 0.262644 0.148858
H22   H     H_    0.131497 0.859754 0.270420 0.114382
H23   H     H_    0.390604 0.563272 0.776167 0.117741
H24   H     H_    0.183056 0.944730 0.271809 0.112850
H25   H     H_    0.209031 0.872507 0.237352 0.148850
H26   H     H_    0.184329 0.949130 0.728188 0.112831
H27   H     H_    0.134820 0.862942 0.729579 0.114356
H28   H     H_    0.212029 0.877551 0.762646 0.148857
H29   H     H_    0.814059 0.955352 0.271811 0.112820
H30   H     H_    0.860650 0.867554 0.270427 0.114322
H31   H     H_    0.783978 0.884735 0.237357 0.148874
H32   H     H_    0.863868 0.864243 0.729579 0.114351
H33   H     H_    0.815191 0.950903 0.728187 0.112837
H34   H     H_    0.391754 0.565224 0.223833 0.117687
H35   H     H_    0.786803 0.879595 0.762645 0.148866
H36   H     H_    0.111046 0.060324 0.276166 0.117786
H37   H     H_    0.109572 0.062966 0.723833 0.117747
H38   H     H_    0.892600 0.066608 0.276168 0.117715
H39   H     H_    0.891037 0.064017 0.723833 0.117756
H40   H     H_    0.499745 0.626583 0.724362 0.120735
O1    O     O_R   0.605840 0.438770 0.000000 -0.503548
O2    O     O_R   0.394240 0.561230 0.000000 -0.501243
O3    O     O_R   0.105760 0.061230 0.500000 -0.501215
O4    O     O_R   0.894240 0.061230 0.500000 -0.501253
O5    O     O_R   0.500000 0.438780 0.939540 -0.505466
O6    O     O_R   0.500000 0.438780 0.060460 -0.505466
O7    O     O_R   0.000000 0.938780 0.439540 -0.505466
O8    O     O_R   0.000000 0.938780 0.560460 -0.505466
O9    O     O_R   0.500000 0.561230 0.939540 -0.501714
O10   O     O_R   0.500000 0.561230 0.060460 -0.501714
O11   O     O_R   1.000000 0.061230 0.439540 -0.501715
O12   O     O_R   0.394160 0.438770 0.000000 -0.503568
O13   O     O_R   1.000000 0.061230 0.560460 -0.501714
O14   O     O_R   0.561200 0.394070 0.500000 -0.500129
O15   O     O_R   0.438800 0.394070 0.500000 -0.500132
O16   O     O_R   0.061200 0.894070 0.000000 -0.500117
O17   O     O_R   0.938800 0.894070 0.000000 -0.500145
O18   O     O_R   0.561230 0.499860 0.560460 -0.500426
O19   O     O_R   0.561230 0.499860 0.439540 -0.500547
O20   O     O_R   0.438770 0.499860 0.560460 -0.500463
O21   O     O_R   0.438770 0.499860 0.439540 -0.500343
O22   O     O_R   0.061230 0.999860 0.060460 -0.500641
O23   O     O_R   0.105840 0.938770 0.500000 -0.503561
O24   O     O_R   0.061230 0.999860 0.939540 -0.500474
O25   O     O_R   0.938770 0.999860 0.060460 -0.500251
O26   O     O_R   0.938770 0.999860 0.939540 -0.500416
O27   O     O_R   0.561270 0.605640 0.500000 -0.504486
O28   O     O_R   0.438730 0.605640 0.500000 -0.504462
O29   O     O_R   0.061270 0.105640 0.000000 -0.504520
O30   O     O_R   0.938730 0.105640 0.000000 -0.504427
O31   O     O_R   0.000000 0.605780 0.965000 -0.501635
O32   O     O_R   0.000000 0.605780 0.035000 -0.501635
O33   O     O_R   0.500000 0.105780 0.465000 -0.501635
O34   O     O_R   0.894160 0.938770 0.500000 -0.503555
O35   O     O_R   0.500000 0.105780 0.535000 -0.501635
O36   O     O_R   0.894200 0.500000 0.965010 -0.504048
O37   O     O_R   0.894200 0.500000 0.034990 -0.504008
O38   O     O_R   0.105800 0.500000 0.965010 -0.504035
O39   O     O_R   0.105800 0.500000 0.034990 -0.504076
O40   O     O_R   0.394200 1.000000 0.465010 -0.503999
O41   O     O_R   0.394200 1.000000 0.534990 -0.504046
O42   O     O_R   0.605800 1.000000 0.465010 -0.504084
O43   O     O_R   0.605800 1.000000 0.534990 -0.504038
O44   O     O_3   0.620136 0.432249 0.719082 -0.553383
O45   O     O_R   0.000000 0.394210 0.965010 -0.504767
O46   O     O_3   0.618898 0.430105 0.280919 -0.553395
O47   O     O_3   0.380139 0.431765 0.719081 -0.553386
O48   O     O_3   0.378932 0.433924 0.280918 -0.553376
O49   O     O_3   0.117989 0.928584 0.219080 -0.553407
O50   O     O_3   0.119670 0.931431 0.780919 -0.553388
O51   O     O_3   0.878092 0.935484 0.219083 -0.553365
O52   O     O_3   0.879675 0.932584 0.780918 -0.553380
O53   O     O_R   1.000000 0.394210 0.034990 -0.504766
O54   O     O_R   0.500000 0.894210 0.465010 -0.504765
O55   O     O_R   0.500000 0.894210 0.534990 -0.504768
O56   O     O_R   0.605760 0.561230 0.000000 -0.501225

loop_
_geom_bond_atom_site_label_1
_geom_bond_atom_site_label_2
_ccdc_geom_bond_type
C78   C87   S    
C56   C59   S    
Cu11  O17   S    
C45   C60   S    
C59   H12   S    
C91   H18   S    
C39   O55   A    
C58   H1    S    
C90   H14   S    
C90   H15   S    
C57   C79   S    
Cu2   O53   S    
C53   C77   S    
Cu4   O41   S    
C52   O48   S    
C35   O6    A    
C28   O33   A    
C24   O26   A    
Cu6   O10   S    
C4    C70   T    
C24   C74   S    
C7    C73   T    
C49   O44   S    
C16   C31   S    
C6    C72   T    
C6    C85   S    
Cu9   O21   S    
C62   C67   S    
C50   C59   S    
C30   O38   A    
C49   C84   S    
Cu12  O38   S    
C52   C85   S    
C29   O36   A    
C28   O35   A    
C27   O31   A    
Cu2   O37   S    
C93   H25   S    
C52   C61   S    
Cu8   O14   S    
C54   C87   S    
C55   C77   S    
Cu4   O55   S    
C33   O5    A    
C65   C83   S    
C7    C86   S    
Cu10  Cu11  S    
Cu5   O7    S    
C77   H7    S    
C45   H40   S    
Cu2   Cu12  S    
C25   C44   S    
C96   O52   S    
C41   C42   T    
C80   C89   S    
Cu4   O35   S    
Cu6   O56   S    
Cu8   Cu9   S    
C18   C40   S    
C36   O11   A    
C96   H33   S    
C40   C43   T    
C55   O51   S    
C67   C86   S    
Cu9   O28   S    
C31   O40   A    
C76   H6    S    
Cu9   O15   S    
C20   C71   S    
C1    O1    A    
C53   C86   S    
C75   H5    S    
Cu1   O5    S    
C65   H39   S    
C93   H24   S    
C75   C80   S    
Cu10  O29   S    
Cu1   Cu6   S    
C50   C85   S    
Cu7   O3    S    
C3    C69   T    
C62   C82   S    
Cu5   Cu7   S    
C79   H8    S    
Cu10  O22   S    
C37   O8    A    
C18   O15   A    
C92   H20   S    
Cu6   O9    S    
C56   H2    S    
Cu3   O40   S    
C33   O9    A    
C33   C66   S    
Cu8   O27   S    
C26   O30   A    
C20   O20   A    
C45   C58   S    
C95   H29   S    
Cu7   O13   S    
Cu12  O36   S    
C21   C72   S    
C64   C67   S    
C12   O2    A    
C1    C9    S    
C27   O32   A    
C35   C68   S    
C62   H36   S    
C5    C84   S    
C34   O4    A    
Cu11  O25   S    
Cu5   O8    S    
C52   C76   S    
C38   O53   A    
C49   C58   S    
C57   C87   S    
Cu12  O31   S    
C63   C83   S    
C94   O50   S    
C93   O49   S    
C9    C14   T    
Cu1   O12   S    
Cu2   O39   S    
C50   C76   S    
C91   O47   S    
C11   C16   T    
C25   O27   A    
C94   H28   S    
Cu3   Cu4   S    
C90   O46   S    
C55   C64   S    
C3    C82   S    
C8    C74   T    
C94   H27   S    
C38   C47   S    
C32   O42   A    
Cu1   O6    S    
C12   O12   A    
C88   H11   S    
C64   C82   S    
C49   C75   S    
C22   O22   A    
C10   C12   S    
Cu7   O4    S    
Cu6   O2    S    
C67   H3    S    
Cu10  O16   S    
C91   H16   S    
Cu11  O30   S    
C90   H13   S    
C95   H31   S    
Cu4   O43   S    
C66   C89   T    
C14   C29   S    
C88   H10   S    
C93   H22   S    
C92   H19   S    
C51   C75   S    
C22   O25   A    
C36   C69   S    
C15   C30   S    
C37   O13   A    
C54   C79   S    
C26   O29   A    
C88   O44   S    
C23   O3    A    
C46   C47   T    
C60   C80   S    
C95   H30   S    
C65   C78   S    
C91   H17   S    
C64   H38   S    
Cu10  O24   S    
C57   O52   S    
Cu5   O23   S    
C59   C81   S    
C57   C65   S    
C92   O48   S    
C21   O19   A    
C76   C81   S    
C96   H32   S    
Cu3   O42   S    
C78   H4    S    
Cu3   O54   S    
Cu9   O20   S    
Cu11  O26   S    
C58   C80   S    
C18   O14   A    
C20   O18   A    
C31   O41   A    
C28   C43   S    
C2    C68   T    
C54   O50   S    
C38   O45   A    
C13   C17   T    
C10   C15   T    
C8    C87   S    
C53   O49   S    
C30   O39   A    
C55   C86   S    
C92   H21   S    
Cu12  O45   S    
C35   O10   A    
C13   C34   S    
C5    C71   T    
C61   C81   S    
Cu8   O19   S    
C79   C83   S    
C50   O46   S    
C27   C42   S    
Cu7   O11   S    
C56   C85   S    
C4    C83   S    
C77   C82   S    
C21   O21   A    
C11   C23   S    
C94   H26   S    
C29   O37   A    
C34   O34   A    
C19   O16   A    
C24   O24   A    
Cu3   O33   S    
C26   C46   S    
Cu8   O18   S    
C45   C84   S    
C19   C41   S    
C61   H34   S    
C23   O23   A    
C32   O43   A    
C53   C62   S    
C95   O51   S    
C54   C63   S    
C39   O54   A    
C17   C32   S    
Cu1   O1    S    
C56   C61   S    
C39   C48   S    
C2    C81   S    
C51   O47   S    
C51   C60   S    
C19   O17   A    
C22   C73   S    
C88   H9    S    
C37   C70   S    
C1    O56   A    
Cu2   O32   S    
C51   C84   S    
C63   H37   S    
C60   H23   S    
Cu5   O34   S    
C44   C48   T    
C36   O7    A    
C25   O28   A    
C96   H35   S    
C63   C78   S    
