data_mof_unit_37816.cif
_audit_creation_date              2012-12-10T18:11:40-0500
_audit_creation_method            fapswitch 2.2
_symmetry_space_group_name_H-M    P1
_symmetry_Int_Tables_number       1
_space_group_crystal_system       triclinic
_cell_length_a                    10.513974
_cell_length_b                    12.628329
_cell_length_c                    13.113178
_cell_angle_alpha                 82.127222
_cell_angle_beta                  90.463995
_cell_angle_gamma                 102.751399
_cell_volume                      1681.70034809

loop_
_atom_site_label
_atom_site_type_symbol
_atom_type_description
_atom_site_fract_x
_atom_site_fract_y
_atom_site_fract_z
_atom_type_partial_charge
C1    C     C_R   0.481851 0.438652 0.691323 0.850831
C2    C     C_3   0.060409 0.574178 0.424972 0.087424
C3    C     C_3   0.987077 0.601944 0.514876 -0.213652
C4    C     C_3   0.877509 0.502846 0.498867 -0.068668
C5    C     C_R   0.383891 0.686331 0.070154 -0.206519
C6    C     C_R   0.503901 0.597703 0.200308 -0.078214
C7    C     C_R   0.511322 0.302747 0.838688 -0.194081
C8    C     C_R   0.525605 0.275323 0.943768 -0.162143
C9    C     C_R   0.510451 0.348249 0.010935 -0.155920
C10   C     C_R   0.476402 0.448689 0.973692 0.096179
C11   C     C_R   0.439103 0.465932 0.870574 0.057125
C12   C     C_R   0.742205 0.501212 0.499442 0.883541
C13   C     C_R   0.472381 0.530420 0.036521 0.073468
C14   C     C_R   0.401571 0.612404 0.004033 0.125860
C15   C     C_R   0.348984 0.619137 0.906190 -0.233145
C16   C     C_R   0.370313 0.548584 0.839241 -0.168836
C17   C     C_R   0.538681 0.534993 0.129607 0.034823
C18   C     C_R   0.430384 0.675975 0.169629 -0.238203
C19   C     C_R   0.471402 0.399506 0.801387 -0.101845
C20   C     C_R   0.320668 0.087643 0.346184 -0.357561
C21   C     C_R   0.652908 0.799327 0.630535 0.023496
C22   C     C_R   0.684528 0.903605 0.659354 -0.251133
C23   C     C_R   0.514975 0.561187 0.308814 0.848254
C24   C     C_R   0.626753 0.985222 0.610011 -0.194467
C25   C     C_R   0.536766 0.962614 0.530908 0.025809
C26   C     C_R   0.508266 0.854861 0.504289 0.226610
C27   C     C_R   0.473934 0.041929 0.477494 -0.014827
C28   C     C_R   0.384314 0.011562 0.399268 0.166808
C29   C     C_R   0.358938 0.905525 0.374414 -0.268343
C30   C     C_R   0.420344 0.828601 0.426133 -0.186800
C31   C     C_R   0.496096 0.150766 0.498073 -0.092436
C32   C     C_R   0.346279 0.193920 0.370386 0.269942
C33   C     C_R   0.257774 0.499031 0.499724 0.902447
C34   C     C_3   0.936167 0.423617 0.574712 -0.238263
C35   C     C_3   0.047335 0.521775 0.588172 0.452839
C36   C     C_3   0.122228 0.497425 0.498743 -0.017347
C37   C     C_3   0.011645 0.399309 0.482569 -0.211430
C38   C     C_3   0.949356 0.477802 0.406506 -0.200521
H1    H     H_    0.534255 0.249723 0.786521 0.149812
H2    H     H_    0.520650 0.322939 0.092035 0.148593
H3    H     H_    0.553087 0.199276 0.972910 0.143381
H4    H     H_    0.328947 0.557228 0.763719 0.224328
H5    H     H_    0.291266 0.881841 0.314433 0.159798
H6    H     H_    0.251902 0.065029 0.286575 0.143923
H7    H     H_    0.562768 0.181512 0.555411 0.132549
H8    H     H_    0.697242 0.735491 0.668784 0.137853
H9    H     H_    0.881261 0.363122 0.637368 0.141542
H10   H     H_    0.654282 0.064576 0.635424 0.133782
H11   H     H_    0.753416 0.921105 0.719902 0.150002
H12   H     H_    0.397319 0.748902 0.403266 0.216785
H13   H     H_    0.025093 0.317401 0.469521 0.163766
H14   H     H_    0.905407 0.461873 0.331278 0.139464
H15   H     H_    0.974904 0.684221 0.527890 0.154297
H16   H     H_    0.404028 0.725544 0.223584 0.155193
H17   H     H_    0.294041 0.680695 0.880452 0.160658
H18   H     H_    0.327983 0.747808 0.046944 0.141401
N1    N     N_R   0.432930 0.222190 0.444670 -0.099265
N2    N     N_R   0.566370 0.776980 0.554790 -0.131445
O1    O     O_R   0.467970 0.366730 0.627150 -0.615587
O2    O     O_R   0.510820 0.544830 0.662520 -0.619873
O3    O     O_R   0.664630 0.410960 0.482340 -0.620216
O4    O     O_R   0.707470 0.589060 0.517710 -0.629093
O5    O     O_R   0.489180 0.455170 0.337480 -0.599752
O6    O     O_R   0.532030 0.633270 0.372850 -0.639224
O7    O     O_R   0.292530 0.410940 0.482290 -0.610976
O8    O     O_R   0.335370 0.589040 0.517660 -0.613067
Zn1   Zn    Zn3+2 0.471390 0.381080 0.476380 0.946653
Zn2   Zn    Zn3+2 0.528610 0.618920 0.523620 0.935829
O9    O     O_3   0.102622 0.543489 0.682400 -0.799845
H19   H     H_    0.031075 0.556368 0.724491 0.326533
N3    N     N_3   0.651085 0.487728 0.146750 -0.478342
H20   H     H_    0.730613 0.549524 0.161144 0.174783
H21   H     H_    0.635500 0.427377 0.210977 0.200392
N4    N     N_3   0.282293 0.273469 0.317502 -0.394489
H22   H     H_    0.304212 0.281097 0.238825 0.161997
H23   H     H_    0.181644 0.243646 0.328127 0.157101
N5    N     N_3   0.132308 0.654892 0.343795 -0.478484
H24   H     H_    0.065060 0.693739 0.303850 0.183065
H25   H     H_    0.168689 0.612087 0.292194 0.175076

loop_
_geom_bond_atom_site_label_1
_geom_bond_atom_site_label_2
_ccdc_geom_bond_type
O8    Zn2   S    
C34   C37   S    
C5    H18   S    
C35   C36   S    
C33   O7    A    
C7    C8    A    
N5    H24   S    
C11   C19   A    
C29   C30   A    
N4    H23   S    
O6    Zn2   S    
C28   C29   A    
C1    O1    A    
C32   N4    S    
C37   H13   S    
C38   H14   S    
C15   C16   A    
C33   C36   S    
C34   C35   S    
C2    C38   S    
O1    Zn1   S    
C8    C9    A    
O7    Zn1   S    
C4    C12   S    
C9    C10   A    
C23   O5    A    
C30   H12   S    
C21   C22   A    
C29   H5    S    
C32   N1    A    
N1    Zn1   S    
C20   H6    S    
C33   O8    A    
O5    Zn1   S    
N5    H25   S    
C6    C18   A    
C4    C34   S    
C1    C19   S    
N4    H22   S    
C27   C31   A    
C24   H10   S    
C24   C25   A    
C1    O2    A    
N3    H21   S    
C5    C18   A    
C20   C28   A    
C25   C26   A    
C9    H2    S    
C15   H17   S    
C37   C38   S    
C12   O4    A    
C11   C16   A    
O3    Zn1   S    
C3    C35   S    
C8    H3    S    
C26   N2    A    
C35   O9    S    
C5    C14   A    
C22   H11   S    
N2    Zn2   S    
C23   O6    A    
C4    C38   S    
C17   N3    S    
C7    C19   A    
C22   C24   A    
C3    C4    S    
C16   H4    S    
C21   H8    S    
C20   C32   A    
C2    C36   S    
C6    C17   A    
C36   C37   S    
C10   C13   A    
C26   C30   A    
O4    Zn2   S    
C25   C27   A    
C13   C17   A    
C31   N1    A    
C2    C3    S    
C21   N2    A    
C2    N5    S    
C12   O3    A    
C3    H15   S    
C6    C23   S    
O9    H19   S    
C10   C11   A    
C18   H16   S    
N3    H20   S    
O2    Zn2   S    
C31   H7    S    
C27   C28   A    
C7    H1    S    
C14   C15   A    
C34   H9    S    
C13   C14   A    
