data_mof_unit_45357.cif
_audit_creation_date              2013-03-05T16:42:04-0500
_audit_creation_method            fapswitch 2.2
_symmetry_space_group_name_H-M    P1
_symmetry_Int_Tables_number       1
_space_group_crystal_system       triclinic
_cell_length_a                    9.935961
_cell_length_b                    10.714807
_cell_length_c                    13.132756
_cell_angle_alpha                 90.477714
_cell_angle_beta                  68.19992
_cell_angle_gamma                 89.590541
_cell_volume                      1298.02667497

loop_
_atom_site_label
_atom_site_type_symbol
_atom_site_description
_atom_site_fract_x
_atom_site_fract_y
_atom_site_fract_z
_atom_type_partial_charge
O1    O     O_R   0.385310 0.683210 0.499990 -0.615685
O2    O     O_R   0.614650 0.683240 0.500000 -0.605299
C1    C     C_R   0.500246 0.739578 0.498689 0.926450
O3    O     O_R   0.328390 0.499940 0.653610 -0.559649
O4    O     O_R   0.557730 0.499980 0.653620 -0.623410
C2    C     C_R   0.418310 0.491651 0.705352 0.950907
Zn1   Zn    Zn3+2 0.346870 0.499980 0.499990 1.050552
Zn2   Zn    Zn3+2 0.653130 0.500020 0.500010 1.047791
O5    O     O_R   0.385350 0.316760 0.500000 -0.586382
O6    O     O_R   0.614690 0.316790 0.500010 -0.587569
O7    O     O_R   0.442270 0.500020 0.346380 -0.590542
O8    O     O_R   0.671610 0.500060 0.346390 -0.591747
C3    C     C_R   0.500553 0.260223 0.499332 0.964389
C4    C     C_R   0.582018 0.499059 0.295113 0.844704
C5    C     C_R   0.771147 0.355945 0.017807 -0.038980
H1    H     H_    0.808659 0.353399 0.167025 0.218166
H2    H     H_    0.770212 0.265365 0.832163 0.216852
H3    H     H_    0.856374 0.287722 0.979208 0.193662
C6    C     C_R   0.635989 0.481979 0.176509 -0.059662
C7    C     C_R   0.227394 0.521439 0.894715 0.341155
C8    C     C_R   0.206894 0.566814 0.999241 -0.128710
C9    C     C_R   0.318778 0.561465 0.038152 -0.144304
C10   C     C_R   0.449714 0.496976 0.978326 0.064051
C11   C     C_R   0.466150 0.443239 0.875246 -0.074153
C12   C     C_R   0.559079 0.475980 0.021591 0.118744
C13   C     C_R   0.674858 0.391792 0.967590 0.086400
C14   C     C_R   0.685227 0.334181 0.869784 -0.282043
C15   C     C_R   0.579507 0.354251 0.825394 0.298599
C16   C     C_R   0.551111 0.528925 0.121640 -0.140018
C17   C     C_R   0.747745 0.396694 0.123810 -0.135046
C18   C     C_R   0.365800 0.477617 0.826364 -0.166495
H4    H     H_    0.471668 0.599524 0.163749 0.136245
H5    H     H_    0.293371 0.598664 0.119644 0.168980
H6    H     H_    0.102373 0.603673 0.052445 0.204412
C19   C     C_R   0.377902 0.936826 0.500454 -0.126385
C20   C     C_R   0.504267 0.871093 0.488337 -0.012285
C21   C     C_R   0.635535 0.933920 0.463754 -0.153061
H7    H     H_    0.736730 0.884421 0.448645 0.189233
C22   C     C_R   0.634938 0.062640 0.466148 -0.111665
H8    H     H_    0.735075 0.109867 0.454059 0.229855
C23   C     C_R   0.503842 0.128008 0.491289 -0.003137
C24   C     C_R   0.377523 0.064367 0.502062 -0.048744
C25   C     C_3   0.229827 0.071460 0.591083 0.507692
C26   C     C_3   0.230596 0.929989 0.588829 0.440813
H9    H     H_    0.145658 0.114123 0.565216 0.082872
H10   H     H_    0.148411 0.888588 0.560218 0.044192
C27   C     C_R   0.901785 0.591528 0.553847 0.073086
N1    N     N_R   0.856940 0.500860 0.500710 -0.200359
C28   C     C_R   0.963197 0.425441 0.429688 0.272303
C29   C     C_R   0.106157 0.422874 0.431567 0.264177
N2    N     N_R   0.142580 0.500820 0.500710 -0.166605
C30   C     C_R   0.043644 0.591910 0.553527 -0.006802
C31   C     C_3   0.988465 0.623267 0.672498 -0.421721
C32   C     C_3   0.836184 0.625507 0.671928 0.491541
H11   H     H_    0.005235 0.543868 0.718662 0.239991
H12   H     H_    0.026065 0.715154 0.690488 0.268551
H13   H     H_    0.763976 0.553623 0.724083 0.092773
F1    F     F_    0.232460 0.120686 0.688134 -0.532435
F2    F     F_    0.234427 0.878415 0.684180 -0.579947
N3    N     N_R   0.937919 0.363198 0.342469 0.238735
O9    O     O_R   0.934381 0.242021 0.341115 -0.377962
O10   O     O_R   0.972427 0.421943 0.250204 -0.404533
N4    N     N_R   0.213403 0.342821 0.356177 0.258241
O11   O     O_R   0.271137 0.374778 0.253838 -0.359820
O12   O     O_R   0.218874 0.226194 0.380703 -0.397045
F3    F     F_    0.776342 0.744488 0.687383 -0.604204
N5    N     N_R   0.103915 0.504464 0.865343 0.187047
O13   O     O_R   0.989674 0.575430 0.909882 -0.416152
O14   O     O_R   0.091078 0.399306 0.819521 -0.374979
N6    N     N_R   0.577156 0.270427 0.740057 0.212453
O15   O     O_R   0.455175 0.221817 0.745407 -0.307376
O16   O     O_R   0.697782 0.223246 0.670676 -0.390703

loop_
_geom_bond_atom_site_label_1
_geom_bond_atom_site_label_2
_geom_bond_distance
_ccdc_geom_bond_type
O4    Zn2   1.883571 S    
C10   C11   1.418525 A    
N4    O12   1.298852 A    
C21   H7    1.083545 S    
C29   N4    1.428518 S    
C5    H3    1.083769 S    
C23   C24   1.393648 A    
C31   H11   1.095763 S    
C7    N5    1.428517 S    
C19   C20   1.391008 A    
Zn2   O8    1.956710 S    
Zn2   N1    2.028565 S    
C2    C18   1.486505 S    
C11   C18   1.419884 A    
Zn1   N2    2.026280 S    
N3    O9    1.299269 A    
C21   C22   1.379222 A    
O1    Zn1   2.002758 S    
C31   C32   1.515877 S    
C30   C31   1.485603 S    
N3    O10   1.299681 A    
Zn1   O7    1.883573 S    
C19   C26   1.495279 S    
C25   H9    1.109910 S    
C13   C14   1.388916 A    
N6    O15   1.300590 A    
C28   N3    1.422389 S    
C1    C20   1.416250 S    
C9    H5    1.076450 S    
O3    Zn1   1.956708 S    
C32   F3    1.383914 S    
N5    O14   1.302190 A    
C3    C23   1.418948 S    
C20   C21   1.400698 A    
C26   H10   1.111329 S    
O6    C3    1.292579 A    
O2    C1    1.289073 A    
C16   H4    1.077672 S    
C27   C32   1.482770 S    
C25   C26   1.515783 S    
C12   C16   1.401478 A    
O4    C2    1.300874 A    
O7    C4    1.298745 A    
C15   N6    1.437428 S    
C24   C25   1.499589 S    
C26   F2    1.386191 S    
H1    C17   1.076628 S    
N5    O13   1.302257 A    
H2    C14   1.084424 S    
C27   N1    1.362038 A    
C11   C15   1.425795 A    
C14   C15   1.393977 A    
C10   C12   1.418270 A    
C7    C8    1.393545 A    
C22   C23   1.399979 A    
C5    C17   1.389477 A    
O3    C2    1.310977 A    
C28   C29   1.429868 A    
C31   H12   1.109809 S    
C27   C30   1.407978 A    
C22   H8    1.078161 S    
Zn1   O5    1.997377 S    
C19   C24   1.366522 A    
O5    C3    1.288346 A    
C9    C10   1.416402 A    
N1    C28   1.371667 A    
C5    C13   1.401913 A    
N6    O16   1.301846 A    
C8    H6    1.083183 S    
C25   F1    1.384598 S    
C29   N2    1.374321 A    
C12   C13   1.417233 A    
C8    C9    1.386271 A    
C6    C17   1.396851 A    
C4    C6    1.456244 S    
C32   H13   1.108528 S    
Zn2   O6    2.002758 S    
O2    Zn2   1.997378 S    
N2    C30   1.366974 A    
O8    C4    1.300490 A    
N4    O11   1.300185 A    
O1    C1    1.290260 A    
C7    C18   1.408640 A    
C6    C16   1.390982 A    
