data_mof_unit_26152.cif
_audit_creation_date              2013-03-05T16:36:16-0500
_audit_creation_method            fapswitch 2.2
_symmetry_space_group_name_H-M    P1
_symmetry_Int_Tables_number       1
_space_group_crystal_system       triclinic
_cell_length_a                    27.82538
_cell_length_b                    9.074822
_cell_length_c                    7.786123
_cell_angle_alpha                 89.888982
_cell_angle_beta                  90.000017
_cell_angle_gamma                 89.999986
_cell_volume                      1966.0731134

loop_
_atom_site_label
_atom_site_type_symbol
_atom_site_description
_atom_site_fract_x
_atom_site_fract_y
_atom_site_fract_z
_atom_type_partial_charge
O1    O     O_R   0.500000 0.288390 0.642760 -0.577940
O2    O     O_R   0.500000 0.711610 0.357240 -0.577940
O3    O     O_R   0.500000 0.711610 0.642760 -0.573944
O4    O     O_R   0.500000 0.288390 0.357240 -0.573944
C1    C     C_R   0.500000 0.220053 0.500098 0.849814
C2    C     C_R   0.500000 0.779947 0.499902 0.849814
O5    O     O_R   0.430260 0.500000 0.642770 -0.581962
O6    O     O_R   0.569740 0.500000 0.357230 -0.582009
O7    O     O_R   0.569740 0.500000 0.642770 -0.582009
O8    O     O_R   0.430260 0.500000 0.357230 -0.581962
C3    C     C_R   0.407254 0.500000 0.500000 0.846749
C4    C     C_R   0.592748 0.500000 0.500000 0.846867
Cu1   Cu    Cu3+1 0.500000 0.500000 0.669080 1.026075
Cu2   Cu    Cu3+1 0.500000 0.500000 0.330920 1.026075
C5    C     C_R   0.178062 0.372826 0.461945 0.647894
C6    C     C_R   0.821989 0.628297 0.532570 0.648018
C7    C     C_R   0.178062 0.627174 0.538054 0.647894
C8    C     C_R   0.821989 0.371702 0.467431 0.648018
O9    O     O_2   0.202963 0.249482 0.423843 -0.471473
O10   O     O_2   0.797107 0.752748 0.565557 -0.470926
O11   O     O_2   0.202963 0.750518 0.576156 -0.471473
O12   O     O_2   0.797107 0.247251 0.434444 -0.470926
N1    N     N_R   0.202093 0.500000 0.500000 -0.442753
N2    N     N_R   0.797944 0.500000 0.500000 -0.442938
C9    C     C_R   0.278939 0.552917 0.356372 0.411078
C10   C     C_R   0.721064 0.447410 0.643798 0.411779
C11   C     C_R   0.278939 0.447083 0.643628 0.411078
C12   C     C_R   0.721064 0.552590 0.356203 0.411779
C13   C     C_R   0.329084 0.551260 0.356060 -0.231498
C14   C     C_R   0.670919 0.449067 0.644083 -0.231713
C15   C     C_R   0.329084 0.448740 0.643940 -0.231498
C16   C     C_R   0.670919 0.550932 0.355917 -0.231713
C17   C     C_R   0.253640 0.500000 0.500000 0.169995
C18   C     C_R   0.746382 0.500000 0.500000 0.168963
C19   C     C_R   0.101966 0.500000 0.500000 -0.040560
C20   C     C_R   0.898087 0.500000 0.500001 -0.041286
C21   C     C_R   0.127621 0.370192 0.462358 -0.033816
C22   C     C_R   0.872431 0.630935 0.531883 -0.033317
C23   C     C_R   0.127621 0.629808 0.537641 -0.033816
C24   C     C_R   0.872431 0.369065 0.468119 -0.033317
C25   C     C_R   0.102566 0.240895 0.425666 -0.121677
C26   C     C_R   0.897485 0.761505 0.561825 -0.120476
C27   C     C_R   0.102566 0.759105 0.574334 -0.121677
C28   C     C_R   0.897485 0.238495 0.438176 -0.120476
C29   C     C_R   0.354457 0.500000 0.500000 -0.168646
C30   C     C_R   0.645547 0.500000 0.500000 -0.168789
H1    H     H_    0.348177 0.407924 0.755584 0.200350
H2    H     H_    0.651823 0.591475 0.244140 0.200401
H3    H     H_    0.348177 0.592076 0.244415 0.200349
H4    H     H_    0.651823 0.408525 0.755860 0.200402
H5    H     H_    0.121461 0.139653 0.395922 0.194386
H6    H     H_    0.878588 0.863949 0.585130 0.191889
H7    H     H_    0.121461 0.860347 0.604077 0.194386
H8    H     H_    0.878588 0.136050 0.414872 0.191889
C31   C     C_R   0.974463 0.366680 0.467074 0.045516
C32   C     C_R   0.025591 0.632814 0.535591 0.044974
C33   C     C_R   0.974463 0.633320 0.532928 0.045516
C34   C     C_R   0.025591 0.367186 0.464409 0.044974
C35   C     C_R   0.949235 0.500000 0.500001 0.076814
C36   C     C_R   0.050819 0.500000 0.500000 0.077252
C37   C     C_R   0.947363 0.236844 0.438197 -0.199680
C38   C     C_R   0.052691 0.760968 0.573376 -0.201479
C39   C     C_R   0.947363 0.763156 0.561805 -0.199680
C40   C     C_R   0.052691 0.239032 0.426624 -0.201479
H9    H     H_    0.963338 0.130699 0.415938 0.133422
H10   H     H_    0.036716 0.865488 0.604563 0.137279
H11   H     H_    0.963338 0.869300 0.584065 0.133422
H12   H     H_    0.036716 0.134512 0.395436 0.137279
C41   C     C_1   0.500000 0.065411 0.500136 -0.151242
C42   C     C_1   0.500000 0.934589 0.499863 -0.151242
N3    N     N_1   0.500000 0.500000 0.076820 -0.041597
N4    N     N_1   0.500000 0.500000 0.923180 -0.041597
Cl1   Cl    Cl    0.248368 0.377656 0.824147 -0.479694
Cl2   Cl    Cl    0.751587 0.621479 0.175302 -0.479266
Cl3   Cl    Cl    0.248368 0.622344 0.175852 -0.479694
Cl4   Cl    Cl    0.751587 0.378520 0.824699 -0.479266

loop_
_geom_bond_atom_site_label_1
_geom_bond_atom_site_label_2
_geom_bond_distance
_ccdc_geom_bond_type
C31   C35   1.422489 A    
Cu2   N3    1.978453 S    
C20   C35   1.423210 A    
C12   Cl2   1.758596 S    
C13   H3    1.083441 S    
C11   C17   1.405240 A    
C5    O9    1.349907 S    
C7    N1    1.366801 A    
O1    C1    1.273220 A    
C40   H12   1.075692 S    
C19   C21   1.408727 A    
C22   C26   1.394782 A    
C33   C35   1.422490 A    
C34   C36   1.422509 A    
O7    Cu1   1.951322 S    
C32   C33   1.422806 A    
C7    C23   1.403739 A    
C8    C24   1.403760 A    
C5    C21   1.403739 A    
C20   C24   1.408637 A    
C1    C41   1.403353 S    
C27   H7    1.083961 S    
N1    C17   1.434309 S    
C10   Cl4   1.758595 S    
C8    N2    1.366984 A    
O3    Cu1   1.930832 S    
C6    O10   1.349790 S    
O3    C2    1.272453 A    
C5    N1    1.366802 A    
C14   H4    1.083457 S    
C12   C18   1.405544 A    
C6    N2    1.366984 A    
C15   H1    1.083440 S    
Cu1   Cu2   2.632956 S    
C21   C25   1.394885 A    
C16   H2    1.083458 S    
O2    C2    1.273220 A    
C10   C18   1.405544 A    
C33   C39   1.417205 A    
C9    C13   1.395384 A    
C39   H11   1.075229 S    
C38   H10   1.075691 S    
C11   C15   1.395384 A    
C12   C16   1.395389 A    
C4    C30   1.469155 S    
O8    Cu2   1.951325 S    
C23   C27   1.394886 A    
C34   C40   1.417400 A    
N2    C18   1.434738 S    
C32   C36   1.422509 A    
C13   C29   1.403158 A    
C19   C36   1.423165 A    
C9    Cl3   1.758604 S    
C19   C23   1.408727 A    
C37   H9    1.075229 S    
O5    C3    1.282766 A    
O5    Cu1   1.951325 S    
O6    C4    1.282797 A    
C10   C14   1.395392 A    
C32   C38   1.417398 A    
C3    C29   1.469108 S    
O1    Cu1   1.931623 S    
C2    C42   1.403353 S    
O6    Cu2   1.951322 S    
C8    O12   1.349791 S    
C16   C30   1.403058 A    
C14   C30   1.403057 A    
O4    C1    1.272453 A    
Cu1   N4    1.978453 S    
C28   C37   1.387958 A    
C20   C22   1.408636 A    
N3    N4    1.196261 T    
C31   C37   1.417204 A    
O4    Cu2   1.930833 S    
C41   C42   1.187186 T    
O2    Cu2   1.931622 S    
O7    C4    1.282797 A    
C7    O11   1.349907 S    
C9    C17   1.405240 A    
O8    C3    1.282766 A    
C28   H8    1.083666 S    
C24   C28   1.394780 A    
C15   C29   1.403157 A    
C31   C34   1.422806 A    
C26   H6    1.083666 S    
C25   C40   1.387911 A    
C11   Cl1   1.758604 S    
C26   C39   1.387955 A    
C25   H5    1.083961 S    
C27   C38   1.387914 A    
C6    C22   1.403760 A    
