data_mof_unit_33691.cif
_audit_creation_date              2012-12-10T16:48:44-0500
_audit_creation_method            fapswitch 2.2
_symmetry_space_group_name_H-M    P1
_symmetry_Int_Tables_number       1
_space_group_crystal_system       triclinic
_cell_length_a                    7.782182
_cell_length_b                    8.588915
_cell_length_c                    10.523892
_cell_angle_alpha                 88.310232
_cell_angle_beta                  98.759165
_cell_angle_gamma                 93.351784
_cell_volume                      693.877990359

loop_
_atom_site_label
_atom_site_type_symbol
_atom_type_description
_atom_site_fract_x
_atom_site_fract_y
_atom_site_fract_z
_atom_type_partial_charge
C1    C     C_R   0.544620 0.794745 0.496808 0.954713
C2    C     C_2   0.431893 0.041885 0.505085 -0.382962
C3    C     C_2   0.224382 0.471173 0.052993 0.421076
C4    C     C_2   0.752508 0.415927 0.947778 0.434606
C5    C     C_R   0.455398 0.205261 0.503239 0.965087
C6    C     C_R   0.573082 0.497819 0.737788 0.813301
C7    C     C_R   0.428518 0.511457 0.262173 0.816885
C8    C     C_2   0.617097 0.514423 0.876345 -0.183015
C9    C     C_2   0.391468 0.537619 0.123651 -0.187656
C10   C     C_2   0.521222 0.612123 0.930899 -0.111141
C11   C     C_2   0.518691 0.613245 0.068210 -0.098889
C12   C     C_2   0.568151 0.958109 0.495034 -0.378595
H1    H     H_    0.636426 0.660725 0.126634 0.187949
H2    H     H_    0.426141 0.681819 0.871715 0.187546
H3    H     H_    0.696997 0.008957 0.485452 0.183767
H4    H     H_    0.303051 0.991032 0.514675 0.183014
H5    H     H_    0.984925 0.383757 0.406543 0.203197
H6    H     H_    0.015076 0.616263 0.593438 0.203237
H7    H     H_    0.140121 0.396067 0.104397 0.099391
H8    H     H_    0.818612 0.337427 0.894938 0.085001
N1    N     N_2   0.940600 0.458860 0.467170 -0.161667
N2    N     N_2   0.059400 0.541140 0.532830 -0.161508
O1    O     O_R   0.391630 0.738350 0.508060 -0.610880
O2    O     O_2   0.791765 0.420038 0.064475 -0.586116
O3    O     O_R   0.608370 0.261650 0.491940 -0.605446
O4    O     O_R   0.674540 0.711990 0.487010 -0.629310
O5    O     O_R   0.325460 0.288010 0.512990 -0.623338
O6    O     O_R   0.411370 0.508250 0.688780 -0.570951
O7    O     O_R   0.588630 0.491750 0.311220 -0.568120
O8    O     O_R   0.694270 0.481880 0.667740 -0.617555
O9    O     O_R   0.305730 0.518120 0.332260 -0.621483
O10   O     O_2   0.177971 0.499599 0.939025 -0.575674
Zn1   Zn    Zn3+2 0.311100 0.517600 0.514050 0.966496
Zn2   Zn    Zn3+2 0.688900 0.482400 0.485950 0.969041

loop_
_geom_bond_atom_site_label_1
_geom_bond_atom_site_label_2
_ccdc_geom_bond_type
O9    Zn1   S    
C3    H7    S    
C3    C9    S    
C2    H4    S    
C12   H3    S    
O3    Zn2   S    
C4    C8    S    
C2    C12   D    
H6    N2    S    
N1    N2    D    
O5    Zn1   S    
C9    C11   D    
C1    O4    A    
C1    C12   S    
C5    O3    A    
C6    O8    A    
O6    Zn1   S    
C1    O1    A    
C3    O10   D    
C4    O2    D    
H5    N1    S    
C2    C5    S    
C7    O9    A    
C10   C11   S    
O8    Zn2   S    
C7    O7    A    
C4    H8    S    
C11   H1    S    
C8    C10   D    
C10   H2    S    
C7    C9    S    
N2    Zn1   S    
C6    C8    S    
N1    Zn2   S    
C5    O5    A    
O7    Zn2   S    
O4    Zn2   S    
C6    O6    A    
O1    Zn1   S    
