data_mof_unit_26307.cif
_audit_creation_date              2012-12-10T16:57:06-0500
_audit_creation_method            fapswitch 2.2
_symmetry_space_group_name_H-M    P1
_symmetry_Int_Tables_number       1
_space_group_crystal_system       triclinic
_cell_length_a                    7.736003
_cell_length_b                    8.623253
_cell_length_c                    16.534203
_cell_angle_alpha                 91.668626
_cell_angle_beta                  81.509345
_cell_angle_gamma                 93.132279
_cell_volume                      1089.02253926

loop_
_atom_site_label
_atom_site_type_symbol
_atom_type_description
_atom_site_fract_x
_atom_site_fract_y
_atom_site_fract_z
_atom_type_partial_charge
C1    C     C_R   0.544890 0.794637 0.497747 0.959919
C2    C     C_R   0.454379 0.205909 0.502154 0.920404
C3    C     C_2   0.563959 0.954948 0.482431 -0.050044
C4    C     C_2   0.431015 0.045318 0.514642 -0.071977
C5    C     C_R   0.477566 0.491519 0.654542 0.965547
C6    C     C_R   0.520384 0.492178 0.345348 0.941020
C7    C     C_R   0.461044 0.435767 0.738461 -0.293365
C8    C     C_R   0.525580 0.447543 0.259422 -0.275609
C9    C     C_R   0.572250 0.319703 0.757062 0.014958
C10   C     C_R   0.404244 0.331795 0.236681 0.014658
C11   C     C_R   0.544074 0.253566 0.834465 0.511850
C12   C     C_R   0.435174 0.260437 0.159247 0.509387
C13   C     C_R   0.418996 0.315716 0.895492 -0.069695
C14   C     C_R   0.569661 0.322289 0.100576 -0.070122
C15   C     C_R   0.306131 0.425559 0.876319 -0.366598
C16   C     C_R   0.690438 0.435617 0.123289 -0.347991
C17   C     C_R   0.321774 0.483340 0.797065 0.506917
C18   C     C_R   0.670169 0.498112 0.202461 0.498203
C19   C     C_2   0.419336 0.287328 0.982093 -0.114294
C20   C     C_2   0.570065 0.290071 0.013290 -0.121894
H1    H     H_    0.694555 0.302566 0.973339 0.180804
H2    H     H_    0.295843 0.297463 0.022291 0.187229
H3    H     H_    0.212610 0.473038 0.924683 0.165808
H4    H     H_    0.796728 0.480665 0.078601 0.172232
H5    H     H_    0.023191 0.376722 0.442687 0.197690
H6    H     H_    0.977569 0.622175 0.558940 0.190649
N1    N     N_2   0.953500 0.457650 0.478520 -0.172367
N2    N     N_2   0.046500 0.542350 0.521480 -0.171366
O1    O     O_R   0.388470 0.738640 0.505270 -0.624549
O2    O     O_R   0.611530 0.261360 0.494730 -0.613481
O3    O     O_R   0.679650 0.711510 0.491500 -0.617777
O4    O     O_R   0.320350 0.288490 0.508500 -0.628659
O5    O     O_R   0.337210 0.515200 0.623500 -0.569610
O6    O     O_R   0.662790 0.484800 0.376500 -0.586209
O7    O     O_R   0.628380 0.488060 0.609730 -0.616345
O8    O     O_R   0.371620 0.511940 0.390270 -0.609599
Zn1   Zn    Zn3+2 0.305580 0.518120 0.509190 0.949938
Zn2   Zn    Zn3+2 0.694420 0.481880 0.490810 0.945216
N3    N     N_2   0.719413 0.277433 0.699589 -0.251394
H7    H     H_    0.837667 0.323342 0.713271 0.229117
C21   C     C_3   0.725487 0.117878 0.670072 -0.693983
H8    H     H_    0.792038 0.115859 0.605997 0.237936
H9    H     H_    0.592871 0.062020 0.671552 0.229468
H10   H     H_    0.801461 0.049921 0.707263 0.244040
N4    N     N_2   0.252290 0.284405 0.291609 -0.300013
H11   H     H_    0.237744 0.165674 0.298410 0.233054
C22   C     C_3   0.093991 0.349238 0.273093 -0.637384
H12   H     H_    0.101290 0.477438 0.282295 0.264030
H13   H     H_    0.978486 0.299722 0.313733 0.209069
H14   H     H_    0.074082 0.320714 0.209021 0.252940
O9    O     O_3   0.796237 0.604607 0.224379 -0.595974
C23   C     C_3   0.739152 0.755358 0.217046 -0.317219
H15   H     H_    0.617995 0.775915 0.260508 0.143663
H16   H     H_    0.718331 0.777099 0.153224 0.152519
H17   H     H_    0.842199 0.840801 0.232611 0.203237
O10   O     O_3   0.218308 0.600063 0.777459 -0.594271
C24   C     C_3   0.040779 0.574108 0.811394 -0.308382
H18   H     H_    0.997354 0.448789 0.811693 0.157032
H19   H     H_    0.958828 0.634168 0.773649 0.184330
H20   H     H_    0.016829 0.625311 0.874207 0.162062
O11   O     O_3   0.323436 0.138875 0.139504 -0.619346
C25   C     C_3   0.407938 0.998866 0.142480 -0.354469
H21   H     H_    0.443746 0.981857 0.204296 0.142441
H22   H     H_    0.525737 0.994045 0.095063 0.176195
H23   H     H_    0.316220 0.900842 0.129754 0.202257
O12   O     O_3   0.651526 0.139125 0.851587 -0.622792
C26   C     C_3   0.552459 0.996680 0.861794 -0.305596
H24   H     H_    0.476758 0.969876 0.810330 0.171494
H25   H     H_    0.463009 0.995297 0.920879 0.188027
H26   H     H_    0.643741 0.902175 0.862900 0.181916
N5    N     N_2   0.701196 0.005205 0.419054 -0.315437
H27   H     H_    0.676280 0.085134 0.377538 0.217687
C27   C     C_3   0.881194 0.995887 0.432399 -0.713153
H28   H     H_    0.945694 0.113704 0.431596 0.218015
H29   H     H_    0.951992 0.924188 0.382728 0.238800
H30   H     H_    0.890773 0.944044 0.492127 0.229815
N6    N     N_2   0.277380 0.986826 0.566965 -0.289061
H31   H     H_    0.178491 0.945139 0.535453 0.240221
C28   C     C_3   0.213655 0.074082 0.640654 -0.756689
H32   H     H_    0.145770 0.992679 0.687159 0.245241
H33   H     H_    0.118942 0.158747 0.627440 0.248256
H34   H     H_    0.321908 0.137335 0.666571 0.231418

loop_
_geom_bond_atom_site_label_1
_geom_bond_atom_site_label_2
_ccdc_geom_bond_type
C27   H29   S    
C27   H28   S    
C2    C4    S    
C19   C20   D    
C1    O3    A    
N3    C21   S    
N4    H11   S    
O8    Zn1   S    
C24   H19   S    
N1    Zn2   S    
C9    N3    S    
O10   C24   S    
O2    Zn2   S    
C2    O4    A    
C21   H8    S    
N4    C22   S    
C25   H22   S    
C7    C17   A    
C5    O5    A    
C11   O12   S    
C15   H3    S    
O12   C26   S    
C16   H4    S    
C21   H9    S    
C23   H16   S    
C18   O9    S    
C22   H14   S    
N6    C28   S    
C13   C19   S    
O9    C23   S    
C14   C20   S    
C19   H2    S    
C22   H13   S    
N3    H7    S    
C28   H33   S    
C24   H20   S    
C6    C8    S    
N6    H31   S    
O5    Zn1   S    
C6    O6    A    
C1    C3    S    
C3    N5    S    
C26   H24   S    
C25   H21   S    
C22   H12   S    
O7    Zn2   S    
C10   N4    S    
C1    O1    A    
O4    Zn1   S    
C9    C11   A    
C17   O10   S    
C10   C12   A    
C8    C10   A    
C12   C14   A    
C13   C15   A    
C27   H30   S    
C14   C16   A    
O1    Zn1   S    
C3    C4    D    
C23   H15   S    
C5    C7    S    
C15   C17   A    
C25   H23   S    
O6    Zn2   S    
C28   H34   S    
C23   H17   S    
H5    N1    S    
H6    N2    S    
O3    Zn2   S    
C2    O2    A    
C26   H26   S    
N5    H27   S    
C12   O11   S    
C11   C13   A    
C24   H18   S    
N2    Zn1   S    
C5    O7    A    
C21   H10   S    
C6    O8    A    
O11   C25   S    
C8    C18   A    
C28   H32   S    
C7    C9    A    
C4    N6    S    
C20   H1    S    
C16   C18   A    
N5    C27   S    
N1    N2    D    
C26   H25   S    
