data_mof_unit_40056.cif
_audit_creation_date              2012-10-26T21:02:38-0400
_audit_creation_method            fapswitch 2.2
_symmetry_space_group_name_H-M    P1
_symmetry_Int_Tables_number       1
_space_group_crystal_system       triclinic
_cell_length_a                    12.321844
_cell_length_b                    13.270428
_cell_length_c                    15.066869
_cell_angle_alpha                 77.179107
_cell_angle_beta                  101.735011
_cell_angle_gamma                 116.478174
_cell_volume                      2134.81417599

loop_
_atom_site_label
_atom_site_type_symbol
_atom_type_description
_atom_site_fract_x
_atom_site_fract_y
_atom_site_fract_z
_atom_type_partial_charge
C1    C     C_R   0.854791 0.286892 0.509426 0.536598
C2    C     C_R   0.008327 0.418705 0.831935 -0.110250
C3    C     C_R   0.006402 0.510211 0.766578 -0.011153
C4    C     C_R   0.001412 0.502362 0.670694 0.571095
C5    C     C_R   0.009326 0.606840 0.792870 0.057920
C6    C     C_R   0.263510 0.032634 0.446716 0.077427
C7    C     C_R   0.229922 0.834414 0.494927 0.000306
C8    C     C_R   0.813716 0.096489 0.594882 -0.108508
C9    C     C_R   0.732105 0.004656 0.647327 -0.004718
C10   C     C_R   0.607808 0.976465 0.626064 -0.062345
C11   C     C_R   0.562376 0.028534 0.544140 0.037925
C12   C     C_R   0.025117 0.616048 0.075310 -0.008772
C13   C     C_R   0.644895 0.127238 0.494820 0.000227
C14   C     C_R   0.436223 0.986443 0.511508 -0.018899
C15   C     C_R   0.390648 0.062779 0.454323 -0.001195
C16   C     C_R   0.145685 0.713086 0.492971 0.616016
C17   C     C_R   0.472088 0.159158 0.400826 0.046201
C18   C     C_R   0.597659 0.182971 0.415662 -0.025100
C19   C     C_R   0.356370 0.869263 0.526698 0.049416
C20   C     C_R   0.184260 0.917282 0.463789 -0.118864
C21   C     C_R   0.771777 0.165844 0.526372 -0.003315
C22   C     C_R   0.352605 0.333053 0.650352 0.042517
C23   C     C_R   0.019767 0.328066 0.084412 -0.020471
C24   C     C_R   0.758441 0.642331 0.374103 0.050153
C25   C     C_R   0.654294 0.659849 0.333840 0.013587
C26   C     C_R   0.543755 0.596237 0.374068 0.045910
C27   C     C_R   0.543509 0.523284 0.459962 -0.024525
C28   C     C_R   0.003281 0.504800 0.328838 0.576947
C29   C     C_R   0.650670 0.502780 0.491572 0.145256
C30   C     C_R   0.442591 0.467568 0.515474 -0.014649
C31   C     C_R   0.444843 0.381055 0.590775 0.024619
C32   C     C_R   0.541396 0.347143 0.606165 0.043099
C33   C     C_R   0.646249 0.416358 0.564991 -0.079567
C34   C     C_R   0.018641 0.326757 0.991219 0.052327
C35   C     C_R   0.342058 0.497267 0.502686 0.083585
C36   C     C_R   0.249251 0.356451 0.625094 0.111163
C37   C     C_R   0.010630 0.609341 0.168026 0.046395
C38   C     C_R   0.010996 0.514078 0.231847 -0.012250
C39   C     C_R   0.019705 0.424898 0.204502 -0.098882
C40   C     C_R   0.020023 0.423206 0.112234 -0.005604
C41   C     C_R   0.020958 0.518580 0.046934 0.021690
C42   C     C_2   0.986794 0.696021 0.198189 0.604852
C43   C     C_2   0.426655 0.223505 0.319728 0.620705
C44   C     C_2   0.212007 0.118444 0.430702 0.635441
C45   C     C_R   0.015518 0.420197 0.925451 -0.006866
C46   C     C_2   0.408513 0.784085 0.562633 0.575084
C47   C     C_1   0.776488 0.943863 0.726570 0.242572
C48   C     C_1   0.672608 0.249744 0.342333 0.277596
C49   C     C_1   0.148185 0.296997 0.678506 0.318995
C50   C     C_2   0.532595 0.234477 0.657534 0.590365
C51   C     C_2   0.371624 0.274021 0.744861 0.603824
C52   C     C_2   0.429288 0.597019 0.320040 0.591112
C53   C     C_2   0.663555 0.739415 0.246012 0.632860
C54   C     C_1   0.022931 0.231575 0.151244 0.270907
C55   C     C_2   0.022714 0.227626 0.963812 0.584263
C56   C     C_R   0.018025 0.516487 0.953216 0.026911
C57   C     C_2   0.006239 0.703650 0.722162 0.580550
C58   C     C_2   0.089009 0.831294 0.033968 0.620445
C59   C     C_R   0.017208 0.610686 0.887048 -0.011150
C60   C     C_R   0.032743 0.709686 0.916733 -0.087483
C61   C     C_R   0.043107 0.715699 0.009454 0.057431
Cu1   Cu    Cu3+1 0.098270 0.475420 0.521130 1.047195
Cu2   Cu    Cu3+1 0.901730 0.524580 0.478870 1.016659
H1    H     H_    0.910354 0.120654 0.614173 0.159201
H2    H     H_    0.040623 0.813070 0.282229 0.349114
H3    H     H_    0.449450 0.376398 0.244912 0.375766
H4    H     H_    0.062323 0.150860 0.399677 0.349519
H5    H     H_    0.526130 0.722619 0.548413 0.331843
H6    H     H_    0.427641 0.066245 0.687095 0.352201
H7    H     H_    0.483953 0.276382 0.863024 0.368554
H8    H     H_    0.333655 0.688529 0.257456 0.362182
H9    H     H_    0.588452 0.772413 0.117104 0.368878
H10   H     H_    0.941684 0.058718 0.959799 0.391125
H11   H     H_    0.919891 0.804561 0.663787 0.349033
H12   H     H_    0.547100 0.913402 0.673719 0.150188
H13   H     H_    0.210513 0.947660 0.112920 0.376467
H14   H     H_    0.020348 0.353818 0.256219 0.145913
H15   H     H_    0.338915 0.569296 0.454952 0.172501
H16   H     H_    0.841581 0.687355 0.342045 0.173643
H17   H     H_    0.721480 0.395223 0.589422 0.202695
H18   H     H_    0.000039 0.344467 0.808334 0.175934
H19   H     H_    0.044938 0.786376 0.868110 0.188439
H20   H     H_    0.086478 0.891608 0.450840 0.181888
N1    N     N_R   0.246280 0.438190 0.553160 -0.266159
N2    N     N_R   0.754320 0.561190 0.447410 -0.258921
N3    N     N_1   0.812224 0.895149 0.790265 -0.187260
N4    N     N_1   0.731364 0.302054 0.283229 -0.254904
N5    N     N_1   0.068334 0.247516 0.722549 -0.260883
N6    N     N_1   0.025345 0.154377 0.204006 -0.158780
O1    O     O_R   0.972510 0.318130 0.526570 -0.516007
O2    O     O_R   0.064220 0.753989 0.269589 -0.677295
O3    O     O_2   0.337524 0.172861 0.267768 -0.475242
O4    O     O_R   0.488013 0.342152 0.302128 -0.658322
O5    O     O_2   0.277687 0.216149 0.444508 -0.488783
O6    O     O_R   0.086719 0.085946 0.405121 -0.673482
O7    O     O_2   0.379624 0.719603 0.634256 -0.485324
O8    O     O_R   0.493715 0.780952 0.515768 -0.680356
O9    O     O_2   0.622637 0.225381 0.703691 -0.509468
O10   O     O_R   0.422081 0.137878 0.649961 -0.668862
O11   O     O_2   0.292391 0.182515 0.773601 -0.442956
O12   O     O_R   0.806530 0.359650 0.490890 -0.524199
O13   O     O_R   0.481023 0.324223 0.800717 -0.658509
O14   O     O_2   0.345805 0.507830 0.300043 -0.484762
O15   O     O_R   0.416396 0.699361 0.293021 -0.636237
O16   O     O_2   0.755806 0.828098 0.236316 -0.455921
O17   O     O_R   0.570027 0.711605 0.173147 -0.628089
O18   O     O_2   0.109214 0.241004 0.927380 -0.452878
O19   O     O_R   0.928764 0.119126 0.981582 -0.640476
O20   O     O_2   0.085942 0.753185 0.671217 -0.512052
O21   O     O_R   0.912204 0.737910 0.714396 -0.668733
O22   O     O_2   0.044796 0.896792 0.991410 -0.454238
O23   O     O_R   0.082980 0.479210 0.647590 -0.483535
O24   O     O_R   0.186787 0.867021 0.102917 -0.652117
O25   O     O_R   0.917000 0.520730 0.611900 -0.511959
O26   O     O_R   0.193470 0.640350 0.509110 -0.474812
O27   O     O_R   0.027490 0.681870 0.473430 -0.498709
O28   O     O_R   0.083000 0.479270 0.388100 -0.497232
O29   O     O_R   0.917020 0.520790 0.352410 -0.478054
O30   O     O_2   0.899750 0.716688 0.160260 -0.463147

loop_
_geom_bond_atom_site_label_1
_geom_bond_atom_site_label_2
_ccdc_geom_bond_type
H8    O15   S    
C52   O14   D    
C1    C21   S    
C1    O1    A    
C27   C29   A    
Cu2   O12   S    
C19   C46   S    
C51   O13   S    
C50   O10   S    
C37   C38   A    
C13   C18   A    
C39   H14   S    
C4    O25   A    
C25   C53   S    
C28   O28   A    
C30   C31   A    
C11   C14   A    
C42   O30   D    
C23   C40   A    
C29   C33   A    
C12   C37   A    
C15   C17   A    
C42   O2    S    
C37   C42   S    
H5    O8    S    
Cu1   O28   S    
C6    C15   A    
Cu2   O25   S    
C60   H19   S    
C53   O17   S    
C57   O20   D    
C57   O21   S    
C45   C56   A    
C8    C9    A    
C58   O24   S    
C24   N2    A    
C29   N2    A    
C58   C61   S    
C4    O23   A    
C59   C60   A    
C6    C44   S    
Cu2   N2    S    
C27   C30   A    
H4    O6    S    
C49   N5    T    
C16   O27   A    
H13   O24   S    
C2    C45   A    
C50   O9    D    
C22   C31   A    
C5    C59   A    
C58   O22   D    
C47   N3    T    
C24   C25   A    
C54   N6    T    
C39   C40   A    
Cu2   O29   S    
H10   O19   S    
C25   C26   A    
C55   O18   D    
C60   C61   A    
C17   C43   S    
C41   C56   A    
Cu1   Cu2   S    
C26   C52   S    
C10   H12   S    
C24   H16   S    
C31   C32   A    
C28   C38   S    
C23   C34   A    
C17   C18   A    
C26   C27   A    
C48   N4    T    
C13   C21   A    
C34   C45   A    
C32   C50   S    
C8    H1    S    
H3    O4    S    
Cu2   O27   S    
H6    O10   S    
C7    C16   S    
C46   O8    S    
H9    O17   S    
C9    C47   S    
C7    C19   A    
C3    C4    S    
C16   O26   A    
C1    O12   A    
C6    C20   A    
C23   C54   S    
C9    C10   A    
C30   C35   A    
C51   O11   D    
H2    O2    S    
Cu1   N1    S    
C52   O15   S    
C14   C19   A    
C3    C5    A    
C8    C21   A    
H11   O21   S    
C18   C48   S    
C35   N1    A    
H7    O13   S    
C33   H17   S    
C12   C41   A    
C22   C36   A    
C35   H15   S    
C43   O3    D    
C56   C59   A    
C5    C57   S    
C55   O19   S    
C32   C33   A    
C2    C3    A    
Cu1   O26   S    
C44   O6    S    
C28   O29   A    
C12   C61   A    
C11   C13   A    
C38   C39   A    
C46   O7    D    
C36   N1    A    
Cu1   O1    S    
C43   O4    S    
C44   O5    D    
C10   C11   A    
C53   O16   D    
C34   C55   S    
Cu1   O23   S    
C7    C20   A    
C20   H20   S    
C14   C15   A    
C2    H18   S    
C40   C41   A    
C36   C49   S    
C22   C51   S    
