data_mof_unit_27850.cif
_audit_creation_date              2013-03-05T15:49:59-0500
_audit_creation_method            fapswitch 2.2
_symmetry_space_group_name_H-M    P1
_symmetry_Int_Tables_number       1
_space_group_crystal_system       triclinic
_cell_length_a                    13.559253
_cell_length_b                    13.530222
_cell_length_c                    27.671823
_cell_angle_alpha                 90.016984
_cell_angle_beta                  90.249592
_cell_angle_gamma                 119.824945
_cell_volume                      4404.19562882

loop_
_atom_site_label
_atom_site_type_symbol
_atom_site_description
_atom_site_fract_x
_atom_site_fract_y
_atom_site_fract_z
_atom_type_partial_charge
O1    O     O_R   0.302900 0.805360 0.446400 -0.511595
O2    O     O_R   0.522090 0.841370 0.450730 -0.492295
C1    C     C_R   0.619826 0.898193 0.431488 0.543844
O3    O     O_R   0.693280 0.995650 0.447220 -0.504769
O4    O     O_R   0.657260 0.178740 0.451050 -0.501654
C2    C     C_R   0.599819 0.219084 0.431388 0.539953
O5    O     O_R   0.502640 0.195380 0.446850 -0.498994
O6    O     O_R   0.319630 0.976590 0.450330 -0.483221
C3    C     C_R   0.278291 0.878619 0.430898 0.552179
O7    O     O_R   0.303680 0.807790 0.552740 -0.537605
O8    O     O_R   0.522820 0.843620 0.549310 -0.506291
C4    C     C_R   0.618865 0.901496 0.569833 0.548742
O9    O     O_R   0.694060 0.998080 0.553560 -0.512549
O10   O     O_R   0.657980 0.180990 0.549630 -0.507242
C5    C     C_R   0.601569 0.222604 0.568455 0.543059
O11   O     O_R   0.503420 0.197810 0.553190 -0.509953
O12   O     O_R   0.320350 0.978840 0.548910 -0.447946
C6    C     C_R   0.277290 0.880101 0.567783 0.570824
Cr1   Cr    Cr6+3 0.417720 0.831920 0.499820 1.023134
Cr2   Cr    Cr6+3 0.668190 0.085770 0.500360 1.026052
Cr3   Cr    Cr6+3 0.414060 0.082260 0.499840 1.077338
O13   O     O_3   0.499990 0.999990 0.500010 -0.258799
C7    C     C_1   0.631534 0.267070 0.384068 -0.001915
C8    C     C_R   0.759680 0.331490 0.267558 -0.158254
C9    C     C_R   0.768398 0.343690 0.217335 -0.120399
C10   C     C_R   0.581883 0.326523 0.213954 -0.100960
C11   C     C_R   0.571661 0.312440 0.264320 0.294349
C12   C     C_R   0.662153 0.317019 0.291177 0.060937
C13   C     C_R   0.679331 0.340873 0.190468 -0.003690
C14   C     C_1   0.691182 0.363033 0.139410 -0.067952
C15   C     C_1   0.649592 0.295002 0.342294 -0.012724
C16   C     C_1   0.700968 0.389758 0.097451 -0.021117
H1    H     H_    0.828666 0.332788 0.287950 0.106527
H2    H     H_    0.844873 0.356440 0.199552 0.123509
H3    H     H_    0.514515 0.327564 0.193263 0.094753
C17   C     C_1   0.222000 0.859272 0.384983 -0.010625
C18   C     C_R   0.233274 0.870422 0.258776 -0.128047
C19   C     C_R   0.202959 0.854683 0.209682 0.279322
C20   C     C_R   0.002063 0.759014 0.232446 0.007368
C21   C     C_R   0.034967 0.778412 0.281466 -0.061185
C22   C     C_R   0.149924 0.833012 0.294486 -0.045666
C23   C     C_R   0.087286 0.796796 0.196445 0.019717
C24   C     C_1   0.058119 0.775534 0.145737 -0.023146
C25   C     C_1   0.184513 0.846272 0.344444 -0.065069
C26   C     C_1   0.033159 0.756638 0.103544 -0.002495
H4    H     H_    0.322034 0.909494 0.269110 0.092573
H5    H     H_    0.971296 0.749271 0.309612 0.179916
C27   C     C_1   0.637289 0.864252 0.384678 0.005781
C28   C     C_R   0.565442 0.746566 0.266114 0.243083
C29   C     C_R   0.574505 0.734894 0.216026 0.274618
C30   C     C_R   0.771755 0.890887 0.218199 -0.014301
C31   C     C_R   0.761841 0.902068 0.268608 0.264140
C32   C     C_R   0.659759 0.828166 0.292405 -0.002600
C33   C     C_R   0.675514 0.809696 0.191807 -0.071716
C34   C     C_1   0.682285 0.796727 0.140219 -0.034427
C35   C     C_1   0.648573 0.843897 0.343309 0.027397
C36   C     C_1   0.695468 0.785660 0.097909 -0.009424
C37   C     C_R   0.641646 0.280367 0.614597 0.017208
C38   C     C_R   0.600591 0.349135 0.633136 -0.155923
C39   C     C_R   0.623220 0.386323 0.681112 0.024709
C40   C     C_R   0.681694 0.346902 0.710969 0.046623
C41   C     C_R   0.729108 0.285143 0.691031 -0.153994
C42   C     C_R   0.710820 0.253660 0.643069 -0.130218
C43   C     C_R   0.585255 0.321310 0.789744 -0.073255
C44   C     C_R   0.590348 0.335413 0.839619 -0.118643
C45   C     C_R   0.794423 0.409803 0.837212 -0.126749
C46   C     C_R   0.789621 0.398788 0.787493 -0.112229
C47   C     C_R   0.685737 0.358050 0.763456 0.082445
C48   C     C_R   0.695706 0.383449 0.863394 0.022145
H6    H     H_    0.550073 0.372452 0.610402 0.112859
H7    H     H_    0.503786 0.285450 0.771455 0.109455
H8    H     H_    0.513306 0.314267 0.859162 0.128450
H9    H     H_    0.867489 0.425345 0.767608 0.109430
H10   H     H_    0.877142 0.447387 0.854506 0.142160
H11   H     H_    0.774672 0.255058 0.713331 0.106769
H12   H     H_    0.743340 0.200297 0.629509 0.142380
C49   C     C_R   0.213787 0.855508 0.613467 0.041562
C50   C     C_R   0.182395 0.931521 0.634729 0.008845
C51   C     C_R   0.155257 0.920236 0.683905 -0.158465
C52   C     C_R   0.151111 0.830620 0.710699 0.004313
C53   C     C_R   0.170180 0.749436 0.688481 -0.116820
C54   C     C_R   0.201335 0.761661 0.640411 -0.147914
C55   C     C_R   0.018178 0.794610 0.779222 0.010459
C56   C     C_R   0.997916 0.779546 0.828714 -0.112679
C57   C     C_R   0.188899 0.810728 0.844066 -0.007997
C58   C     C_R   0.210186 0.828771 0.794539 -0.146159
C59   C     C_R   0.125904 0.819883 0.762259 -0.021930
C60   C     C_R   0.080993 0.785642 0.860954 0.012583
H13   H     H_    0.914583 0.757784 0.842333 0.166555
H14   H     H_    0.135697 0.980176 0.701368 0.093622
H15   H     H_    0.292794 0.849132 0.780677 0.163089
H16   H     H_    0.164183 0.678308 0.708881 0.134627
H17   H     H_    0.221813 0.700276 0.625260 0.125699
C61   C     C_R   0.627780 0.868219 0.619357 0.013140
C62   C     C_R   0.526711 0.792891 0.643486 -0.151003
C63   C     C_R   0.524114 0.781411 0.693493 0.015474
C64   C     C_R   0.627363 0.839633 0.719680 0.057836
C65   C     C_R   0.729485 0.909793 0.695093 -0.121510
C66   C     C_R   0.729477 0.925601 0.645422 -0.139051
C67   C     C_R   0.585255 0.711139 0.789864 0.012087
C68   C     C_R   0.604317 0.693198 0.837445 -0.088018
C69   C     C_R   0.717422 0.897616 0.849834 -0.117708
C70   C     C_R   0.696423 0.915504 0.802332 -0.110454
C71   C     C_R   0.633328 0.822159 0.771686 0.100777
C72   C     C_R   0.674397 0.786230 0.867082 0.020842
H18   H     H_    0.446754 0.749674 0.623891 0.122274
H19   H     H_    0.536797 0.638158 0.766657 0.162034
H20   H     H_    0.571186 0.606442 0.849819 0.140281
H21   H     H_    0.733396 0.001828 0.788872 0.099306
H22   H     H_    0.771503 0.970448 0.872336 0.130300
H23   H     H_    0.809587 0.953263 0.714523 0.128762
H24   H     H_    0.808098 0.984556 0.627663 0.134524
O14   O     O_R   0.819150 0.845650 0.033320 -0.520834
O15   O     O_R   0.006060 0.815720 0.028680 -0.483392
C73   C     C_R   0.999283 0.731417 0.053853 0.554857
O16   O     O_R   0.028100 0.664460 0.032550 -0.475029
O17   O     O_R   0.811290 0.477490 0.029660 -0.511247
C74   C     C_R   0.714295 0.435558 0.049757 0.536411
O18   O     O_R   0.638120 0.455970 0.034270 -0.506174
O19   O     O_R   0.667540 0.672320 0.030160 -0.489656
C75   C     C_R   0.723831 0.770467 0.049680 0.536087
O20   O     O_R   0.814460 0.840990 0.926980 -0.516116
O21   O     O_R   0.001710 0.811400 0.930110 -0.499589
C76   C     C_R   0.044380 0.756518 0.910715 0.615995
O22   O     O_R   0.023410 0.659800 0.926210 -0.479070
O23   O     O_R   0.806940 0.473170 0.931090 -0.511338
C77   C     C_R   0.708897 0.430366 0.911917 0.543666
O24   O     O_R   0.633420 0.451310 0.927930 -0.512624
O25   O     O_R   0.663190 0.668000 0.931580 -0.498277
C78   C     C_R   0.716863 0.766085 0.912307 0.542636
Cr4   Cr    Cr6+3 0.908000 0.821090 0.979770 1.035398
Cr5   Cr    Cr6+3 0.912420 0.571130 0.979880 1.045474
Cr6   Cr    Cr6+3 0.657970 0.566940 0.980940 1.027077
O26   O     O_3   0.826130 0.653050 0.980200 -0.280116
O27   O     O_3   0.481774 0.653867 0.190220 -0.544618
C79   C     C_3   0.480702 0.549100 0.192749 0.022049
H25   H     H_    0.475301 0.520321 0.230860 0.198510
H26   H     H_    0.558253 0.556071 0.175719 0.140617
C80   C     C_3   0.376988 0.459045 0.165585 -0.357312
H27   H     H_    0.381322 0.483566 0.127021 0.171746
H28   H     H_    0.373579 0.375508 0.167679 0.092686
H29   H     H_    0.298337 0.450534 0.181798 0.168906
C81   C     C_2   0.882331 0.962144 0.193157 0.231010
H30   H     H_    0.885919 0.967409 0.154052 0.102140
O28   O     O_2   0.971448 0.014052 0.215682 -0.480806
O29   O     O_3   0.853232 0.982693 0.295268 -0.497116
C82   C     C_3   0.849901 0.085448 0.295253 0.011128
H31   H     H_    0.770816 0.073787 0.312588 0.107116
H32   H     H_    0.854879 0.117819 0.257805 0.138823
C83   C     C_3   0.951156 0.174960 0.323819 -0.342274
H33   H     H_    0.031593 0.189632 0.307024 0.173699
H34   H     H_    0.949868 0.256352 0.324120 0.082225
H35   H     H_    0.947557 0.145965 0.361648 0.170205
C84   C     C_2   0.586206 0.466628 0.698044 0.206119
H36   H     H_    0.523666 0.476981 0.677409 0.087708
O30   O     O_2   0.628427 0.525629 0.733874 -0.491513
C85   C     C_2   0.174050 0.021548 0.607653 0.234763
H37   H     H_    0.186332 0.097332 0.626446 0.086157
O31   O     O_2   0.146364 0.009141 0.565079 -0.488327
C86   C     C_2   0.924621 0.777567 0.745859 0.233093
H38   H     H_    0.934776 0.778056 0.707026 0.125884
O32   O     O_2   0.833827 0.761655 0.761456 -0.495541
C87   C     C_2   0.281492 0.820125 0.876034 0.231847
H39   H     H_    0.360179 0.832969 0.860231 0.132068
O33   O     O_2   0.272555 0.815256 0.919957 -0.484761
C88   C     C_2   0.410753 0.713773 0.716294 0.180480
H40   H     H_    0.339747 0.650752 0.695035 0.091716
O34   O     O_2   0.393749 0.730548 0.757976 -0.550216
O35   O     O_3   0.477001 0.301696 0.287974 -0.545604
C89   C     C_3   0.382491 0.193822 0.277395 -0.021786
H41   H     H_    0.402038 0.124288 0.284651 0.113404
H42   H     H_    0.355468 0.189639 0.239093 0.116980
C90   C     C_3   0.283466 0.174139 0.309395 -0.336929
H43   H     H_    0.261161 0.241756 0.303085 0.163302
H44   H     H_    0.208251 0.090052 0.300861 0.139702
H45   H     H_    0.306687 0.175303 0.348021 0.172882
O36   O     O_3   0.285250 0.885586 0.174355 -0.541727
C91   C     C_3   0.352929 0.005487 0.172926 -0.014753
H46   H     H_    0.410096 0.037660 0.204997 0.109173
H47   H     H_    0.299461 0.046847 0.171119 0.131146
C92   C     C_3   0.426866 0.039590 0.128045 -0.347212
H48   H     H_    0.372570 0.008565 0.095142 0.181421
H49   H     H_    0.479667 0.133809 0.126317 0.099649
H50   H     H_    0.483728 0.002423 0.129219 0.168687
C93   C     C_2   0.879200 0.697860 0.219424 0.233122
H51   H     H_    0.852275 0.684212 0.181874 0.091406
O37   O     O_2   0.806058 0.661747 0.250593 -0.508954
O38   O     O_3   0.466292 0.672646 0.289958 -0.540650
C94   C     C_3   0.388909 0.713399 0.285848 0.002847
H52   H     H_    0.369023 0.720307 0.247311 0.184822
H53   H     H_    0.423446 0.798183 0.303667 0.110364
C95   C     C_3   0.278661 0.630156 0.310751 -0.353514
H54   H     H_    0.294408 0.625640 0.349897 0.172592
H55   H     H_    0.215176 0.658481 0.306406 0.112350
H56   H     H_    0.243699 0.544050 0.294450 0.161533

loop_
_geom_bond_atom_site_label_1
_geom_bond_atom_site_label_2
_geom_bond_distance
_ccdc_geom_bond_type
C21   H5    1.083898 S    
C55   C59   1.407164 A    
C85   H37   1.085659 S    
O35   C89   1.412157 S    
C62   C63   1.391158 A    
O22   Cr5   2.033328 S    
C60   C76   1.452411 S    
Cr4   O26   1.972653 S    
O15   C73   1.300577 A    
O27   C79   1.412104 S    
O4    Cr2   1.910717 S    
C57   C58   1.398127 A    
C31   C32   1.407470 A    
O8    Cr1   1.920894 S    
C10   C11   1.404850 A    
C29   C33   1.406719 A    
C43   C47   1.402752 A    
C87   O33   1.220537 D    
C19   C23   1.407307 A    
C52   C59   1.458955 S    
C58   H15   1.083757 S    
C6    C49   1.474783 S    
O4    C2    1.272779 A    
C80   H29   1.110807 S    
C44   C48   1.401451 A    
C93   O37   1.221440 D    
C45   C48   1.406247 A    
C42   H12   1.083732 S    
C2    C7    1.431352 S    
C81   H30   1.084200 S    
C45   H10   1.083259 S    
C64   C65   1.408009 A    
C1    C27   1.433631 S    
C67   C71   1.401308 A    
C69   C72   1.402745 A    
C27   C35   1.205399 T    
O19   Cr6   1.928241 S    
O15   Cr4   1.919746 S    
C43   H7    1.083347 S    
C94   H53   1.114314 S    
O17   Cr5   1.916356 S    
C74   O18   1.267571 A    
C51   H14   1.084628 S    
C82   H31   1.114058 S    
C53   H16   1.083665 S    
C55   C86   1.487773 S    
C87   H39   1.086020 S    
O6    C3    1.272141 A    
C83   H35   1.110735 S    
C3    C17   1.434564 S    
C46   H9    1.083742 S    
C13   C14   1.437457 S    
O14   Cr4   2.042330 S    
C11   O35   1.385188 S    
C84   O30   1.219865 D    
C49   C50   1.422096 A    
C9    H2    1.083375 S    
O21   Cr4   1.923772 S    
C32   C35   1.444391 S    
C68   H20   1.083503 S    
C92   H49   1.110166 S    
C45   C46   1.381572 A    
C38   C39   1.397234 A    
C85   O31   1.220812 D    
C19   O36   1.386044 S    
Cr3   O13   1.971471 S    
C88   O34   1.220362 D    
C4    C61   1.465754 S    
C40   C41   1.397558 A    
C79   C80   1.520900 S    
C91   H46   1.111788 S    
C20   C23   1.418377 A    
C39   C84   1.481952 S    
C90   H44   1.110799 S    
C9    C13   1.399653 A    
O1    Cr1   2.039920 S    
C68   C72   1.400995 A    
C30   C31   1.417196 A    
C64   C71   1.466857 S    
C95   H56   1.110835 S    
O10   Cr2   1.927656 S    
O21   C76   1.266489 A    
C82   C83   1.520722 S    
O1    C3    1.267229 A    
C8    C9    1.398139 A    
C79   H26   1.114630 S    
C29   O27   1.383246 S    
C20   C21   1.409268 A    
C50   C51   1.399662 A    
C52   C53   1.391015 A    
C37   C38   1.398650 A    
C90   H43   1.110763 S    
C53   C54   1.382287 A    
C1    O3    1.268765 A    
C46   C47   1.396318 A    
O38   C94   1.411533 S    
C7    C15   1.204049 T    
C92   H48   1.110729 S    
C94   C95   1.520780 S    
C18   C19   1.402766 A    
C62   H18   1.084186 S    
C26   C73   1.434034 S    
C50   C85   1.481480 S    
C55   C56   1.392982 A    
O16   Cr5   2.046438 S    
O23   Cr5   1.929140 S    
O7    Cr1   2.039588 S    
O8    C4    1.269099 A    
C63   C64   1.414002 A    
Cr1   O13   1.972881 S    
C41   C42   1.376992 A    
O12   C6    1.275000 A    
C61   C62   1.407727 A    
O18   Cr6   2.026668 S    
C37   C42   1.400686 A    
C24   C26   1.205567 T    
C84   H36   1.085690 S    
C2    O5    1.267605 A    
O25   Cr6   1.909453 S    
C21   C22   1.398120 A    
Cr2   O13   1.978737 S    
C28   C29   1.407770 A    
C34   C36   1.205599 T    
Cr6   O26   1.978574 S    
C57   C87   1.485402 S    
C5    C37   1.451668 S    
C83   H34   1.110072 S    
C41   H11   1.084048 S    
C69   H22   1.083235 S    
C23   C24   1.445642 S    
C89   H41   1.115054 S    
C77   O24   1.271374 A    
O20   Cr4   2.034420 S    
C70   C71   1.401587 A    
O19   C75   1.274976 A    
C57   C60   1.409402 A    
C8    C12   1.401543 A    
O29   C82   1.413302 S    
C90   H45   1.110818 S    
C94   H52   1.114105 S    
C81   O28   1.221025 D    
C33   C34   1.447112 S    
C67   H19   1.081557 S    
C31   O29   1.384483 S    
C65   H23   1.083487 S    
C92   H50   1.110782 S    
O9    Cr2   2.026933 S    
C82   H32   1.114313 S    
O2    Cr1   1.923856 S    
C58   C59   1.404515 A    
C12   C15   1.438906 S    
C56   C60   1.403723 A    
C16   C74   1.431687 S    
C79   H25   1.114316 S    
O6    Cr3   1.929556 S    
C91   H47   1.115581 S    
C80   H27   1.110693 S    
O11   Cr3   2.047090 S    
C72   C78   1.456729 S    
O3    Cr2   2.044696 S    
C30   C81   1.493077 S    
C44   H8    1.083175 S    
C8    H1    1.082928 S    
C83   H33   1.110870 S    
C70   H21   1.083370 S    
C30   C33   1.417149 A    
C61   C66   1.396622 A    
C95   H54   1.110734 S    
O2    C1    1.274267 A    
O25   C78   1.272161 A    
O5    Cr3   2.030611 S    
O17   C74   1.274821 A    
C86   H38   1.083570 S    
C14   C16   1.204274 T    
C80   H28   1.109559 S    
C40   C47   1.458144 S    
C93   H51   1.084699 S    
C88   H40   1.085475 S    
C28   O38   1.383362 S    
C89   H42   1.112095 S    
C49   C54   1.408960 A    
O7    C6    1.268002 A    
O23   C77   1.269652 A    
C28   C32   1.403804 A    
C66   H24   1.083135 S    
C43   C44   1.389921 A    
C67   C68   1.385245 A    
C22   C25   1.440059 S    
C65   C66   1.391099 A    
C63   C88   1.485864 S    
C18   C22   1.396763 A    
C69   C70   1.390313 A    
O12   Cr3   1.914129 S    
C91   C92   1.520351 S    
C17   C25   1.205681 T    
C38   H6    1.084353 S    
C36   C75   1.433253 S    
C51   C52   1.398628 A    
C20   C93   1.487710 S    
C10   H3    1.081966 S    
O14   C75   1.267975 A    
C4    O9    1.276357 A    
C48   C77   1.456811 S    
C10   C13   1.399400 A    
Cr5   O26   1.971714 S    
O36   C91   1.412442 S    
C56   H13   1.085489 S    
C11   C12   1.406442 A    
C54   H17   1.083000 S    
O10   C5    1.266933 A    
C39   C40   1.418086 A    
C73   O16   1.294119 A    
C18   H4    1.083406 S    
O24   Cr6   2.046112 S    
O20   C78   1.266581 A    
C5    O11   1.270041 A    
C86   O32   1.220351 D    
C76   O22   1.268243 A    
C89   C90   1.520763 S    
C95   H55   1.108881 S    
