data_mof_unit_30918.cif
_audit_creation_date              2012-10-26T17:11:11-0400
_audit_creation_method            fapswitch 2.2
_symmetry_space_group_name_H-M    P1
_symmetry_Int_Tables_number       1
_space_group_crystal_system       triclinic
_cell_length_a                    27.943211
_cell_length_b                    18.684323
_cell_length_c                    16.86703
_cell_angle_alpha                 89.999934
_cell_angle_beta                  62.587868
_cell_angle_gamma                 89.999898
_cell_volume                      7817.48904489

loop_
_atom_site_label
_atom_site_type_symbol
_atom_type_description
_atom_site_fract_x
_atom_site_fract_y
_atom_site_fract_z
_atom_type_partial_charge
C1    C     C_R   0.295046 0.728327 0.329631 0.814254
C2    C     C_R   0.704954 0.271673 0.670369 0.814254
C3    C     C_R   0.704954 0.728327 0.670369 0.814252
C4    C     C_R   0.295046 0.271673 0.329631 0.814254
C5    C     C_R   0.795046 0.228327 0.329631 0.814253
C6    C     C_R   0.204954 0.771672 0.670369 0.814251
C7    C     C_R   0.204954 0.228326 0.670369 0.814254
C8    C     C_R   0.795046 0.771673 0.329631 0.814254
C9    C     C_R   0.535783 0.871961 0.542432 -0.252255
C10   C     C_R   0.464215 0.128043 0.457569 -0.252244
C11   C     C_R   0.464217 0.871960 0.457568 -0.252250
C12   C     C_R   0.535785 0.128042 0.542428 -0.252245
C13   C     C_R   0.035783 0.371959 0.542435 -0.252246
C14   C     C_R   0.964215 0.628040 0.457572 -0.252246
C15   C     C_R   0.964215 0.371959 0.457573 -0.252244
C16   C     C_R   0.035782 0.628041 0.542434 -0.252242
C17   C     C_R   0.220806 0.767528 0.953315 0.111257
C18   C     C_R   0.779194 0.232472 0.046685 0.111257
C19   C     C_R   0.779194 0.767529 0.046685 0.111255
C20   C     C_R   0.220805 0.232472 0.953315 0.111252
C21   C     C_R   0.720806 0.267528 0.953315 0.111257
C22   C     C_R   0.279194 0.732472 0.046685 0.111257
C23   C     C_R   0.279195 0.267527 0.046684 0.111252
C24   C     C_R   0.720806 0.732471 0.953314 0.111256
C25   C     C_R   0.241407 0.698216 0.947980 -0.172774
C26   C     C_R   0.758592 0.301783 0.052020 -0.172774
C27   C     C_R   0.758592 0.698218 0.052021 -0.172774
C28   C     C_R   0.241419 0.301775 0.947964 -0.172775
C29   C     C_R   0.741408 0.198217 0.947980 -0.172774
C30   C     C_R   0.258593 0.801784 0.052020 -0.172774
C31   C     C_R   0.258581 0.198225 0.052036 -0.172774
C32   C     C_R   0.741408 0.801782 0.947979 -0.172774
C33   C     C_R   0.270249 0.680814 0.994337 -0.172848
C34   C     C_R   0.729751 0.319185 0.005663 -0.172850
C35   C     C_R   0.729751 0.680815 0.005663 -0.172850
C36   C     C_R   0.270261 0.319176 0.994320 -0.172847
C37   C     C_R   0.770249 0.180815 0.994337 -0.172849
C38   C     C_R   0.229751 0.819186 0.005662 -0.172848
C39   C     C_R   0.229739 0.180823 0.005680 -0.172847
C40   C     C_R   0.770249 0.819185 0.994336 -0.172849
C41   C     C_R   0.144367 0.829222 0.943800 -0.199402
C42   C     C_R   0.855633 0.170778 0.056200 -0.199403
C43   C     C_R   0.855633 0.829222 0.056200 -0.199403
C44   C     C_R   0.144364 0.170782 0.943801 -0.199403
C45   C     C_R   0.644366 0.329221 0.943800 -0.199403
C46   C     C_R   0.355633 0.670778 0.056200 -0.199402
C47   C     C_R   0.355636 0.329218 0.056198 -0.199403
C48   C     C_R   0.644367 0.670778 0.943800 -0.199402
C49   C     C_R   0.117660 0.851560 0.895138 -0.064379
C50   C     C_R   0.882340 0.148441 0.104861 -0.064379
C51   C     C_R   0.882340 0.851560 0.104861 -0.064379
C52   C     C_R   0.117658 0.148442 0.895139 -0.064379
C53   C     C_R   0.617660 0.351559 0.895138 -0.064378
C54   C     C_R   0.382340 0.648440 0.104861 -0.064379
C55   C     C_R   0.382341 0.351558 0.104861 -0.064379
C56   C     C_R   0.617660 0.648440 0.895138 -0.064379
C57   C     C_R   0.136227 0.829252 0.807028 -0.207071
C58   C     C_R   0.863773 0.170748 0.192972 -0.207069
C59   C     C_R   0.863773 0.829252 0.192972 -0.207068
C60   C     C_R   0.136226 0.170748 0.807028 -0.207065
C61   C     C_R   0.636227 0.329252 0.807028 -0.207068
C62   C     C_R   0.363773 0.670748 0.192972 -0.207069
C63   C     C_R   0.363774 0.329252 0.192972 -0.207065
C64   C     C_R   0.636227 0.670748 0.807028 -0.207068
C65   C     C_R   0.182324 0.787086 0.765971 -0.061407
C66   C     C_R   0.817676 0.212914 0.234029 -0.061407
C67   C     C_R   0.817676 0.787087 0.234029 -0.061406
C68   C     C_R   0.182324 0.212912 0.765971 -0.061406
C69   C     C_R   0.682324 0.287086 0.765971 -0.061406
C70   C     C_R   0.317676 0.712914 0.234029 -0.061406
C71   C     C_R   0.317676 0.287088 0.234029 -0.061406
C72   C     C_R   0.682324 0.712913 0.765971 -0.061406
C73   C     C_R   0.209133 0.764925 0.814797 -0.201198
C74   C     C_R   0.790867 0.235075 0.185202 -0.201198
C75   C     C_R   0.790867 0.764926 0.185203 -0.201198
C76   C     C_R   0.209134 0.235072 0.814796 -0.201200
C77   C     C_R   0.709133 0.264925 0.814797 -0.201199
C78   C     C_R   0.290867 0.735075 0.185202 -0.201198
C79   C     C_R   0.290866 0.264928 0.185204 -0.201200
C80   C     C_R   0.709133 0.735074 0.814797 -0.201199
C81   C     C_R   0.190507 0.786347 0.903788 0.071647
C82   C     C_R   0.809493 0.213653 0.096212 0.071647
C83   C     C_R   0.809493 0.786348 0.096212 0.071647
C84   C     C_R   0.190506 0.213653 0.903788 0.071652
C85   C     C_R   0.690507 0.286347 0.903788 0.071648
C86   C     C_R   0.309493 0.713653 0.096212 0.071648
C87   C     C_R   0.309494 0.286347 0.096211 0.071652
C88   C     C_R   0.690507 0.713652 0.903788 0.071648
C89   C     C_R   0.196220 0.631779 0.528601 0.806979
C90   C     C_R   0.803779 0.368221 0.471400 0.806983
C91   C     C_R   0.803779 0.631779 0.471400 0.806983
C92   C     C_R   0.196221 0.368221 0.528601 0.806982
C93   C     C_R   0.696221 0.131779 0.528600 0.806983
C94   C     C_R   0.303779 0.868221 0.471400 0.806982
C95   C     C_R   0.303779 0.131779 0.471400 0.806983
C96   C     C_R   0.696221 0.868221 0.528600 0.806982
C97   C     C_R   0.926612 0.902992 0.066529 0.806118
C98   C     C_R   0.073388 0.097008 0.933471 0.806118
C99   C     C_R   0.073388 0.902992 0.933471 0.806121
C100  C     C_R   0.926612 0.097008 0.066529 0.806117
C101  C     C_R   0.426612 0.402992 0.066529 0.806118
C102  C     C_R   0.573388 0.597008 0.933471 0.806119
C103  C     C_R   0.573388 0.402992 0.933471 0.806118
C104  C     C_R   0.426612 0.597008 0.066529 0.806120
C105  C     C_R   0.043044 0.500000 0.522443 0.022556
C106  C     C_R   0.956954 0.500000 0.477565 0.022556
C107  C     C_R   0.543046 0.000001 0.522436 0.022557
C108  C     C_R   0.456955 0.000001 0.477560 0.022556
C109  C     C_R   0.020570 0.565402 0.513664 0.039558
C110  C     C_R   0.979427 0.434598 0.486343 0.039558
C111  C     C_R   0.979427 0.565402 0.486342 0.039557
C112  C     C_R   0.020570 0.434598 0.513665 0.039558
C113  C     C_R   0.520572 0.065403 0.513658 0.039558
C114  C     C_R   0.479429 0.934599 0.486339 0.039558
C115  C     C_R   0.479429 0.065403 0.486338 0.039559
C116  C     C_R   0.520572 0.934599 0.513659 0.039558
C117  C     C_R   0.110157 0.434508 0.550782 0.018532
C118  C     C_R   0.889841 0.565491 0.449222 0.018532
C119  C     C_R   0.889842 0.434508 0.449222 0.018533
C120  C     C_R   0.110157 0.565492 0.550784 0.018534
C121  C     C_R   0.610158 0.934508 0.550778 0.018533
C122  C     C_R   0.389842 0.065492 0.449219 0.018531
C123  C     C_R   0.389842 0.934508 0.449220 0.018534
C124  C     C_R   0.610159 0.065492 0.550778 0.018533
C125  C     C_R   0.162875 0.434435 0.545853 -0.122714
C126  C     C_R   0.837125 0.565565 0.454149 -0.122714
C127  C     C_R   0.837125 0.434434 0.454149 -0.122713
C128  C     C_R   0.162874 0.565566 0.545854 -0.122715
C129  C     C_R   0.662875 0.934434 0.545851 -0.122714
C130  C     C_R   0.337125 0.065565 0.454148 -0.122713
C131  C     C_R   0.337125 0.934434 0.454148 -0.122714
C132  C     C_R   0.662875 0.065565 0.545851 -0.122713
C133  C     C_R   0.187836 0.500000 0.543377 -0.265874
C134  C     C_R   0.812163 0.500000 0.456625 -0.265875
C135  C     C_R   0.687837 1.000000 0.543374 -0.265875
C136  C     C_R   0.312163 1.000000 0.456624 -0.265874
C137  C     C_R   0.088289 0.500000 0.540245 0.047686
C138  C     C_R   0.911709 0.499999 0.459762 0.047685
C139  C     C_R   0.588291 0.000000 0.540239 0.047685
C140  C     C_R   0.411710 0.000000 0.459758 0.047686
C141  C     C_R   0.576929 0.873007 0.567812 -0.008895
C142  C     C_R   0.423071 0.126994 0.432186 -0.008896
C143  C     C_R   0.423071 0.873006 0.432188 -0.008896
C144  C     C_R   0.576930 0.126994 0.567811 -0.008896
C145  C     C_R   0.076928 0.373006 0.567815 -0.008896
C146  C     C_R   0.923070 0.626993 0.432190 -0.008895
C147  C     C_R   0.923071 0.373006 0.432191 -0.008896
C148  C     C_R   0.076927 0.626994 0.567815 -0.008902
Cu1   Cu    Cu3+1 0.209920 0.785290 0.495070 0.962789
Cu2   Cu    Cu3+1 0.790080 0.214710 0.504930 0.962786
Cu3   Cu    Cu3+1 0.790080 0.785290 0.504930 0.962784
Cu4   Cu    Cu3+1 0.209920 0.214710 0.495070 0.962784
Cu5   Cu    Cu3+1 0.709920 0.285290 0.495070 0.962784
Cu6   Cu    Cu3+1 0.290080 0.714710 0.504930 0.962786
Cu7   Cu    Cu3+1 0.290080 0.285290 0.504930 0.962783
Cu8   Cu    Cu3+1 0.709920 0.714710 0.495070 0.962785
Cu9   Cu    Cu3+1 0.495240 0.500000 0.924150 0.952006
Cu10  Cu    Cu3+1 0.504760 0.500000 0.075850 0.952007
Cu11  Cu    Cu3+1 0.995240 0.000000 0.924150 0.952007
Cu12  Cu    Cu3+1 0.004760 0.000000 0.075850 0.952006
H1    H     H_    0.228430 0.500000 0.536085 0.189024
H2    H     H_    0.771570 0.500000 0.463914 0.189024
H3    H     H_    0.728430 1.000000 0.536085 0.189024
H4    H     H_    0.271570 1.000000 0.463915 0.189024
H5    H     H_    0.512388 0.823386 0.553546 0.145987
H6    H     H_    0.487605 0.176622 0.446464 0.145980
H7    H     H_    0.487610 0.823384 0.446458 0.145984
H8    H     H_    0.512395 0.176621 0.553535 0.145980
H9    H     H_    0.012391 0.323381 0.553544 0.145980
H10   H     H_    0.987607 0.676618 0.446462 0.145980
H11   H     H_    0.987607 0.323380 0.446466 0.145980
H12   H     H_    0.012390 0.676619 0.553541 0.145980
H13   H     H_    0.215146 0.873426 0.009651 0.129668
H14   H     H_    0.784855 0.126576 0.990347 0.129667
H15   H     H_    0.784855 0.873424 0.990347 0.129667
H16   H     H_    0.215125 0.126590 0.009684 0.129667
H17   H     H_    0.715145 0.373424 0.009653 0.129667
H18   H     H_    0.284854 0.626574 0.990349 0.129667
H19   H     H_    0.284876 0.373410 0.990316 0.129667
H20   H     H_    0.715145 0.626576 0.009653 0.129667
H21   H     H_    0.234541 0.657224 0.908956 0.130965
H22   H     H_    0.765458 0.342775 0.091045 0.130965
H23   H     H_    0.765457 0.657226 0.091045 0.130965
H24   H     H_    0.234563 0.342761 0.908927 0.130964
H25   H     H_    0.734542 0.157225 0.908955 0.130965
H26   H     H_    0.265459 0.842776 0.091043 0.130965
H27   H     H_    0.265437 0.157238 0.091073 0.130964
H28   H     H_    0.734543 0.842774 0.908954 0.130965
H29   H     H_    0.129928 0.846219 0.012428 0.150761
H30   H     H_    0.870072 0.153782 0.987571 0.150760
H31   H     H_    0.870072 0.846219 0.987571 0.150760
H32   H     H_    0.129923 0.153789 0.012432 0.150758
H33   H     H_    0.629928 0.346218 0.012429 0.150761
H34   H     H_    0.370072 0.653781 0.987572 0.150761
H35   H     H_    0.370077 0.346211 0.987568 0.150758
H36   H     H_    0.629928 0.653781 0.012429 0.150761
H37   H     H_    0.116039 0.847238 0.769063 0.185508
H38   H     H_    0.883961 0.152762 0.230937 0.185506
H39   H     H_    0.883961 0.847238 0.230937 0.185505
H40   H     H_    0.116039 0.152762 0.769062 0.185506
H41   H     H_    0.616039 0.347238 0.769063 0.185506
H42   H     H_    0.383961 0.652762 0.230937 0.185506
H43   H     H_    0.383961 0.347238 0.230938 0.185506
H44   H     H_    0.616039 0.652762 0.769063 0.185506
H45   H     H_    0.245773 0.733604 0.782675 0.149711
H46   H     H_    0.754227 0.266395 0.217325 0.149711
H47   H     H_    0.754227 0.733605 0.217326 0.149711
H48   H     H_    0.245775 0.266389 0.782671 0.149709
H49   H     H_    0.745773 0.233605 0.782675 0.149711
H50   H     H_    0.254227 0.766396 0.217325 0.149711
H51   H     H_    0.254225 0.233611 0.217329 0.149709
H52   H     H_    0.745773 0.766394 0.782674 0.149711
O1    O     O_R   0.255040 0.869590 0.478480 -0.587092
O2    O     O_R   0.744960 0.130410 0.521520 -0.587092
O3    O     O_R   0.744960 0.869590 0.521520 -0.587092
O4    O     O_R   0.255040 0.130410 0.478480 -0.587092
O5    O     O_R   0.755040 0.369590 0.478480 -0.587092
O6    O     O_R   0.244960 0.630410 0.521520 -0.587091
O7    O     O_R   0.244960 0.369590 0.521520 -0.587091
O8    O     O_R   0.755040 0.630410 0.478480 -0.587092
O9    O     O_R   0.182050 0.796550 0.624440 -0.573743
O10   O     O_R   0.817950 0.203450 0.375560 -0.573747
O11   O     O_R   0.817950 0.796550 0.375560 -0.573748
O12   O     O_R   0.182050 0.203450 0.624440 -0.573747
O13   O     O_R   0.682050 0.296550 0.624440 -0.573747
O14   O     O_R   0.317950 0.703450 0.375560 -0.573747
O15   O     O_R   0.317950 0.296550 0.375560 -0.573748
O16   O     O_R   0.682050 0.703450 0.624440 -0.573746
O17   O     O_R   0.250530 0.763330 0.367210 -0.595890
O18   O     O_R   0.749470 0.236670 0.632790 -0.595890
O19   O     O_R   0.749470 0.763330 0.632790 -0.595890
O20   O     O_R   0.250530 0.236670 0.367210 -0.595891
O21   O     O_R   0.750530 0.263330 0.367210 -0.595891
O22   O     O_R   0.249470 0.736670 0.632790 -0.595891
O23   O     O_R   0.249470 0.263330 0.632790 -0.595891
O24   O     O_R   0.750530 0.736670 0.367210 -0.595891
O25   O     O_R   0.177260 0.690030 0.513710 -0.579992
O26   O     O_R   0.822740 0.309970 0.486290 -0.579994
O27   O     O_R   0.822740 0.690030 0.486290 -0.579994
O28   O     O_R   0.177260 0.309970 0.513710 -0.579994
O29   O     O_R   0.677260 0.190030 0.513710 -0.579994
O30   O     O_R   0.322740 0.809970 0.486290 -0.579993
O31   O     O_R   0.322740 0.190030 0.486290 -0.579994
O32   O     O_R   0.677260 0.809970 0.513710 -0.579993
O33   O     O_R   0.051640 0.926880 0.885090 -0.585454
O34   O     O_R   0.948360 0.073120 0.114910 -0.585455
O35   O     O_R   0.948360 0.926880 0.114910 -0.585455
O36   O     O_R   0.051640 0.073120 0.885090 -0.585455
O37   O     O_R   0.551640 0.426880 0.885090 -0.585455
O38   O     O_R   0.448360 0.573120 0.114910 -0.585454
O39   O     O_R   0.448360 0.426880 0.114910 -0.585454
O40   O     O_R   0.551640 0.573120 0.885090 -0.585455
O41   O     O_R   0.940620 0.926560 0.986760 -0.591925
O42   O     O_R   0.059380 0.073440 0.013240 -0.591926
O43   O     O_R   0.059380 0.926560 0.013240 -0.591925
O44   O     O_R   0.940620 0.073440 0.986760 -0.591926
O45   O     O_R   0.440620 0.426560 0.986760 -0.591926
O46   O     O_R   0.559380 0.573440 0.013240 -0.591926
O47   O     O_R   0.559380 0.426560 0.013240 -0.591926
O48   O     O_R   0.440620 0.573440 0.986760 -0.591925
C149  C     C_1   0.574951 0.817831 0.629420 0.270360
N1    N     N_1   0.572873 0.773839 0.679221 -0.289747
C150  C     C_1   0.425048 0.182170 0.370577 0.270361
N2    N     N_1   0.427127 0.226161 0.320775 -0.289747
C151  C     C_1   0.425049 0.817829 0.370580 0.270359
N3    N     N_1   0.427127 0.773837 0.320781 -0.289746
C152  C     C_1   0.574951 0.182170 0.629421 0.270360
N4    N     N_1   0.572873 0.226160 0.679224 -0.289749
C153  C     C_1   0.074951 0.317830 0.629424 0.270359
N5    N     N_1   0.072874 0.273839 0.679224 -0.289747
C154  C     C_1   0.925049 0.682168 0.370579 0.270360
N6    N     N_1   0.927127 0.726157 0.320776 -0.289749
C155  C     C_1   0.925049 0.317828 0.370583 0.270359
N7    N     N_1   0.927127 0.273836 0.320783 -0.289746
C156  C     C_1   0.074953 0.682177 0.629416 0.270356
N8    N     N_1   0.072877 0.726176 0.679207 -0.289740

loop_
_geom_bond_atom_site_label_1
_geom_bond_atom_site_label_2
_ccdc_geom_bond_type
C1    O14   A    
C51   C97   S    
Cu6   O30   S    
Cu9   Cu10  S    
C91   C126  S    
Cu5   O29   S    
C70   C78   A    
C43   C83   A    
C124  C139  A    
C69   C77   A    
C156  N8    T    
C42   C82   A    
C127  C134  A    
C13   C145  A    
C14   H10   S    
C75   C83   A    
C92   C125  S    
C76   C84   A    
C71   C79   A    
Cu10  O38   S    
C67   C75   A    
C65   C73   A    
C150  N2    T    
C79   H51   S    
Cu4   O4    S    
C47   H35   S    
Cu7   O15   S    
C96   O3    A    
C63   H43   S    
Cu6   O14   S    
C107  C113  A    
C102  O40   A    
C4    O20   A    
C108  C115  A    
C117  C145  A    
C146  C154  S    
C18   C37   A    
C53   C103  S    
C13   C112  A    
C109  C111  A    
C74   H46   S    
C149  N1    T    
C107  C116  A    
C106  C138  A    
Cu9   O48   S    
C29   C37   A    
C108  C114  A    
C154  N6    T    
C66   C74   A    
C106  C110  A    
C20   C84   S    
C99   O43   A    
C49   C57   A    
C124  C132  A    
C145  C153  S    
C56   C102  S    
C10   C142  A    
C4    O15   A    
Cu12  O42   S    
C91   O8    A    
C11   C114  A    
C16   H12   S    
C96   O32   A    
C90   O5    A    
Cu1   O9    S    
C52   C60   A    
Cu3   O11   S    
C59   C67   A    
C7    C68   S    
C129  C135  A    
C75   H47   S    
C26   C34   A    
C6    C65   S    
Cu3   O19   S    
C59   H39   S    
Cu2   O26   S    
Cu2   Cu5   S    
C55   C63   A    
C95   C130  S    
Cu1   O25   S    
C90   C127  S    
C48   C88   A    
Cu7   O7    S    
C135  H3    S    
Cu6   O6    S    
C2    C69   S    
Cu8   O32   S    
C151  N3    T    
C78   H50   S    
Cu5   O5    S    
C77   H49   S    
C80   H52   S    
C6    O9    A    
C61   H41   S    
C78   C86   A    
C22   C86   S    
C5    O10   A    
C37   H14   S    
C43   H31   S    
C23   C87   S    
C153  N5    T    
C48   H36   S    
C11   H7    S    
C95   O4    A    
Cu2   O10   S    
C15   C110  A    
Cu6   O22   S    
C101  O39   A    
C36   H19   S    
C53   C61   A    
Cu11  O44   S    
C74   C82   A    
C19   C83   S    
C79   C87   A    
C58   C66   A    
C16   C109  A    
C46   H34   S    
C110  C112  A    
C106  C111  A    
C123  C131  A    
C11   C143  A    
C45   H33   S    
C14   C111  A    
C89   O6    A    
Cu9   O45   S    
C24   C35   A    
C104  O38   A    
C32   H28   S    
Cu5   O21   S    
C34   H17   S    
C103  O37   A    
C89   O25   A    
C118  C146  A    
Cu2   O2    S    
C100  O34   A    
Cu10  O39   S    
C94   O30   A    
Cu1   O1    S    
C131  C136  A    
C2    O18   A    
C3    O19   A    
C108  C140  A    
C20   C39   A    
C90   O26   A    
C5    C66   S    
C38   H13   S    
C134  H2    S    
C21   C34   A    
C20   C28   A    
C27   C35   A    
Cu8   O16   S    
Cu10  O46   S    
C21   C29   A    
C123  C140  A    
C45   C53   A    
C21   C85   S    
C102  O46   A    
C101  O45   A    
C13   H9    S    
C143  C151  S    
C23   C31   A    
C92   O7    A    
C45   C85   A    
Cu1   Cu6   S    
C24   C32   A    
C98   O36   A    
C46   C86   A    
C121  C141  A    
C49   C99   S    
C42   H30   S    
Cu11  Cu12  S    
Cu4   O28   S    
Cu4   Cu7   S    
Cu7   O23   S    
C42   C50   A    
C10   H6    S    
C41   C81   A    
C18   C26   A    
C46   C54   A    
Cu9   O37   S    
C120  C128  A    
C155  N7    T    
C148  C156  S    
C15   H11   S    
Cu8   O8    S    
Cu3   Cu8   S    
C1    C70   S    
C24   C88   S    
C126  C134  A    
C97   O35   A    
C147  C155  S    
C8    O11   A    
C73   C81   A    
C7    O23   A    
C8    O24   A    
C130  C136  A    
C50   C58   A    
C105  C112  A    
C63   C71   A    
C120  C148  A    
Cu4   O12   S    
Cu7   O31   S    
Cu10  O47   S    
C144  C152  S    
C99   O33   A    
C142  C150  S    
C122  C142  A    
Cu12  O35   S    
C123  C143  A    
C4    C71   S    
C93   C132  S    
Cu9   O40   S    
C26   H22   S    
C98   O42   A    
C32   C40   A    
C19   C27   A    
C47   C87   A    
Cu12  O43   S    
C47   C55   A    
C12   C113  A    
C136  H4    S    
C61   C69   A    
C35   H20   S    
C48   C56   A    
C22   C33   A    
C73   H45   S    
C54   C104  S    
C92   O28   A    
C94   O1    A    
C9    C141  A    
C22   C30   A    
C57   H37   S    
C93   O2    A    
C5    O21   A    
C119  C138  A    
C141  C149  S    
C117  C137  A    
C91   O27   A    
Cu12  O34   S    
C39   H16   S    
C44   C84   A    
C133  H1    S    
C44   C52   A    
C12   H8    S    
C40   H15   S    
C114  C116  A    
C152  N4    T    
C62   C70   A    
C104  O48   A    
Cu1   O17   S    
C68   C76   A    
C41   C49   A    
C54   C62   A    
C55   C101  S    
C125  C133  A    
C94   C131  S    
Cu2   O18   S    
C41   H29   S    
C16   C148  A    
C60   C68   A    
C17   C25   A    
C103  O47   A    
C105  C137  A    
C9    H5    S    
C58   H38   S    
C28   H24   S    
C121  C129  A    
C122  C140  A    
C100  O44   A    
C72   C80   A    
C93   O29   A    
C128  C133  A    
C44   H32   S    
C15   C147  A    
C7    O12   A    
C43   C51   A    
C56   C64   A    
C50   C100  S    
C113  C115  A    
C105  C109  A    
Cu3   O27   S    
Cu8   O24   S    
C132  C135  A    
C57   C65   A    
C6    O22   A    
C52   C98   S    
C18   C82   S    
C29   H25   S    
Cu11  O33   S    
C3    C72   S    
C97   O41   A    
C17   C81   S    
C17   C38   A    
C64   C72   A    
C64   H44   S    
C27   H23   S    
Cu11  O36   S    
C25   H21   S    
C19   C40   A    
C60   H40   S    
C77   C85   A    
C121  C139  A    
C1    O17   A    
C30   H26   S    
C51   C59   A    
C28   C36   A    
C8    C67   S    
C80   C88   A    
C23   C36   A    
C33   H18   S    
Cu5   O13   S    
C25   C33   A    
C9    C116  A    
C31   C39   A    
Cu11  O41   S    
C14   C146  A    
C124  C144  A    
C12   C144  A    
Cu3   O3    S    
C120  C137  A    
C118  C126  A    
C30   C38   A    
C31   H27   S    
C118  C138  A    
C117  C125  A    
C119  C147  A    
C3    O16   A    
C122  C130  A    
C107  C139  A    
C62   H42   S    
C10   C115  A    
C76   H48   S    
C2    O13   A    
C95   O31   A    
C96   C129  S    
Cu4   O20   S    
C89   C128  S    
C119  C127  A    
