data_mof_unit_62735.cif
_audit_creation_date              2013-03-05T16:08:03-0500
_audit_creation_method            fapswitch 2.2
_symmetry_space_group_name_H-M    P1
_symmetry_Int_Tables_number       1
_space_group_crystal_system       triclinic
_cell_length_a                    15.99933
_cell_length_b                    14.43223
_cell_length_c                    13.146528
_cell_angle_alpha                 90.00027
_cell_angle_beta                  89.993263
_cell_angle_gamma                 89.99906
_cell_volume                      3035.61230974

loop_
_atom_site_label
_atom_site_type_symbol
_atom_site_description
_atom_site_fract_x
_atom_site_fract_y
_atom_site_fract_z
_atom_type_partial_charge
O1    O     O_R   0.499990 0.376050 0.578280 -0.555090
O2    O     O_R   0.500010 0.623950 0.421720 -0.555090
O3    O     O_R   0.500010 0.376050 0.421720 -0.555543
O4    O     O_R   0.499990 0.623950 0.578280 -0.555543
C1    C     C_1   0.499999 0.227125 0.500000 -0.164984
C2    C     C_1   0.500001 0.772875 0.500000 -0.164984
C3    C     C_R   0.499999 0.328706 0.500000 0.850874
C4    C     C_R   0.500001 0.671294 0.500000 0.850875
O5    O     O_R   0.379070 0.500000 0.578250 -0.572189
O6    O     O_R   0.620930 0.500000 0.421750 -0.572189
O7    O     O_R   0.379080 0.500000 0.421720 -0.555246
O8    O     O_R   0.620920 0.500000 0.578280 -0.555246
C5    C     C_R   0.337874 0.500003 0.499991 0.857204
C6    C     C_R   0.662126 0.499997 0.500009 0.857204
Cu1   Cu    Cu3+1 0.499990 0.500000 0.592680 1.021707
Cu2   Cu    Cu3+1 0.500010 0.500000 0.407320 1.021707
C7    C     C_1   0.499999 0.142311 0.500000 0.040667
C8    C     C_1   0.500001 0.857689 0.500000 0.040667
N1    N     N_1   0.500020 0.500000 0.268070 -0.121647
N2    N     N_1   0.499980 0.500000 0.731930 -0.121647
C9    C     C_1   0.500014 0.500000 0.173630 0.185597
C10   C     C_1   0.499986 0.500000 0.826370 0.185597
C11   C     C_1   0.500000 0.042406 0.500000 0.052455
C12   C     C_1   0.500000 0.957594 0.500000 0.052455
C13   C     C_3   0.972726 0.427465 0.551620 0.279553
C14   C     C_3   0.027274 0.572535 0.448380 0.279553
C15   C     C_3   0.027276 0.423336 0.456156 0.279431
C16   C     C_3   0.972724 0.576664 0.543844 0.279431
C17   C     C_1   0.500004 0.500000 0.050680 -0.027500
C18   C     C_1   0.499996 0.500000 0.949319 -0.027500
H1    H     H_    0.948465 0.492326 0.322563 0.216982
H2    H     H_    0.051535 0.507674 0.677437 0.216982
C19   C     C_1   0.249104 0.500003 0.500015 -0.113705
C20   C     C_1   0.750896 0.499997 0.499985 -0.113705
C21   C     C_3   0.028932 0.504225 0.597696 -0.353084
C22   C     C_3   0.971067 0.495775 0.402304 -0.353084
C23   C     C_3   0.083517 0.499997 0.499924 -0.107373
C24   C     C_3   0.916483 0.500003 0.500076 -0.107373
C25   C     C_1   0.174296 0.500000 0.499987 0.167833
C26   C     C_1   0.825704 0.500000 0.500013 0.167833
N3    N     N_R   0.054940 0.337250 0.409035 0.174127
O9    O     O_R   0.999992 0.278303 0.375545 -0.268940
O10   O     O_R   0.134138 0.318897 0.399788 -0.317639
N4    N     N_R   0.945060 0.662750 0.590965 0.174127
O11   O     O_R   0.000008 0.721697 0.624455 -0.268940
O12   O     O_R   0.865862 0.681103 0.600212 -0.317639
N5    N     N_R   0.945062 0.345834 0.607483 0.173898
O13   O     O_R   0.000011 0.290040 0.646949 -0.269921
O14   O     O_R   0.865864 0.328366 0.618603 -0.317470
N6    N     N_R   0.054938 0.654166 0.392517 0.173898
O15   O     O_R   0.999989 0.709960 0.353051 -0.269921
O16   O     O_R   0.134135 0.671634 0.381396 -0.317470

loop_
_geom_bond_atom_site_label_1
_geom_bond_atom_site_label_2
_geom_bond_distance
_ccdc_geom_bond_type
C6    C20   1.420253 S    
N6    O16   1.300177 A    
C11   C12   1.224022 T    
N3    O9    1.300217 A    
C14   C23   1.537859 S    
C5    C19   1.420253 S    
C17   C18   1.332544 T    
O1    Cu1   1.798863 S    
C13   C24   1.537859 S    
C13   C15   1.529731 S    
N3    O10   1.300178 A    
O7    Cu2   1.944018 S    
C13   N5    1.457110 S    
C14   C16   1.529731 S    
N5    O13   1.300216 A    
O8    Cu1   1.944016 S    
C16   C24   1.537861 S    
O4    C4    1.235290 A    
O4    Cu1   1.798865 S    
C22   C24   1.555091 S    
N6    O15   1.300216 A    
O5    Cu1   1.943938 S    
C1    C3    1.466040 S    
N5    O14   1.300177 A    
O6    Cu2   1.943938 S    
C24   C26   1.452400 S    
O7    C5    1.222006 A    
C7    C11   1.441858 S    
C15   C23   1.537861 S    
Cu2   N1    1.830654 S    
C8    C12   1.441858 S    
C14   C22   1.550175 S    
N1    C9    1.241555 T    
N4    O12   1.300178 A    
O3    C3    1.235291 A    
C14   N6    1.457110 S    
Cu1   N2    1.830654 S    
C15   C22   1.550173 S    
C2    C8    1.224051 T    
C20   C26   1.196883 T    
C1    C7    1.224051 T    
Cu1   Cu2   2.436842 S    
H2    C21   1.110089 S    
O8    C6    1.222007 A    
O2    Cu2   1.798863 S    
N4    O11   1.300217 A    
C16   N4    1.457113 S    
C23   C25   1.452400 S    
O6    C6    1.221919 A    
C13   C21   1.550175 S    
O5    C5    1.221920 A    
H1    C22   1.110089 S    
C2    C4    1.466040 S    
C10   C18   1.616362 S    
C21   C23   1.555091 S    
O1    C3    1.235289 A    
C9    C17   1.616362 S    
C19   C25   1.196883 T    
O2    C4    1.235288 A    
O3    Cu2   1.798865 S    
C16   C21   1.550173 S    
N2    C10   1.241555 T    
C15   N3    1.457113 S    
