data_mof_unit_31959.cif
_audit_creation_date              2012-10-26T19:07:12-0400
_audit_creation_method            fapswitch 2.2
_symmetry_space_group_name_H-M    P1
_symmetry_Int_Tables_number       1
_space_group_crystal_system       triclinic
_cell_length_a                    15.053967
_cell_length_b                    13.70913
_cell_length_c                    10.618866
_cell_angle_alpha                 88.7635
_cell_angle_beta                  89.565121
_cell_angle_gamma                 89.584069
_cell_volume                      2190.85888218

loop_
_atom_site_label
_atom_site_type_symbol
_atom_type_description
_atom_site_fract_x
_atom_site_fract_y
_atom_site_fract_z
_atom_type_partial_charge
C1    C     C_R   0.328763 0.500357 0.498224 0.578314
C2    C     C_R   0.950470 0.644307 0.364593 -0.135118
C3    C     C_R   0.448037 0.792393 0.584737 0.047600
C4    C     C_R   0.551963 0.207607 0.415262 0.047599
C5    C     C_R   0.552226 0.794361 0.415635 0.034271
C6    C     C_R   0.447778 0.205639 0.584370 0.034262
C7    C     C_R   0.553253 0.897427 0.413341 -0.014546
C8    C     C_R   0.446751 0.102573 0.586665 -0.014553
C9    C     C_R   0.446984 0.895395 0.586991 -0.014753
C10   C     C_R   0.553017 0.104604 0.413011 -0.014750
C11   C     C_R   0.500035 0.948193 0.500053 0.053641
C12   C     C_R   0.671237 0.499643 0.501776 0.578315
C13   C     C_R   0.499968 0.051807 0.499951 0.053641
C14   C     C_R   0.606107 0.950729 0.326935 -0.149618
C15   C     C_R   0.393900 0.049271 0.673075 -0.149618
C16   C     C_R   0.394199 0.946671 0.673494 -0.148037
C17   C     C_R   0.605805 0.053329 0.326512 -0.148031
C18   C     C_R   0.500930 0.501246 0.259353 0.540799
C19   C     C_R   0.499070 0.498753 0.740647 0.540801
C20   C     C_3   0.510996 0.592994 0.033276 0.011266
C21   C     C_3   0.489004 0.407004 0.966723 0.011267
C22   C     C_3   0.577406 0.533422 0.954371 -0.000928
C23   C     C_R   0.953257 0.499892 0.502250 0.029344
C24   C     C_3   0.422593 0.466576 0.045628 -0.000941
C25   C     C_3   0.432557 0.555706 0.955026 -0.127142
C26   C     C_3   0.567443 0.444292 0.044973 -0.127127
C27   C     C_3   0.499554 0.495949 0.877133 0.023424
C28   C     C_3   0.500446 0.504049 0.122867 0.023422
C29   C     C_R   0.813246 0.570595 0.434886 -0.190504
C30   C     C_R   0.186754 0.429405 0.565115 -0.190503
C31   C     C_R   0.767792 0.498935 0.504357 0.024426
C32   C     C_R   0.232208 0.501065 0.495643 0.024427
C33   C     C_R   0.813826 0.429104 0.578186 0.214629
C34   C     C_R   0.046743 0.500108 0.497750 0.029345
C35   C     C_R   0.186174 0.570894 0.421812 0.214628
C36   C     C_R   0.907719 0.427586 0.574703 0.012165
C37   C     C_R   0.092281 0.572413 0.425296 0.012165
C38   C     C_3   0.518174 0.699403 0.072460 -0.236835
C39   C     C_3   0.516972 0.769278 0.957724 -0.298235
C40   C     C_3   0.521157 0.875204 0.997345 -0.464423
C41   C     C_3   0.481813 0.300598 0.927534 -0.236842
C42   C     C_3   0.483083 0.230714 0.042259 -0.298229
C43   C     C_3   0.478728 0.124798 0.002638 -0.464413
C44   C     C_3   0.666445 0.562523 0.894120 -0.245766
C45   C     C_R   0.905485 0.571951 0.433813 0.001146
C46   C     C_3   0.735256 0.589830 0.992625 -0.309473
C47   C     C_3   0.825645 0.608703 0.931161 -0.449330
C48   C     C_3   0.333553 0.437478 0.105882 -0.245759
C49   C     C_3   0.264732 0.410194 0.007382 -0.309461
C50   C     C_3   0.174337 0.391364 0.068850 -0.449323
C51   C     C_R   0.094515 0.428050 0.566187 0.001146
C52   C     C_R   0.957185 0.354693 0.638683 -0.135777
C53   C     C_R   0.042815 0.645306 0.361315 -0.135778
C54   C     C_R   0.049530 0.355693 0.635406 -0.135119
Cu1   Cu    Cu3+1 0.500000 0.597420 0.500000 0.942701
Cu2   Cu    Cu3+1 0.500000 0.402580 0.500000 0.942697
H1    H     H_    0.377289 0.600262 0.914982 0.096517
H2    H     H_    0.592701 0.249161 0.349338 0.118351
H3    H     H_    0.593285 0.754293 0.350262 0.107207
H4    H     H_    0.406722 0.245707 0.649747 0.107213
H5    H     H_    0.647834 0.913064 0.259864 0.095753
H6    H     H_    0.352178 0.086936 0.740151 0.095767
H7    H     H_    0.353038 0.907451 0.741356 0.103633
H8    H     H_    0.646968 0.092549 0.258651 0.103622
H9    H     H_    0.464219 0.892760 0.060234 0.157984
H10   H     H_    0.584343 0.888919 0.046934 0.148081
H11   H     H_    0.518057 0.923573 0.912265 0.153356
H12   H     H_    0.622711 0.399738 0.085018 0.096518
H13   H     H_    0.574537 0.754343 0.895201 0.170398
H14   H     H_    0.455136 0.759120 0.903195 0.157154
H15   H     H_    0.460807 0.716499 0.134876 0.171468
H16   H     H_    0.580043 0.708915 0.126690 0.128680
H17   H     H_    0.415445 0.111161 0.953255 0.148045
H18   H     H_    0.535546 0.107185 0.939560 0.158000
H19   H     H_    0.481919 0.076416 0.087699 0.153369
H20   H     H_    0.545003 0.240792 0.096627 0.157091
H21   H     H_    0.425617 0.245720 0.104936 0.170448
H22   H     H_    0.419916 0.291087 0.873367 0.128686
H23   H     H_    0.776416 0.624855 0.380196 0.113394
H24   H     H_    0.539148 0.283506 0.865058 0.171468
H25   H     H_    0.850189 0.542157 0.883684 0.155863
H26   H     H_    0.820744 0.669643 0.860828 0.157696
H27   H     H_    0.874187 0.628688 0.004322 0.142034
H28   H     H_    0.713528 0.656727 0.041400 0.156176
H29   H     H_    0.742445 0.529776 0.063889 0.160134
H30   H     H_    0.691695 0.499403 0.840111 0.165328
H31   H     H_    0.656195 0.624205 0.826346 0.153696
H32   H     H_    0.179215 0.330427 0.139191 0.157703
H33   H     H_    0.149818 0.457924 0.116319 0.155854
H34   H     H_    0.223585 0.375146 0.619806 0.113393
H35   H     H_    0.125786 0.371395 0.995693 0.142035
H36   H     H_    0.257563 0.470243 0.936109 0.160132
H37   H     H_    0.286436 0.343283 0.958616 0.156172
H38   H     H_    0.343800 0.375786 0.173643 0.153682
H39   H     H_    0.308315 0.500595 0.159908 0.165339
H40   H     H_    0.796798 0.355247 0.734053 0.303672
H41   H     H_    0.203202 0.644748 0.265943 0.303670
H42   H     H_    0.925663 0.295448 0.690381 0.121148
H43   H     H_    0.074338 0.704550 0.309615 0.121148
H44   H     H_    0.085914 0.299300 0.686760 0.106318
H45   H     H_    0.914086 0.700700 0.313239 0.106317
H46   H     H_    0.407296 0.750839 0.650658 0.118342
N1    N     N_R   0.500000 0.743810 0.500000 -0.234686
N2    N     N_R   0.500000 0.256190 0.500000 -0.234689
O1    O     O_R   0.370260 0.582280 0.500030 -0.445843
O2    O     O_3   0.234784 0.634753 0.346645 -0.699430
O3    O     O_R   0.629740 0.417720 0.499970 -0.445840
O4    O     O_R   0.629740 0.582280 0.499970 -0.526979
O5    O     O_R   0.370260 0.417720 0.500030 -0.526977
O6    O     O_R   0.499980 0.582260 0.316850 -0.508339
O7    O     O_R   0.500020 0.417740 0.683150 -0.508347
O8    O     O_R   0.500020 0.582260 0.683150 -0.522001
O9    O     O_R   0.499980 0.417740 0.316850 -0.522002
O10   O     O_3   0.765216 0.365243 0.653350 -0.699427

loop_
_geom_bond_atom_site_label_1
_geom_bond_atom_site_label_2
_ccdc_geom_bond_type
C43   H17   S    
C30   C51   A    
C5    N1    A    
C8    C13   A    
C23   C45   A    
C48   H39   S    
Cu1   O8    S    
C34   C37   A    
C41   C42   S    
C30   H34   S    
C54   H44   S    
C41   H24   S    
C19   O8    A    
C53   H43   S    
C7    C11   A    
C34   C51   A    
C48   H38   S    
Cu1   O1    S    
C35   C37   A    
C9    C16   A    
C17   H8    S    
C38   C39   S    
C20   C25   S    
C10   C17   A    
C15   C16   A    
Cu1   N1    S    
C33   C36   A    
C47   H26   S    
C1    O5    A    
C46   C47   S    
C39   H14   S    
C7    C14   A    
C22   C44   S    
C44   C46   S    
C40   H11   S    
Cu2   O9    S    
C31   C33   A    
C16   H7    S    
C47   H27   S    
C44   H31   S    
C19   C27   S    
Cu2   O7    S    
C36   C52   A    
C50   H32   S    
C46   H29   S    
C37   C53   A    
C43   H18   S    
C21   C27   S    
C40   H10   S    
C14   C17   A    
H40   O10   S    
C25   H1    S    
C44   H30   S    
C18   O9    A    
C21   C26   S    
C52   C54   A    
C2    C45   A    
C43   H19   S    
C38   H16   S    
C5    H3    S    
C24   C48   S    
C32   C35   A    
C6    H4    S    
C18   C28   S    
C24   C25   S    
Cu2   N2    S    
C41   H22   S    
C5    C7    A    
C6    C8    A    
C20   C28   S    
C2    H45   S    
C14   H5    S    
C2    C53   A    
C1    C32   S    
C29   C45   A    
Cu2   O3    S    
C3    C9    A    
C20   C38   S    
C50   H33   S    
C29   H23   S    
C29   C31   A    
C23   C34   A    
Cu1   Cu2   S    
C39   H13   S    
C33   O10   S    
C9    C11   A    
C46   H28   S    
H41   O2    S    
C3    H46   S    
C48   C49   S    
C20   C22   S    
C23   C36   A    
C8    C15   A    
C6    N2    A    
C22   C27   S    
Cu1   O6    S    
C21   C41   S    
C42   C43   S    
C49   H36   S    
C4    C10   A    
Cu2   O5    S    
C39   C40   S    
C12   O4    A    
C3    N1    A    
C38   H15   S    
C26   C28   S    
C24   C28   S    
C10   C13   A    
C12   O3    A    
C19   O7    A    
C25   C27   S    
C42   H20   S    
Cu1   O4    S    
C40   H9    S    
C51   C54   A    
C26   H12   S    
C12   C31   S    
C35   O2    S    
C30   C32   A    
C11   C13   A    
C4    N2    A    
C52   H42   S    
C15   H6    S    
C47   H25   S    
C50   H35   S    
C42   H21   S    
C18   O6    A    
C49   C50   S    
C22   C26   S    
C21   C24   S    
C4    H2    S    
C49   H37   S    
C1    O1    A    
