data_mof_unit_25015.cif
_audit_creation_date              2012-12-10T21:34:11-0500
_audit_creation_method            fapswitch 2.2
_symmetry_space_group_name_H-M    P1
_symmetry_Int_Tables_number       1
_space_group_crystal_system       triclinic
_cell_length_a                    13.660832
_cell_length_b                    16.285478
_cell_length_c                    16.582515
_cell_angle_alpha                 89.118056
_cell_angle_beta                  88.288182
_cell_angle_gamma                 94.298341
_cell_volume                      3676.57123733

loop_
_atom_site_label
_atom_site_type_symbol
_atom_type_description
_atom_site_fract_x
_atom_site_fract_y
_atom_site_fract_z
_atom_type_partial_charge
C1    C     C_R   0.498759 0.510430 0.346662 0.999430
C2    C     C_R   0.526790 0.849463 0.442709 0.235984
C3    C     C_R   0.511002 0.109354 0.473822 0.050263
C4    C     C_R   0.460475 0.887444 0.495360 0.065243
C5    C     C_R   0.598114 0.161212 0.463340 0.310533
C6    C     C_R   0.401144 0.836046 0.549441 0.260084
C7    C     C_R   0.593032 0.248181 0.459868 0.097129
C8    C     C_R   0.414412 0.749903 0.554184 0.057541
C9    C     C_R   0.684622 0.514597 0.500834 0.878019
C10   C     C_R   0.315488 0.485329 0.501408 0.934278
C11   C     C_1   0.212913 0.474641 0.502317 -0.057257
C12   C     C_R   0.505986 0.490600 0.653952 0.943108
C13   C     C_1   0.787043 0.525277 0.505678 -0.090002
C14   C     C_2   0.022512 0.465250 0.501330 0.279386
C15   C     C_2   0.977127 0.534348 0.515632 0.296491
C16   C     C_1   0.873777 0.532079 0.510592 0.097175
C17   C     C_1   0.125949 0.468036 0.502274 0.110591
C18   C     C_R   0.498934 0.519723 0.258830 -0.281540
C19   C     C_R   0.504263 0.487738 0.743443 -0.278814
C20   C     C_R   0.577630 0.493424 0.210398 -0.051285
C21   C     C_R   0.483318 0.560517 0.783301 -0.016392
C22   C     C_R   0.575536 0.504401 0.125713 0.416755
C23   C     C_R   0.441571 0.594209 0.144233 0.270170
C24   C     C_R   0.430701 0.554242 0.855909 0.296147
C25   C     C_R   0.503168 0.551863 0.093394 0.005480
C26   C     C_R   0.434968 0.483522 0.904012 0.032492
C27   C     C_3   0.532481 0.643836 0.758650 -0.594245
C28   C     C_3   0.664186 0.456458 0.248441 -0.635776
C29   C     C_3   0.642029 0.735926 0.424461 -0.589732
C30   C     C_3   0.347419 0.263618 0.562519 -0.562547
C31   C     C_3   0.674260 0.299719 0.416725 -0.548857
C32   C     C_3   0.345637 0.697260 0.609118 -0.589592
C33   C     C_R   0.464483 0.410465 0.869359 0.233089
C34   C     C_R   0.428383 0.568117 0.224659 0.296304
C35   C     C_R   0.503752 0.412767 0.788805 0.265584
C36   C     C_R   0.429628 0.232808 0.511647 0.145110
C37   C     C_R   0.548392 0.766617 0.458839 0.145034
C38   C     C_R   0.422669 0.148452 0.489341 0.223978
H1    H     H_    0.000219 0.751794 0.568161 0.403177
H2    H     H_    0.746062 0.356305 0.054924 0.412992
H3    H     H_    0.380813 0.807070 0.170598 0.399601
H4    H     H_    0.357376 0.248497 0.841987 0.360886
H5    H     H_    0.282625 0.668634 0.377344 0.402776
H6    H     H_    0.652811 0.233964 0.799950 0.406025
H7    H     H_    0.627058 0.684102 0.383331 0.248385
H8    H     H_    0.688807 0.784012 0.390784 0.256663
H9    H     H_    0.687966 0.718313 0.474861 0.228376
H10   H     H_    0.373731 0.315730 0.599787 0.240232
H11   H     H_    0.286642 0.281183 0.524586 0.260647
H12   H     H_    0.005110 0.252407 0.437652 0.408750
H13   H     H_    0.318181 0.215015 0.606353 0.241111
H14   H     H_    0.424017 0.926124 0.303802 0.378585
H15   H     H_    0.324448 0.049144 0.350871 0.382273
H16   H     H_    0.862955 0.152130 0.486422 0.404238
H17   H     H_    0.176422 0.806777 0.651784 0.392458
H18   H     H_    0.710483 0.264984 0.368790 0.246853
H19   H     H_    0.643892 0.351142 0.384712 0.212691
H20   H     H_    0.729857 0.321800 0.460060 0.308195
H21   H     H_    0.349058 0.721480 0.670733 0.267174
H22   H     H_    0.269954 0.696681 0.586699 0.272576
H23   H     H_    0.594783 0.638606 0.714975 0.233541
H24   H     H_    0.363362 0.633930 0.616742 0.254332
H25   H     H_    0.479285 0.683945 0.733253 0.241885
H26   H     H_    0.564506 0.674373 0.812296 0.255822
H27   H     H_    0.656466 0.388449 0.243491 0.268588
H28   H     H_    0.734453 0.480801 0.219047 0.282613
H29   H     H_    0.671989 0.473318 0.312467 0.175097
H30   H     H_    0.228682 0.540727 0.925566 0.366163
N1    N     N_2   0.488509 0.553017 0.009871 -0.031539
N2    N     N_2   0.437075 0.490592 0.989068 -0.038311
N3    N     N_R   0.511670 0.283920 0.490320 -0.110924
N4    N     N_R   0.488330 0.716080 0.509680 -0.111534
N5    N     N_2   0.518473 0.021463 0.467386 0.000234
N6    N     N_2   0.449068 0.975238 0.497139 0.006156
O1    O     O_R   0.495820 0.577170 0.387320 -0.572231
O2    O     O_2   0.113793 0.655926 0.475471 -0.301102
O3    O     O_3   0.959669 0.701472 0.553754 -0.506154
O4    O     O_2   0.888651 0.343834 0.545964 -0.246180
O5    O     O_2   0.905444 0.379770 0.401524 -0.313348
O6    O     O_3   0.041263 0.298064 0.465579 -0.488495
O7    O     O_2   0.397878 0.705219 0.907403 -0.153324
O8    O     O_2   0.290515 0.646490 0.804984 -0.273999
O9    O     O_3   0.264304 0.588446 0.950798 -0.433372
O10   O     O_2   0.646238 0.470884 0.973964 -0.242902
O11   O     O_2   0.763350 0.520853 0.073193 -0.249817
O12   O     O_R   0.504180 0.422830 0.612680 -0.559122
O13   O     O_3   0.688175 0.370107 0.087989 -0.494111
O14   O     O_2   0.478743 0.730272 0.052430 -0.210826
O15   O     O_2   0.305390 0.682629 0.076839 -0.129434
O16   O     O_3   0.399768 0.753972 0.192903 -0.456815
O17   O     O_2   0.535238 0.303704 0.973772 -0.115550
O18   O     O_2   0.360538 0.323975 0.987089 -0.253348
O19   O     O_3   0.418654 0.236323 0.868747 -0.423560
O20   O     O_2   0.239885 0.610425 0.223764 -0.170797
O21   O     O_2   0.282478 0.512927 0.327371 -0.326032
O22   O     O_3   0.342712 0.667217 0.342660 -0.479470
O23   O     O_R   0.503320 0.438390 0.381110 -0.609115
O24   O     O_2   0.501810 0.269993 0.709250 -0.294888
O25   O     O_2   0.650386 0.363479 0.692225 -0.247223
O26   O     O_3   0.624428 0.281567 0.825849 -0.415794
O27   O     O_2   0.663515 0.940447 0.353758 -0.156183
O28   O     O_2   0.571403 0.829877 0.284806 -0.235104
O29   O     O_3   0.483936 0.961337 0.315798 -0.489920
O30   O     O_2   0.252149 0.073599 0.545604 -0.153219
O31   O     O_2   0.244589 0.165676 0.429567 -0.264501
O32   O     O_3   0.308107 0.023214 0.404481 -0.466599
O33   O     O_2   0.711864 0.036132 0.497082 -0.230684
O34   O     O_R   0.496680 0.561610 0.618890 -0.641338
O35   O     O_2   0.737819 0.106508 0.365410 -0.207656
O36   O     O_3   0.802180 0.181296 0.492532 -0.493264
O37   O     O_2   0.344312 0.958929 0.642331 -0.179550
O38   O     O_2   0.231411 0.905411 0.540936 -0.193662
O39   O     O_3   0.240793 0.823738 0.674765 -0.485774
O40   O     O_R   0.636060 0.579370 0.503570 -0.634560
O41   O     O_R   0.363940 0.420630 0.496430 -0.627311
O42   O     O_R   0.643560 0.440600 0.497360 -0.598837
O43   O     O_R   0.356440 0.559400 0.502640 -0.593942
O44   O     O_2   0.092311 0.617306 0.618811 -0.300452
S1    S     S_3+6 0.040021 0.628972 0.541461 0.030906
S2    S     S_3+6 0.303878 0.102385 0.468032 0.115378
S3    S     S_3+6 0.713889 0.117852 0.453381 0.107619
S4    S     S_3+6 0.303138 0.882000 0.602728 0.121511
S5    S     S_3+6 0.960046 0.369921 0.478034 0.048867
S6    S     S_3+6 0.345378 0.627154 0.879273 0.115639
S7    S     S_3+6 0.670076 0.467843 0.061738 0.102328
S8    S     S_3+6 0.404765 0.691642 0.113215 0.179757
S9    S     S_3+6 0.444833 0.317655 0.927655 0.160473
S10   S     S_3+6 0.318950 0.588739 0.279633 0.126546
S11   S     S_3+6 0.570604 0.330506 0.751098 0.119451
S12   S     S_3+6 0.564271 0.895348 0.347242 0.115194
Zn1   Zn    Zn3+2 0.495000 0.592660 0.504150 0.982705
Zn2   Zn    Zn3+2 0.505000 0.407340 0.495850 1.017046

loop_
_geom_bond_atom_site_label_1
_geom_bond_atom_site_label_2
_ccdc_geom_bond_type
C30   H13   S    
H14   O29   S    
H4    O19   S    
N5    N6    D    
O11   S7    D    
C33   S9    S    
O35   S3    D    
O22   S10   S    
C1    C18   S    
O17   S9    D    
C29   H9    S    
C9    O40   A    
H1    O3    S    
C31   H20   S    
C30   H10   S    
C19   C21   A    
C24   C26   A    
O36   S3    S    
C7    N3    A    
C15   C16   S    
C5    S3    S    
C24   S6    S    
H16   O36   S    
O40   Zn1   S    
C9    C13   S    
O44   S1    D    
O34   Zn1   S    
O14   S8    D    
C27   H23   S    
C33   C35   A    
N3    Zn2   S    
O21   S10   D    
O39   S4    S    
C28   H28   S    
C3    C38   A    
C22   C25   A    
O31   S2    D    
O9    S6    S    
C35   S11   S    
C4    N6    S    
C36   N3    A    
O15   S8    D    
C38   S2    S    
O27   S12   D    
H3    O16   S    
C21   C27   S    
C12   O12   A    
O37   S4    D    
C9    O42   A    
C14   C17   S    
C37   N4    A    
C3    N5    S    
H15   O32   S    
O8    S6    D    
O1    Zn1   S    
O41   Zn2   S    
C8    N4    A    
O2    S1    D    
C7    C31   S    
O25   S11   D    
O7    S6    D    
C1    O1    A    
C28   H29   S    
C4    C6    A    
C27   H26   S    
C1    O23   A    
C5    C7    A    
O26   S11   S    
C22   S7    S    
C6    C8    A    
H17   O39   S    
C3    C5    A    
O5    S5    D    
C29   H7    S    
C8    C32   S    
C2    C4    A    
O19   S9    S    
O38   S4    D    
C26   C33   A    
O42   Zn2   S    
C23   C34   A    
H5    O22   S    
O16   S8    S    
O4    S5    D    
C18   C34   A    
O33   S3    D    
C27   H25   S    
C23   S8    S    
C34   S10   S    
C30   H11   S    
C20   C22   A    
C26   N2    S    
C13   C16   T    
C25   N1    S    
C6    S4    S    
O18   S9    D    
O13   S7    S    
H2    O13   S    
N4    Zn1   S    
C12   O34   A    
O10   S7    D    
C11   C17   T    
C14   S5    S    
O32   S2    S    
H30   O9    S    
O28   S12   D    
O23   Zn2   S    
O3    S1    S    
H12   O6    S    
O20   S10   D    
C20   C28   S    
C30   C36   S    
C29   H8    S    
C31   H19   S    
C36   C38   A    
C28   H27   S    
C32   H24   S    
C10   O43   A    
C19   C35   A    
H6    O26   S    
C2    C37   A    
O12   Zn2   S    
C12   C19   S    
C2    S12   S    
C15   S1    S    
C31   H18   S    
C18   C20   A    
C23   C25   A    
N1    N2    D    
O43   Zn1   S    
O29   S12   S    
C10   C11   S    
O24   S11   D    
C21   C24   A    
C29   C37   S    
C32   H22   S    
C14   C15   D    
C32   H21   S    
C10   O41   A    
O30   S2    D    
O6    S5    S    
