data_mof_unit_24095.cif
_audit_creation_date              2012-12-11T15:32:02-0500
_audit_creation_method            fapswitch 2.2
_symmetry_space_group_name_H-M    P1
_symmetry_Int_Tables_number       1
_space_group_crystal_system       triclinic
_cell_length_a                    13.573604
_cell_length_b                    13.595309
_cell_length_c                    27.690484
_cell_angle_alpha                 90.450287
_cell_angle_beta                  90.182735
_cell_angle_gamma                 120.012567
_cell_volume                      4424.48095802

loop_
_atom_site_label
_atom_site_type_symbol
_atom_type_description
_atom_site_fract_x
_atom_site_fract_y
_atom_site_fract_z
_atom_type_partial_charge
C1    C     C_R   0.619522 0.898293 0.431309 0.552416
C2    C     C_R   0.574491 0.276015 0.210788 -0.092029
C3    C     C_R   0.564018 0.262029 0.260815 -0.071714
C4    C     C_R   0.661050 0.311635 0.290597 0.056680
C5    C     C_R   0.682201 0.339673 0.190149 0.039386
C6    C     C_1   0.692085 0.362777 0.139166 -0.058287
C7    C     C_1   0.648458 0.291143 0.341786 -0.032306
C8    C     C_1   0.701042 0.390007 0.097349 -0.012698
C9    C     C_1   0.231031 0.862082 0.382956 0.002147
C10   C     C_R   0.254953 0.930640 0.259400 -0.077184
C11   C     C_R   0.237157 0.920327 0.209351 -0.094815
C12   C     C_R   0.599644 0.218386 0.431252 0.550507
C13   C     C_R   0.064260 0.739824 0.220531 -0.104681
C14   C     C_R   0.082279 0.749991 0.270533 -0.108348
C15   C     C_R   0.177927 0.845298 0.290102 0.042877
C16   C     C_R   0.142052 0.824452 0.189774 0.038192
C17   C     C_1   0.121877 0.811727 0.138373 -0.055092
C18   C     C_1   0.202181 0.852841 0.341136 -0.039659
C19   C     C_1   0.095715 0.793723 0.096199 -0.011131
C20   C     C_1   0.634389 0.866134 0.383610 0.019432
C21   C     C_R   0.687395 0.762207 0.272462 -0.140592
C22   C     C_R   0.694754 0.749560 0.222658 -0.113103
C23   C     C_R   0.279512 0.878800 0.430536 0.552151
C24   C     C_R   0.619768 0.875248 0.207764 -0.071195
C25   C     C_R   0.612198 0.888241 0.257602 0.185490
C26   C     C_R   0.646710 0.831870 0.290193 0.051272
C27   C     C_R   0.661371 0.806339 0.190211 0.006042
C28   C     C_1   0.675166 0.797088 0.139119 -0.051344
C29   C     C_1   0.641763 0.847099 0.341559 -0.003789
C30   C     C_1   0.692883 0.787167 0.097209 -0.007624
C31   C     C_R   0.637326 0.272508 0.615850 0.031028
C32   C     C_R   0.676036 0.219235 0.647654 -0.126037
C33   C     C_R   0.688533 0.246934 0.696062 -0.132528
C34   C     C_R   0.621108 0.900598 0.568625 0.536460
C35   C     C_R   0.665445 0.330221 0.712944 0.023879
C36   C     C_R   0.636636 0.391102 0.680695 -0.125476
C37   C     C_R   0.619315 0.359888 0.632080 -0.135485
C38   C     C_R   0.571784 0.326195 0.791412 0.011847
C39   C     C_R   0.582902 0.338492 0.841739 -0.102820
C40   C     C_R   0.782554 0.393439 0.837623 -0.134936
C41   C     C_R   0.773034 0.379478 0.788147 -0.136547
C42   C     C_R   0.670003 0.349394 0.764769 0.032368
C43   C     C_R   0.688878 0.377796 0.864409 0.008835
C44   C     C_R   0.228815 0.866660 0.615907 0.025581
C45   C     C_R   0.601817 0.222942 0.568245 0.534634
C46   C     C_R   0.260427 0.963021 0.645081 -0.127637
C47   C     C_R   0.236152 0.951215 0.693970 -0.126749
C48   C     C_R   0.177173 0.842992 0.714258 0.034404
C49   C     C_R   0.138470 0.746269 0.684421 -0.119241
C50   C     C_R   0.165302 0.758068 0.635552 -0.126432
C51   C     C_R   0.168089 0.746607 0.791445 -0.124226
C52   C     C_R   0.139601 0.727874 0.839931 -0.129942
C53   C     C_R   0.104470 0.886052 0.840779 -0.138751
C54   C     C_R   0.130675 0.903348 0.792015 -0.126747
C55   C     C_R   0.158975 0.831274 0.766627 0.038771
C56   C     C_R   0.280450 0.881990 0.568384 0.538884
C57   C     C_R   0.102802 0.794309 0.864385 0.024371
C58   C     C_R   0.644333 0.860966 0.613773 0.024334
C59   C     C_R   0.567944 0.752309 0.631260 -0.126123
C60   C     C_R   0.579403 0.723672 0.678311 -0.124528
C61   C     C_R   0.666623 0.803930 0.708238 0.035407
C62   C     C_R   0.745644 0.910429 0.689749 -0.122207
C63   C     C_R   0.735506 0.938093 0.642807 -0.132917
C64   C     C_R   0.780995 0.823394 0.780468 -0.133629
C65   C     C_R   0.791713 0.820425 0.829677 -0.127535
C66   C     C_R   0.584901 0.717909 0.838578 -0.010142
C67   C     C_1   0.630809 0.264691 0.383692 0.004293
C68   C     C_R   0.576023 0.727595 0.788195 -0.095647
C69   C     C_R   0.673861 0.781335 0.759447 0.016624
C70   C     C_R   0.695643 0.770297 0.859447 0.030502
C71   C     C_R   0.049128 0.761063 0.048309 0.544913
C72   C     C_R   0.714373 0.436007 0.049790 0.546625
C73   C     C_R   0.723595 0.770748 0.049541 0.546954
C74   C     C_R   0.044719 0.756121 0.910706 0.539551
C75   C     C_R   0.707782 0.429118 0.912302 0.542593
C76   C     C_R   0.719352 0.763295 0.910637 0.531086
C77   C     C_R   0.768966 0.374908 0.270008 -0.101273
C78   C     C_R   0.779453 0.389284 0.219886 -0.105606
Cr1   Cr    Cr6+3 0.417720 0.831920 0.499820 1.028798
Cr2   Cr    Cr6+3 0.668190 0.085770 0.500360 1.030698
Cr3   Cr    Cr6+3 0.414060 0.082260 0.499840 1.026530
Cr4   Cr    Cr6+3 0.908000 0.821090 0.979770 1.021483
Cr5   Cr    Cr6+3 0.912420 0.571130 0.979880 1.019951
Cr6   Cr    Cr6+3 0.657970 0.566940 0.980940 1.013763
H1    H     H_    0.844664 0.412985 0.292595 0.108960
H2    H     H_    0.727722 0.696493 0.209437 0.121835
H3    H     H_    0.594442 0.919795 0.182851 0.141319
H4    H     H_    0.688983 0.150433 0.635727 0.131981
H5    H     H_    0.511484 0.324459 0.863671 0.124474
H6    H     H_    0.712050 0.200384 0.720699 0.112707
H7    H     H_    0.847280 0.394796 0.767682 0.109231
H8    H     H_    0.865213 0.423836 0.854345 0.133076
H9    H     H_    0.624207 0.459663 0.693318 0.108816
H10   H     H_    0.863120 0.439953 0.204383 0.108688
H11   H     H_    0.589953 0.401642 0.607546 0.115399
H12   H     H_    0.311428 0.047980 0.631011 0.137738
H13   H     H_    0.193814 0.692588 0.773030 0.097247
H14   H     H_    0.140383 0.657506 0.857492 0.125824
H15   H     H_    0.268759 0.026829 0.716284 0.099643
H16   H     H_    0.123166 0.969391 0.773747 0.099374
H17   H     H_    0.078313 0.939867 0.859038 0.117588
H18   H     H_    0.090183 0.661678 0.699116 0.104971
H19   H     H_    0.140294 0.682815 0.613585 0.123183
H20   H     H_    0.497159 0.691266 0.609278 0.122715
H21   H     H_    0.498604 0.238437 0.188305 0.107561
H22   H     H_    0.857457 0.861251 0.758864 0.110764
H23   H     H_    0.876738 0.855239 0.844390 0.135047
H24   H     H_    0.518809 0.640306 0.691627 0.094683
H25   H     H_    0.494066 0.696207 0.770958 0.101278
H26   H     H_    0.812547 0.974897 0.712255 0.101744
H27   H     H_    0.795205 0.022725 0.630420 0.126626
H28   H     H_    0.480211 0.212337 0.276306 0.113625
H29   H     H_    0.329588 0.004357 0.274142 0.142305
H30   H     H_    0.297668 0.986489 0.186039 0.113989
H31   H     H_    0.990045 0.665539 0.205798 0.104774
H32   H     H_    0.022581 0.683051 0.293780 0.105010
H33   H     H_    0.714335 0.718512 0.297096 0.113270
O1    O     O_R   0.302900 0.805360 0.446400 -0.502038
O2    O     O_R   0.657980 0.180990 0.549630 -0.507518
O3    O     O_R   0.503420 0.197810 0.553190 -0.519500
O4    O     O_R   0.320350 0.978840 0.548910 -0.505901
O5    O     O_3   0.499990 0.999990 0.500010 -0.246416
O6    O     O_R   0.819150 0.845650 0.033320 -0.502317
O7    O     O_R   0.006060 0.815720 0.028680 -0.492992
O8    O     O_R   0.028100 0.664460 0.032550 -0.506212
O9    O     O_R   0.811290 0.477490 0.029660 -0.493107
O10   O     O_R   0.638120 0.455970 0.034270 -0.506639
O11   O     O_R   0.667540 0.672320 0.030160 -0.494487
O12   O     O_R   0.522090 0.841370 0.450730 -0.492501
O13   O     O_R   0.814460 0.840990 0.926980 -0.520721
O14   O     O_R   0.001710 0.811400 0.930110 -0.508525
O15   O     O_R   0.023410 0.659800 0.926210 -0.523694
O16   O     O_R   0.806940 0.473170 0.931090 -0.502378
O17   O     O_R   0.633420 0.451310 0.927930 -0.525456
O18   O     O_R   0.663190 0.668000 0.931580 -0.509510
O19   O     O_3   0.826130 0.653050 0.980200 -0.244156
O20   O     O_R   0.693280 0.995650 0.447220 -0.499237
O21   O     O_R   0.657260 0.178740 0.451050 -0.486873
O22   O     O_R   0.502640 0.195380 0.446850 -0.508035
O23   O     O_R   0.319630 0.976590 0.450330 -0.492441
O24   O     O_R   0.303680 0.807790 0.552740 -0.517058
O25   O     O_R   0.522820 0.843620 0.549310 -0.503549
O26   O     O_R   0.694060 0.998080 0.553560 -0.526567
Br1   Br    Br    0.555949 0.985029 0.279683 -0.571377
C79   C     C_3   0.459000 0.291587 0.765703 -0.251329
C80   C     C_3   0.357176 0.264614 0.798384 -0.312359
C81   C     C_3   0.251994 0.239384 0.768661 -0.459158
H34   H     H_    0.267855 0.315794 0.748154 0.147874
H35   H     H_    0.229370 0.168268 0.742914 0.143826
H36   H     H_    0.178983 0.215625 0.793133 0.140710
H37   H     H_    0.337006 0.189734 0.821017 0.164427
H38   H     H_    0.377709 0.338918 0.822103 0.159757
H39   H     H_    0.471403 0.362222 0.742042 0.142033
H40   H     H_    0.436323 0.215847 0.742600 0.150726
C82   C     C_3   0.480182 0.653827 0.870161 -0.246812
C83   C     C_3   0.364480 0.604185 0.844158 -0.321936
C84   C     C_3   0.266666 0.538177 0.879024 -0.453679
H41   H     H_    0.273886 0.467819 0.895546 0.151880
H42   H     H_    0.267241 0.595440 0.908003 0.161407
H43   H     H_    0.184439 0.501052 0.859108 0.136140
H44   H     H_    0.354970 0.673862 0.828270 0.163358
H45   H     H_    0.358544 0.544775 0.814957 0.155724
H46   H     H_    0.483678 0.581571 0.886800 0.173371
H47   H     H_    0.483867 0.711997 0.899467 0.144800

loop_
_geom_bond_atom_site_label_1
_geom_bond_atom_site_label_2
_ccdc_geom_bond_type
Cr6   O11   S    
C48   C55   S    
C66   C68   A    
C21   C26   A    
Cr6   O18   S    
C51   H13   S    
C84   H41   S    
C74   O15   A    
Cr3   O23   S    
C41   C42   A    
C15   C18   S    
C19   C71   S    
C81   H34   S    
C24   C27   A    
C23   O1    A    
C79   C80   S    
Cr1   O24   S    
C75   O17   A    
Cr2   O5    S    
C77   C78   A    
Cr5   O15   S    
Cr3   O3    S    
Cr6   O17   S    
C59   H20   S    
C83   C84   S    
C81   H35   S    
C38   C42   A    
C1    O12   A    
C10   C15   A    
C66   C82   S    
Cr2   O21   S    
Cr1   O25   S    
C44   C50   A    
C65   C70   A    
C32   H4    S    
Cr1   O1    S    
C47   H15   S    
C37   H11   S    
C35   C42   S    
C11   H30   S    
C21   H33   S    
C77   H1    S    
C17   C19   T    
C54   C55   A    
C76   O13   A    
C36   H9    S    
C40   C43   A    
C34   O25   A    
C35   C36   A    
C53   H17   S    
C16   C17   S    
C73   O6    A    
Cr4   O13   S    
C60   H24   S    
C79   H39   S    
C45   O2    A    
Cr6   O10   S    
Cr2   O2    S    
C83   H45   S    
C50   H19   S    
C84   H42   S    
C21   C22   A    
C63   H27   S    
C54   H16   S    
Cr5   O8    S    
C4    C7    S    
Cr4   O7    S    
C12   C67   S    
C76   O18   A    
C44   C46   A    
C20   C29   T    
C43   C75   S    
C38   C39   A    
Cr1   O5    S    
C74   O14   A    
C34   O26   A    
C8    C72   S    
C72   O10   A    
C51   C52   A    
C23   O23   A    
C81   H36   S    
C24   C25   A    
C52   C57   A    
C49   H18   S    
C30   C73   S    
C53   C57   A    
C68   C69   A    
C6    C8    T    
C82   H46   S    
C58   C59   A    
C53   C54   A    
C31   C37   A    
C32   C33   A    
Cr3   O4    S    
C60   C61   A    
C57   C74   S    
C38   C79   S    
C62   C63   A    
C11   C16   A    
C44   C56   S    
C47   C48   A    
C62   H26   S    
C3    H28   S    
Cr2   O26   S    
C12   O22   A    
C64   C69   A    
C40   H8    S    
Cr5   O19   S    
C13   H31   S    
C10   H29   S    
C80   H38   S    
C56   O24   A    
C45   O3    A    
C48   C49   A    
C41   H7    S    
C83   H44   S    
C84   H43   S    
C22   C27   A    
C70   C76   S    
C12   O21   A    
C71   O7    A    
C25   Br1   S    
C79   H40   S    
Cr5   O9    S    
C3    C4    A    
Cr4   O6    S    
C82   C83   S    
C1    O20   A    
C80   C81   S    
C61   C69   S    
C58   C63   A    
Cr3   O22   S    
C46   C47   A    
Cr6   O19   S    
C1    C20   S    
Cr4   O14   S    
C31   C32   A    
C9    C23   S    
C39   C43   A    
C75   O16   A    
C64   H22   S    
C82   H47   S    
C73   O11   A    
C66   C70   A    
C2    H21   S    
Cr3   O5    S    
C56   O4    A    
C28   C30   T    
C2    C3    A    
C25   C26   A    
C4    C77   A    
C33   H6    S    
C64   C65   A    
C5    C6    S    
C78   H10   S    
C14   H32   S    
C52   H14   S    
C33   C35   A    
C65   H23   S    
C51   C55   A    
C68   H25   S    
C22   H2    S    
Cr4   O19   S    
C61   C62   A    
C24   H3    S    
Cr5   O16   S    
C10   C11   A    
C7    C67   T    
C80   H37   S    
C2    C5    A    
C9    C18   T    
C59   C60   A    
C46   H12   S    
C26   C29   S    
C36   C37   A    
C49   C50   A    
C31   C45   S    
C13   C16   A    
C72   O9    A    
C27   C28   S    
C34   C58   S    
C14   C15   A    
C71   O8    A    
C40   C41   A    
C5    C78   A    
C13   C14   A    
C39   H5    S    
Cr2   O20   S    
Cr1   O12   S    
