data_mof_unit_26698.cif
_audit_creation_date              2012-12-10T16:44:43-0500
_audit_creation_method            fapswitch 2.2
_symmetry_space_group_name_H-M    P1
_symmetry_Int_Tables_number       1
_space_group_crystal_system       triclinic
_cell_length_a                    15.024048
_cell_length_b                    8.789234
_cell_length_c                    7.441125
_cell_angle_alpha                 102.798525
_cell_angle_beta                  93.82916
_cell_angle_gamma                 92.421376
_cell_volume                      954.403533039

loop_
_atom_site_label
_atom_site_type_symbol
_atom_type_description
_atom_site_fract_x
_atom_site_fract_y
_atom_site_fract_z
_atom_type_partial_charge
C1    C     C_R   0.501055 0.200846 0.454568 0.905068
C2    C     C_R   0.502475 0.799461 0.545824 0.823426
C3    C     C_R   0.025558 0.239796 0.321471 -0.224593
C4    C     C_R   0.974095 0.780794 0.693467 -0.223434
C5    C     C_2   0.517337 0.037796 0.435048 -0.044394
C6    C     C_2   0.492685 0.964245 0.569747 -0.079889
C7    C     C_R   0.329023 0.497828 0.502501 0.801296
C8    C     C_R   0.670873 0.513805 0.499155 0.795268
C9    C     C_R   0.821344 0.657255 0.603533 0.041604
C10   C     C_R   0.178045 0.358527 0.418480 0.036451
C11   C     C_R   0.767615 0.527883 0.495203 -0.082898
C12   C     C_R   0.232449 0.493497 0.506898 -0.080185
C13   C     C_R   0.806298 0.403159 0.384917 -0.292473
C14   C     C_R   0.195105 0.630154 0.594610 -0.277509
C15   C     C_R   0.897855 0.392476 0.394748 0.118630
C16   C     C_R   0.102960 0.637796 0.594762 0.112865
C17   C     C_R   0.953459 0.518645 0.497816 0.042430
C18   C     C_R   0.046938 0.508336 0.500433 0.039705
C19   C     C_R   0.915797 0.654196 0.598508 0.092583
C20   C     C_R   0.083991 0.367688 0.411725 0.093657
C21   C     C_R   0.933989 0.254294 0.307308 -0.214524
C22   C     C_R   0.066138 0.773585 0.687960 -0.212699
Cu1   Cu    Cu3+1 0.510010 0.517380 0.684380 0.926516
Cu2   Cu    Cu3+1 0.489990 0.482620 0.315620 0.929430
H1    H     H_    0.764532 0.309946 0.296414 0.155503
H2    H     H_    0.238485 0.731418 0.661745 0.143581
H3    H     H_    0.891019 0.155038 0.232579 0.139062
H4    H     H_    0.108568 0.874359 0.759177 0.146560
H5    H     H_    0.048984 0.127260 0.259607 0.159597
H6    H     H_    0.950171 0.887538 0.772102 0.155370
H7    H     H_    0.426390 0.386623 0.950604 0.230192
H8    H     H_    0.573030 0.614635 0.049840 0.219491
N1    N     N_2   0.474890 0.456420 0.038520 -0.224237
N2    N     N_2   0.525110 0.543580 0.961480 -0.220759
O1    O     O_R   0.506510 0.286130 0.619770 -0.595660
O2    O     O_R   0.493490 0.713870 0.380230 -0.599081
O3    O     O_R   0.489600 0.256770 0.308360 -0.588105
O4    O     O_R   0.510400 0.743230 0.691640 -0.599444
O5    O     O_R   0.378710 0.514640 0.655720 -0.591225
O6    O     O_R   0.621290 0.485360 0.344280 -0.592535
O7    O     O_R   0.361800 0.485290 0.344300 -0.572848
O8    O     O_R   0.638200 0.514710 0.655700 -0.586656
C23   C     C_3   0.778959 0.796851 0.720593 -0.427343
C24   C     C_3   0.774569 0.933690 0.623807 -0.376722
C25   C     C_3   0.738380 0.076545 0.747777 -0.823260
H9    H     H_    0.781957 0.114661 0.878128 0.249166
H10   H     H_    0.736860 0.174574 0.676006 0.250192
H11   H     H_    0.669479 0.048907 0.781333 0.255205
H12   H     H_    0.841483 0.966957 0.584894 0.228729
H13   H     H_    0.730153 0.897077 0.494959 0.220715
H14   H     H_    0.710334 0.767314 0.751827 0.218552
H15   H     H_    0.816313 0.833286 0.858560 0.191848
C26   C     C_3   0.219772 0.202628 0.354543 -0.413316
C27   C     C_3   0.219493 0.146565 0.144657 -0.343594
C28   C     C_3   0.246679 0.977131 0.097583 -0.857564
H16   H     H_    0.316325 0.969739 0.154189 0.261779
H17   H     H_    0.201035 0.901081 0.155861 0.259396
H18   H     H_    0.242631 0.931361 0.946330 0.233202
H19   H     H_    0.153339 0.153982 0.072845 0.215385
H20   H     H_    0.268044 0.222828 0.093829 0.231029
H21   H     H_    0.290434 0.209315 0.406594 0.189344
H22   H     H_    0.185738 0.113840 0.416155 0.197945
C29   C     C_3   0.566928 0.960130 0.266404 -0.398619
C30   C     C_3   0.643730 0.062104 0.223196 -0.903703
H23   H     H_    0.619399 0.155388 0.157090 0.285521
H24   H     H_    0.685275 0.113143 0.352711 0.248360
H25   H     H_    0.686140 0.989479 0.125221 0.237521
H26   H     H_    0.600947 0.856271 0.289042 0.214273
H27   H     H_    0.518580 0.924699 0.142903 0.220481
C31   C     C_3   0.446346 0.039121 0.743761 -0.360161
C32   C     C_3   0.353450 0.090133 0.697558 -0.907200
H28   H     H_    0.357160 0.207761 0.669152 0.257933
H29   H     H_    0.317906 0.003784 0.580145 0.250557
H30   H     H_    0.313796 0.100865 0.817970 0.244879
H31   H     H_    0.435758 0.955832 0.833805 0.218423
H32   H     H_    0.489050 0.135035 0.835285 0.225909

loop_
_geom_bond_atom_site_label_1
_geom_bond_atom_site_label_2
_ccdc_geom_bond_type
C24   H12   S    
C28   H16   S    
C27   H20   S    
C26   C27   S    
Cu2   O2    S    
Cu1   O8    S    
C1    C5    S    
C8    O8    A    
C5    C6    D    
C23   H15   S    
C24   H13   S    
C5    C29   S    
C6    C31   S    
C3    H5    S    
C10   C26   S    
Cu2   O6    S    
C29   H26   S    
C4    C19   A    
C26   H21   S    
C9    C19   A    
C29   H27   S    
C10   C20   A    
Cu1   Cu2   S    
H7    N1    S    
C31   C32   S    
C1    O3    A    
C21   H3    S    
C22   H4    S    
Cu2   O7    S    
C13   H1    S    
C2    C6    S    
Cu2   O3    S    
C27   H19   S    
C25   H10   S    
C7    C12   S    
C9    C23   S    
C30   H25   S    
C32   H29   S    
C25   H9    S    
C30   H24   S    
C23   C24   S    
C4    C22   A    
C26   H22   S    
C2    O4    A    
Cu1   N2    S    
C17   C18   A    
C3    C20   A    
C14   H2    S    
C9    C11   A    
C10   C12   A    
C12   C14   A    
Cu1   O1    S    
C13   C15   A    
C31   H32   S    
C14   C16   A    
C3    C21   A    
C24   C25   S    
C1    O1    A    
C25   H11   S    
C2    O2    A    
C15   C17   A    
C27   C28   S    
C16   C22   A    
C32   H30   S    
Cu1   O4    S    
Cu2   N1    S    
C30   H23   S    
C28   H17   S    
C32   H28   S    
C11   C13   A    
C23   H14   S    
C8    C11   S    
Cu1   O5    S    
C17   C19   A    
N1    N2    D    
C18   C20   A    
C7    O7    A    
C29   C30   S    
C15   C21   A    
C16   C18   A    
C28   H18   S    
C31   H31   S    
C7    O5    A    
C8    O6    A    
C4    H6    S    
H8    N2    S    
