data_mof_unit_20068.cif
_audit_creation_date              2012-12-10T17:42:15-0500
_audit_creation_method            fapswitch 2.2
_symmetry_space_group_name_H-M    P1
_symmetry_Int_Tables_number       1
_space_group_crystal_system       triclinic
_cell_length_a                    15.073389
_cell_length_b                    13.816556
_cell_length_c                    10.748864
_cell_angle_alpha                 90.090508
_cell_angle_beta                  87.346008
_cell_angle_gamma                 89.905956
_cell_volume                      2236.1761533

loop_
_atom_site_label
_atom_site_type_symbol
_atom_type_description
_atom_site_fract_x
_atom_site_fract_y
_atom_site_fract_z
_atom_type_partial_charge
C1    C     C_R   0.328676 0.500087 0.501188 0.770273
C2    C     C_3   0.576269 0.502303 0.923480 -0.460895
C3    C     C_R   0.815163 0.412353 0.500049 -0.252882
C4    C     C_R   0.768198 0.500045 0.506609 -0.076659
C5    C     C_R   0.814082 0.587701 0.518219 -0.253557
C6    C     C_R   0.906523 0.588344 0.519829 0.107971
C7    C     C_R   0.953486 0.500078 0.509663 0.062400
C8    C     C_R   0.907533 0.411745 0.500036 0.108222
C9    C     C_R   0.952805 0.675692 0.530583 -0.214685
C10   C     C_R   0.045356 0.675679 0.530546 -0.217966
C11   C     C_R   0.092529 0.588361 0.519272 0.103060
C12   C     C_R   0.492239 0.499838 0.261250 0.763163
C13   C     C_R   0.046496 0.500123 0.508767 0.062066
C14   C     C_R   0.093411 0.411944 0.496532 0.113989
C15   C     C_R   0.047212 0.324485 0.487396 -0.216078
C16   C     C_R   0.954683 0.324350 0.489619 -0.217599
C17   C     C_R   0.185021 0.587727 0.517370 -0.258168
C18   C     C_R   0.231807 0.500254 0.503754 -0.064390
C19   C     C_R   0.185805 0.412769 0.493213 -0.267909
C20   C     C_R   0.433626 0.793836 0.564061 -0.075043
C21   C     C_R   0.433664 0.206593 0.564007 -0.063633
C22   C     C_R   0.565964 0.794440 0.433783 0.329031
C23   C     C_R   0.565650 0.205118 0.433208 0.321127
C24   C     C_R   0.570077 0.896914 0.441707 0.001978
C25   C     C_R   0.569874 0.102675 0.441253 0.003259
C26   C     C_R   0.671318 0.499984 0.501985 0.819449
C27   C     C_R   0.501523 0.948330 0.505730 0.059009
C28   C     C_R   0.501498 0.051706 0.505661 0.060238
C29   C     C_R   0.432136 0.896718 0.566760 -0.000555
C30   C     C_R   0.432164 0.103767 0.566769 -0.002175
C31   C     C_R   0.640678 0.949546 0.384531 -0.218212
C32   C     C_R   0.640436 0.049638 0.383938 -0.216220
C33   C     C_R   0.363134 0.051592 0.628527 -0.205041
C34   C     C_R   0.363076 0.949415 0.628364 -0.205585
C35   C     C_R   0.490408 0.500039 0.739648 0.756073
C36   C     C_3   0.424085 0.587592 0.080409 -0.056320
C37   C     C_3   0.444124 0.399323 0.075544 -0.057116
C38   C     C_3   0.429536 0.593014 0.932733 -0.071430
C39   C     C_3   0.433545 0.404316 0.930266 -0.070158
C40   C     C_3   0.576702 0.511553 0.065323 -0.497255
C41   C     C_3   0.481382 0.499109 0.124080 0.040916
C42   C     C_3   0.479716 0.499988 0.878603 0.029156
Cu1   Cu    Cu3+1 0.499990 0.597420 0.500010 0.911632
Cu2   Cu    Cu3+1 0.499990 0.402580 0.500010 0.917932
H1    H     H_    0.460305 0.653156 0.110790 0.145217
H2    H     H_    0.500844 0.348453 0.086453 0.148962
H3    H     H_    0.080062 0.743880 0.538593 0.142302
H4    H     H_    0.220468 0.655519 0.524713 0.153235
H5    H     H_    0.221761 0.345142 0.482479 0.145708
H6    H     H_    0.082644 0.256326 0.478385 0.142710
H7    H     H_    0.920019 0.256074 0.482187 0.140266
H8    H     H_    0.380838 0.753607 0.611370 0.145690
H9    H     H_    0.380777 0.247172 0.610749 0.147995
H10   H     H_    0.697454 0.914713 0.338496 0.151891
H11   H     H_    0.696896 0.084077 0.337056 0.151763
H12   H     H_    0.308759 0.089700 0.676254 0.141078
H13   H     H_    0.308528 0.911757 0.675613 0.145194
H14   H     H_    0.475863 0.653929 0.909347 0.154006
H15   H     H_    0.473201 0.342651 0.890166 0.148963
H16   H     H_    0.604062 0.583491 0.090347 0.179830
H17   H     H_    0.622519 0.456117 0.101842 0.173121
H18   H     H_    0.613990 0.564072 0.880709 0.183620
H19   H     H_    0.612179 0.435008 0.893733 0.181386
H20   H     H_    0.780110 0.344419 0.494541 0.155538
H21   H     H_    0.778066 0.655471 0.526436 0.156162
H22   H     H_    0.917446 0.743934 0.538593 0.140652
N1    N     N_R   0.499930 0.743810 0.499950 -0.183663
N2    N     N_R   0.499930 0.256190 0.499950 -0.178637
O1    O     O_R   0.370250 0.582280 0.500040 -0.605750
O2    O     O_R   0.370250 0.417720 0.500040 -0.596280
O3    O     O_R   0.499970 0.582270 0.317700 -0.597354
O4    O     O_R   0.499970 0.417730 0.317700 -0.597844
O5    O     O_R   0.629730 0.582260 0.499980 -0.581103
O6    O     O_R   0.629730 0.417740 0.499980 -0.580408
O7    O     O_R   0.500000 0.582270 0.682320 -0.581415
O8    O     O_R   0.500000 0.417730 0.682320 -0.577924
C43   C     C_3   0.633211 0.745570 0.344692 -0.812977
H23   H     H_    0.700647 0.751855 0.381024 0.195447
H24   H     H_    0.622557 0.669904 0.323466 0.275982
H25   H     H_    0.632295 0.781213 0.252189 0.182589
C44   C     C_3   0.631571 0.253208 0.341983 -0.828204
H26   H     H_    0.699817 0.244355 0.374312 0.193219
H27   H     H_    0.627510 0.218433 0.249138 0.182435
H28   H     H_    0.622460 0.329568 0.323584 0.277848
C45   C     C_3   0.329836 0.593106 0.148788 -0.365896
C46   C     C_3   0.312007 0.689810 0.218257 -0.347814
C47   C     C_3   0.212807 0.712327 0.231524 -0.860476
H29   H     H_    0.186736 0.728790 0.138930 0.257362
H30   H     H_    0.175846 0.649671 0.272142 0.267996
H31   H     H_    0.201541 0.776130 0.293230 0.240523
H32   H     H_    0.338838 0.685564 0.312417 0.251307
H33   H     H_    0.346285 0.751719 0.171689 0.197590
H34   H     H_    0.275558 0.576414 0.087338 0.208453
H35   H     H_    0.322621 0.536947 0.221310 0.162978
C48   C     C_3   0.365723 0.352178 0.156175 -0.386289
C49   C     C_3   0.382395 0.243737 0.180002 -0.354529
C50   C     C_3   0.303254 0.196119 0.248930 -0.846319
H36   H     H_    0.291119 0.230360 0.341602 0.253627
H37   H     H_    0.242772 0.202900 0.194354 0.247076
H38   H     H_    0.317542 0.118115 0.262924 0.245095
H39   H     H_    0.397343 0.204811 0.091080 0.202801
H40   H     H_    0.441287 0.235635 0.237512 0.240570
H41   H     H_    0.356976 0.385885 0.249008 0.212277
H42   H     H_    0.300097 0.363139 0.117471 0.196540
C51   C     C_3   0.342995 0.622221 0.865556 -0.400779
C52   C     C_3   0.320047 0.730198 0.879098 -0.363164
C53   C     C_3   0.230906 0.753398 0.823963 -0.875826
H43   H     H_    0.233378 0.737578 0.722696 0.243936
H44   H     H_    0.177098 0.710038 0.870712 0.261487
H45   H     H_    0.215111 0.831243 0.838219 0.237668
H46   H     H_    0.315789 0.751523 0.977630 0.241874
H47   H     H_    0.372949 0.774614 0.832132 0.209228
H48   H     H_    0.350749 0.608028 0.764382 0.205689
H49   H     H_    0.284573 0.579129 0.894694 0.191074
C54   C     C_3   0.337808 0.390915 0.882407 -0.371285
C55   C     C_3   0.308384 0.284649 0.870844 -0.375524
C56   C     C_3   0.224445 0.276581 0.797263 -0.870675
H50   H     H_    0.170128 0.320795 0.841860 0.262942
H51   H     H_    0.237576 0.301793 0.700385 0.254405
H52   H     H_    0.202504 0.199976 0.794719 0.235898
H53   H     H_    0.361894 0.240483 0.824654 0.209934
H54   H     H_    0.292627 0.252951 0.963296 0.237539
H55   H     H_    0.287924 0.429947 0.941870 0.183908
H56   H     H_    0.334884 0.423187 0.788178 0.196133

loop_
_geom_bond_atom_site_label_1
_geom_bond_atom_site_label_2
_ccdc_geom_bond_type
Cu1   O5    S    
C47   H29   S    
C40   H16   S    
C49   H40   S    
C27   C29   A    
C20   N1    A    
C48   C49   S    
C17   H4    S    
C50   H38   S    
C6    C9    A    
C44   H26   S    
C7    C8    A    
C52   H47   S    
C43   H23   S    
C48   H42   S    
C25   C28   A    
C35   O7    A    
C1    C18   S    
C55   H54   S    
C51   H48   S    
C38   C42   S    
C46   H32   S    
C56   H51   S    
C45   C46   S    
C5    C6    A    
C52   C53   S    
C15   C16   A    
C50   H36   S    
C26   O5    A    
C55   C56   S    
C37   C48   S    
C18   C19   A    
C15   H6    S    
Cu2   O8    S    
C35   C42   S    
C9    H22   S    
C50   H37   S    
C38   H14   S    
C45   H34   S    
C34   H13   S    
C53   H43   S    
C24   C27   A    
Cu2   O2    S    
C13   C14   A    
C9    C10   A    
C32   H11   S    
C20   C29   A    
C33   H12   S    
C12   O4    A    
C8    C16   A    
C49   H39   S    
C53   H44   S    
C36   C41   S    
C44   H27   S    
C48   H41   S    
C17   C18   A    
C39   C42   S    
C52   H46   S    
C43   H24   S    
Cu1   O7    S    
C37   C39   S    
C35   O8    A    
C54   H55   S    
C55   H53   S    
C51   H49   S    
C5    H21   S    
C3    C8    A    
C56   H52   S    
C46   C47   S    
C3    H20   S    
C29   C34   A    
C1    O1    A    
C40   H17   S    
C23   N2    A    
Cu1   Cu2   S    
C12   C41   S    
C45   H35   S    
C19   H5    S    
C31   C32   A    
C39   H15   S    
C49   C50   S    
C33   C34   A    
C36   H1    S    
Cu2   O6    S    
C40   C41   S    
C12   O3    A    
C39   C54   S    
C47   H30   S    
C21   N2    A    
C53   H45   S    
C22   C24   A    
Cu2   N2    S    
C3    C4    A    
C10   H3    S    
C44   H28   S    
C2    H19   S    
C21   C30   A    
C43   H25   S    
C11   C17   A    
C16   H7    S    
Cu1   O3    S    
C54   H56   S    
C23   C44   S    
C30   C33   A    
C14   C19   A    
C22   C43   S    
C4    C5    A    
C4    C26   S    
C6    C7    A    
C36   C45   S    
C51   C52   S    
C1    O2    A    
C38   C51   S    
C36   C38   S    
C24   C31   A    
C20   H8    S    
C46   H33   S    
C56   H50   S    
C21   H9    S    
C11   C13   A    
C2    C42   S    
C28   C30   A    
C26   O6    A    
Cu2   O4    S    
C23   C25   A    
C31   H10   S    
C37   C41   S    
C22   N1    A    
C10   C11   A    
C2    C40   S    
C7    C13   A    
Cu1   N1    S    
C47   H31   S    
C27   C28   A    
C14   C15   A    
C37   H2    S    
Cu1   O1    S    
C2    H18   S    
C54   C55   S    
C25   C32   A    
