data_mof_unit_12379.cif
_audit_creation_date              2012-10-26T20:06:15-0400
_audit_creation_method            fapswitch 2.2
_symmetry_space_group_name_H-M    P1
_symmetry_Int_Tables_number       1
_space_group_crystal_system       triclinic
_cell_length_a                    9.509379
_cell_length_b                    10.831178
_cell_length_c                    13.435114
_cell_angle_alpha                 90.335383
_cell_angle_beta                  72.401198
_cell_angle_gamma                 89.942402
_cell_volume                      1318.99329226

loop_
_atom_site_label
_atom_site_type_symbol
_atom_type_description
_atom_site_fract_x
_atom_site_fract_y
_atom_site_fract_z
_atom_type_partial_charge
C1    C     C_R   0.500176 0.737937 0.499617 0.538050
C2    C     C_R   0.371742 0.511131 0.815531 -0.006418
C3    C     C_R   0.630422 0.935892 0.493579 -0.149537
C4    C     C_R   0.420929 0.506109 0.700364 0.538176
C5    C     C_R   0.630409 0.063634 0.493679 -0.140554
C6    C     C_R   0.500551 0.128159 0.498926 0.020972
C7    C     C_R   0.370940 0.063939 0.503498 -0.141467
C8    C     C_R   0.370914 0.936231 0.503489 -0.141177
C9    C     C_R   0.500520 0.871727 0.498847 0.016716
C10   C     C_R   0.900438 0.583259 0.559148 0.002440
C11   C     C_R   0.049005 0.582748 0.559655 0.006510
C12   C     C_R   0.431237 0.521012 0.980526 0.040779
C13   C     C_R   0.100198 0.417762 0.439700 0.010421
C14   C     C_R   0.951223 0.417658 0.439868 0.017634
C15   C     C_R   0.500184 0.262029 0.499626 0.552005
C16   C     C_R   0.578988 0.503193 0.299776 0.556690
C17   C     C_R   0.784746 0.613490 0.028583 -0.127250
C18   C     C_R   0.623795 0.523063 0.186551 0.003666
C19   C     C_R   0.230926 0.466277 0.869065 -0.142334
C20   C     C_R   0.188072 0.452750 0.976729 -0.130543
C21   C     C_R   0.287417 0.476950 0.032004 -0.113241
C22   C     C_3   0.864938 0.724906 0.209681 0.005139
C23   C     C_R   0.467271 0.549621 0.872887 0.030713
C24   C     C_3   0.971373 0.743912 0.273114 -0.354305
C25   C     C_R   0.540073 0.539012 0.032302 0.016968
C26   C     C_R   0.675768 0.596541 0.979090 0.007235
C27   C     C_R   0.700250 0.638806 0.877602 -0.140729
C28   C     C_R   0.596391 0.617672 0.825977 -0.116459
C29   C     C_R   0.519302 0.499307 0.134768 -0.181050
C30   C     C_R   0.758443 0.579792 0.132994 0.242930
Cu1   Cu    Cu3+1 0.359340 0.499980 0.500000 0.924447
Cu2   Cu    Cu3+1 0.640660 0.500020 0.500000 0.942316
H1    H     H_    0.731889 0.111577 0.489640 0.124591
H2    H     H_    0.421547 0.449621 0.176837 0.120543
H3    H     H_    0.154485 0.439024 0.827399 0.134940
H4    H     H_    0.246840 0.463251 0.115189 0.112717
H5    H     H_    0.078506 0.419426 0.017327 0.145393
H6    H     H_    0.616634 0.658523 0.749954 0.128458
H7    H     H_    0.731934 0.887673 0.489429 0.119698
H8    H     H_    0.752968 0.754789 0.258666 0.134285
H9    H     H_    0.901331 0.783986 0.139011 0.118330
H10   H     H_    0.084520 0.715520 0.226489 0.156237
H11   H     H_    0.972545 0.842812 0.295106 0.080863
H12   H     H_    0.269474 0.112097 0.507455 0.125638
H13   H     H_    0.936161 0.688046 0.345354 0.181289
H14   H     H_    0.269429 0.888306 0.507495 0.123480
H15   H     H_    0.824929 0.650969 0.605507 0.096021
H16   H     H_    0.084709 0.649026 0.607464 0.104063
H17   H     H_    0.177001 0.351943 0.391362 0.104721
H18   H     H_    0.915650 0.351825 0.391655 0.112079
H19   H     H_    0.800255 0.688366 0.837775 0.095426
H20   H     H_    0.889345 0.655459 0.987039 0.114299
N1    N     N_R   0.147940 0.499970 0.499970 -0.222888
N2    N     N_R   0.852060 0.500060 0.499990 -0.227014
O1    O     O_R   0.381250 0.680340 0.500010 -0.510005
O2    O     O_R   0.618820 0.680370 0.500010 -0.523652
O3    O     O_R   0.323240 0.499950 0.650980 -0.501904
O4    O     O_R   0.560810 0.499980 0.650980 -0.498601
O5    O     O_R   0.381180 0.319630 0.499990 -0.508926
O6    O     O_R   0.618750 0.319660 0.499990 -0.507770
O7    O     O_R   0.439190 0.500020 0.349020 -0.516921
O8    O     O_R   0.676760 0.500050 0.349020 -0.452728
O9    O     O_3   0.865948 0.599047 0.181426 -0.551406

loop_
_geom_bond_atom_site_label_1
_geom_bond_atom_site_label_2
_ccdc_geom_bond_type
C4    O3    A    
C2    C4    S    
C6    C7    A    
C3    C9    A    
C28   H6    S    
C24   H10   S    
C15   O6    A    
Cu1   O7    S    
C19   C20   A    
C11   N1    A    
Cu2   O4    S    
C12   C25   A    
C25   C26   A    
C22   H8    S    
Cu1   O3    S    
C22   O9    S    
C26   C27   A    
C3    H7    S    
C7    C8    A    
C21   H4    S    
C18   C29   A    
C19   H3    S    
C7    H12   S    
Cu1   N1    S    
C25   C29   A    
C20   H5    S    
C12   C23   A    
C11   H16   S    
C14   H18   S    
C17   C30   A    
C13   H17   S    
C24   H13   S    
C16   O7    A    
C17   H20   S    
Cu2   N2    S    
C14   N2    A    
C1    O2    A    
C27   H19   S    
C13   N1    A    
C2    C23   A    
C1    O1    A    
C18   C30   A    
C10   N2    A    
C22   C24   S    
C22   H9    S    
C10   C11   A    
C17   C26   A    
C4    O4    A    
C13   C14   A    
C12   C21   A    
C27   C28   A    
C1    C9    S    
C20   C21   A    
C16   C18   S    
C16   O8    A    
Cu1   O5    S    
C10   H15   S    
C5    C6    A    
C24   H11   S    
Cu2   O6    S    
Cu2   O8    S    
C8    H14   S    
Cu1   O1    S    
C6    C15   S    
C23   C28   A    
C15   O5    A    
C29   H2    S    
Cu2   O2    S    
Cu1   Cu2   S    
C30   O9    S    
C2    C19   A    
C8    C9    A    
C3    C5    A    
C5    H1    S    
