data_mof_unit_30600.cif
_audit_creation_date              2012-12-10T17:31:53-0500
_audit_creation_method            fapswitch 2.2
_symmetry_space_group_name_H-M    P1
_symmetry_Int_Tables_number       1
_space_group_crystal_system       triclinic
_cell_length_a                    12.084261
_cell_length_b                    11.519079
_cell_length_c                    12.906166
_cell_angle_alpha                 91.014108
_cell_angle_beta                  94.573996
_cell_angle_gamma                 86.530851
_cell_volume                      1787.3797203

loop_
_atom_site_label
_atom_site_type_symbol
_atom_type_description
_atom_site_fract_x
_atom_site_fract_y
_atom_site_fract_z
_atom_type_partial_charge
C1    C     C_R   0.476928 0.509242 0.299927 0.894804
C2    C     C_R   0.975680 0.551481 0.518766 -0.110827
C3    C     C_R   0.499627 0.282177 0.499575 0.887535
C4    C     C_R   0.500141 0.717825 0.499692 0.897617
C5    C     C_1   0.498893 0.161685 0.498649 -0.167788
C6    C     C_1   0.499824 0.838328 0.498352 -0.177239
C7    C     C_1   0.498692 0.059405 0.497926 -0.012891
C8    C     C_1   0.499005 0.940655 0.497699 -0.017763
C9    C     C_R   0.538741 0.492560 0.813006 -0.175919
C10   C     C_R   0.460840 0.523301 0.188171 -0.177516
C11   C     C_R   0.355848 0.478402 0.028111 -0.319920
C12   C     C_R   0.523090 0.494947 0.700494 0.924341
C13   C     C_R   0.640105 0.551484 0.971521 -0.338026
C14   C     C_R   0.358745 0.500468 0.133918 0.415430
C15   C     C_R   0.637832 0.528702 0.865224 0.441662
C16   C     C_R   0.551408 0.552729 0.133906 0.018988
C17   C     C_R   0.448851 0.463671 0.868490 0.001201
C18   C     C_R   0.547611 0.533036 0.026585 0.053857
C19   C     C_R   0.450674 0.490048 0.974378 0.043568
C20   C     C_3   0.823323 0.482080 0.849124 0.105451
C21   C     C_3   0.908075 0.473776 0.768078 -0.764489
C22   C     C_3   0.198128 0.599694 0.168989 0.128980
C23   C     C_R   0.044891 0.634790 0.564232 -0.350842
C24   C     C_3   0.095946 0.599299 0.230526 -0.873331
C25   C     C_3   0.813375 0.757908 0.473796 0.094802
C26   C     C_3   0.799974 0.877207 0.525365 -0.816174
C27   C     C_3   0.196441 0.310306 0.349723 0.140637
C28   C     C_3   0.203455 0.180871 0.323601 -0.875704
C29   C     C_R   0.955378 0.361421 0.441350 -0.351149
C30   C     C_R   0.160896 0.618309 0.564341 0.187722
C31   C     C_R   0.839473 0.379351 0.439886 0.176163
C32   C     C_R   0.142730 0.433464 0.480971 0.549669
C33   C     C_R   0.857701 0.567789 0.514513 0.554607
C34   C     C_R   0.024930 0.447796 0.480103 -0.076007
H1    H     H_    0.278212 0.452836 0.989428 0.155337
H2    H     H_    0.862695 0.523114 0.920294 0.128851
H3    H     H_    0.930081 0.562257 0.747658 0.265750
H4    H     H_    0.984603 0.423808 0.799294 0.187712
H5    H     H_    0.873167 0.428391 0.697394 0.253431
H6    H     H_    0.169396 0.610871 0.085392 0.131677
H7    H     H_    0.246443 0.675371 0.196504 0.141272
H8    H     H_    0.121704 0.592860 0.314701 0.252875
H9    H     H_    0.044038 0.681324 0.217097 0.206456
H10   H     H_    0.045551 0.524803 0.205608 0.241793
H11   H     H_    0.745355 0.749264 0.411472 0.167084
H12   H     H_    0.714300 0.585651 0.009634 0.144357
H13   H     H_    0.893162 0.754150 0.435701 0.113846
H14   H     H_    0.873747 0.892152 0.579836 0.238881
H15   H     H_    0.791937 0.945846 0.465422 0.201268
H16   H     H_    0.724897 0.883053 0.569722 0.275763
H17   H     H_    0.272650 0.346454 0.325506 0.230709
H18   H     H_    0.123007 0.351352 0.303537 0.134611
H19   H     H_    0.128365 0.139898 0.346406 0.246982
H20   H     H_    0.209273 0.167898 0.238696 0.216978
H21   H     H_    0.278302 0.137927 0.365541 0.270130
H22   H     H_    0.789398 0.282839 0.315007 0.156611
H23   H     H_    0.009464 0.712027 0.601001 0.192807
H24   H     H_    0.791909 0.214471 0.430090 0.172040
H25   H     H_    0.183901 0.778109 0.632413 0.155211
H26   H     H_    0.262716 0.666564 0.685885 0.190798
H27   H     H_    0.989424 0.279892 0.411273 0.187613
H28   H     H_    0.284996 0.460319 0.816689 0.186060
H29   H     H_    0.346585 0.328784 0.855107 0.186132
H30   H     H_    0.657228 0.683645 0.157218 0.173395
H31   H     H_    0.716645 0.547274 0.181806 0.186579
H32   H     H_    0.802744 0.391714 0.866846 0.123975
N1    N     N_R   0.792200 0.479100 0.480660 -0.135371
N2    N     N_R   0.207800 0.520900 0.519340 -0.141740
N3    N     N_3   0.357343 0.405766 0.816350 -0.423660
N4    N     N_3   0.645817 0.602738 0.188928 -0.443950
N5    N     N_3   0.770881 0.293372 0.392506 -0.384878
N6    N     N_3   0.230609 0.701887 0.614955 -0.388072
O1    O     O_R   0.578300 0.494420 0.341180 -0.596144
O2    O     O_3   0.262581 0.493926 0.184231 -0.629411
O3    O     O_3   0.808619 0.670985 0.549609 -0.572896
O4    O     O_3   0.192264 0.325560 0.458206 -0.600427
O5    O     O_R   0.421700 0.505580 0.658820 -0.610318
O6    O     O_R   0.390690 0.507830 0.353590 -0.609248
O7    O     O_R   0.609310 0.492170 0.646410 -0.556563
O8    O     O_R   0.593810 0.327740 0.493800 -0.608356
O9    O     O_R   0.406190 0.672260 0.506200 -0.602189
O10   O     O_R   0.406190 0.341150 0.506220 -0.566350
O11   O     O_R   0.593810 0.658850 0.493780 -0.578534
O12   O     O_3   0.728445 0.550938 0.810450 -0.569895
Zn1   Zn    Zn3+2 0.625270 0.491050 0.491710 1.004274
Zn2   Zn    Zn3+2 0.374730 0.508950 0.508290 0.985292

loop_
_geom_bond_atom_site_label_1
_geom_bond_atom_site_label_2
_ccdc_geom_bond_type
C17   N3    S    
N2    Zn2   S    
C7    C8    S    
C31   N1    A    
C11   C19   A    
C13   C18   A    
C14   O2    S    
C20   H32   S    
C26   H16   S    
C13   H12   S    
C11   C14   A    
H24   N5    S    
C22   H7    S    
H26   N6    S    
H31   N4    S    
C12   O7    A    
C24   H8    S    
C18   C19   A    
C33   O3    S    
C21   H4    S    
H29   N3    S    
H30   N4    S    
C25   H13   S    
O9    Zn2   S    
C26   H14   S    
H25   N6    S    
C32   N2    A    
O6    Zn2   S    
C31   N5    S    
C1    O6    A    
C3    O8    A    
C28   H21   S    
C27   H17   S    
C29   H27   S    
N1    Zn1   S    
C4    O9    A    
C23   C30   A    
C16   N4    S    
C4    C6    S    
C10   C14   A    
C26   H15   S    
C5    C7    T    
C28   H20   S    
C6    C8    T    
C25   C26   S    
O10   Zn2   S    
C29   C34   A    
C20   O12   S    
H28   N3    S    
C25   O3    S    
C32   C34   A    
O8    Zn1   S    
C21   H5    S    
H22   N5    S    
C22   H6    S    
C12   O5    A    
C2    C23   A    
C3    O10   A    
O1    Zn1   S    
C2    C33   A    
C9    C17   A    
O11   Zn1   S    
O5    Zn2   S    
C13   C15   A    
C24   H10   S    
C22   C24   S    
C22   O2    S    
C27   O4    S    
C25   H11   S    
O7    Zn1   S    
C27   H18   S    
C33   N1    A    
C23   H23   S    
C1    C10   S    
C3    C5    S    
C32   O4    S    
C30   N6    S    
C28   H19   S    
C15   O12   S    
C1    O1    A    
C11   H1    S    
C9    C15   A    
C29   C31   A    
C10   C16   A    
C2    C34   A    
C4    O11   A    
C17   C19   A    
C9    C12   S    
C20   H2    S    
C21   H3    S    
C20   C21   S    
C16   C18   A    
C27   C28   S    
C24   H9    S    
C30   N2    A    
