data_mof_unit_23700.cif
_audit_creation_date              2012-12-11T16:33:29-0500
_audit_creation_method            fapswitch 2.2
_symmetry_space_group_name_H-M    P1
_symmetry_Int_Tables_number       1
_space_group_crystal_system       triclinic
_cell_length_a                    6.94735
_cell_length_b                    18.048517
_cell_length_c                    20.427973
_cell_angle_alpha                 68.621116
_cell_angle_beta                  90.861794
_cell_angle_gamma                 90.642131
_cell_volume                      2384.88284345

loop_
_atom_site_label
_atom_site_type_symbol
_atom_type_description
_atom_site_fract_x
_atom_site_fract_y
_atom_site_fract_z
_atom_type_partial_charge
O1    O     O_R   0.488960 0.443750 0.941980 -0.538845
O2    O     O_R   0.823890 0.406510 0.087590 -0.530635
O3    O     O_R   0.999680 0.556250 0.058020 -0.528202
C1    C     C_R   0.655138 0.380958 0.113460 0.809961
O4    O     O_R   0.818360 0.434410 0.944340 -0.541913
O5    O     O_R   0.994110 0.584350 0.913750 -0.538461
C2    C     C_R   0.649088 0.422424 0.922156 0.724975
O6    O     O_R   0.494530 0.415650 0.086250 -0.534982
O7    O     O_3   0.662590 0.549160 0.990130 -0.367006
V1    V     V_3+5 0.935320 0.490880 0.001830 1.426772
O8    O     O_R   0.324180 0.593490 0.912410 -0.541223
C3    C     C_R   0.153655 0.620672 0.888026 0.706108
O9    O     O_R   0.329720 0.565590 0.055660 -0.541408
C4    C     C_R   0.162960 0.576689 0.078448 0.731917
V2    V     V_3+5 0.435990 0.509120 0.998170 1.420677
O10   O     O_3   0.158850 0.450840 0.009870 -0.370433
C5    C     C_3   0.084267 0.696056 0.319117 0.163619
C6    C     C_3   0.268170 0.686378 0.280500 -0.207939
H1    H     H_    0.378791 0.639529 0.302108 0.148187
C7    C     C_1   0.158033 0.620470 0.125372 -0.200290
C8    C     C_1   0.108337 0.874361 0.378312 -0.182870
C9    C     C_3   0.965499 0.711183 0.251453 0.217642
C10   C     C_3   0.145442 0.701847 0.212634 0.046413
C11   C     C_3   0.999023 0.801893 0.228353 -0.221305
C12   C     C_3   0.121495 0.786449 0.296182 0.078704
C13   C     C_3   0.182441 0.792085 0.190079 0.165082
C14   C     C_3   0.303238 0.777487 0.257505 0.151186
C15   C     C_1   0.153202 0.656806 0.164930 -0.036882
C16   C     C_1   0.113153 0.834452 0.341618 -0.019870
H2    H     H_    0.894366 0.850291 0.204980 0.134242
C17   C     C_R   0.025052 0.787795 0.872593 0.118954
C18   C     C_R   0.957642 0.864027 0.861861 -0.197646
C19   C     C_R   0.983883 0.926172 0.798725 0.213695
C20   C     C_R   0.074806 0.912460 0.743641 0.126552
C21   C     C_R   0.096882 0.832071 0.746204 -0.035868
C22   C     C_R   0.086927 0.768264 0.813693 0.024285
C23   C     C_R   0.124266 0.814709 0.683661 -0.135915
C24   C     C_R   0.159842 0.734139 0.688842 0.047637
C25   C     C_R   0.177438 0.673343 0.757248 -0.002493
C26   C     C_R   0.141117 0.689399 0.819152 -0.130483
C27   C     C_R   0.178700 0.709939 0.629038 0.111655
C28   C     C_R   0.225377 0.631164 0.638659 -0.091108
C29   C     C_R   0.250106 0.574009 0.705015 0.165799
C30   C     C_R   0.224708 0.594650 0.763285 -0.161013
H3    H     H_    0.895898 0.877363 0.904741 0.126004
H4    H     H_    0.242495 0.613622 0.593652 0.116433
H5    H     H_    0.240529 0.546757 0.813647 0.132494
C31   C     C_R   0.683509 0.091663 0.264598 -0.155811
C32   C     C_R   0.714655 0.070317 0.207135 0.207241
C33   C     C_R   0.705041 0.127904 0.140341 -0.125505
C34   C     C_R   0.672384 0.207899 0.129931 0.118610
C35   C     C_R   0.658430 0.233006 0.189381 0.027223
C36   C     C_R   0.655424 0.172040 0.257879 -0.008447
C37   C     C_R   0.646986 0.314705 0.183515 -0.148171
C38   C     C_R   0.625709 0.334182 0.245309 0.033385
C39   C     C_R   0.606491 0.271983 0.313596 -0.023620
C40   C     C_R   0.622815 0.190066 0.319132 -0.124917
C41   C     C_R   0.623333 0.415467 0.240960 0.140220
C42   C     C_R   0.568594 0.434206 0.297944 -0.216412
C43   C     C_R   0.540009 0.376072 0.363222 0.211878
C44   C     C_R   0.576219 0.295449 0.373494 0.134829
H6    H     H_    0.683471 0.043011 0.314813 0.138266
H7    H     H_    0.722881 0.109747 0.095720 0.114167
H8    H     H_    0.555974 0.496390 0.291325 0.130075
O11   O     O_R   0.770540 0.084530 0.414050 -0.539387
O12   O     O_R   0.445710 0.065660 0.555720 -0.544251
O13   O     O_R   0.270420 0.915650 0.586190 -0.541153
C45   C     C_R   0.614801 0.077238 0.578440 0.725763
O14   O     O_R   0.441140 0.093540 0.412470 -0.536561
O15   O     O_R   0.265820 0.943740 0.441930 -0.534428
C46   C     C_R   0.610472 0.120476 0.387701 0.711088
O16   O     O_R   0.775150 0.056440 0.558310 -0.537793
O17   O     O_3   0.602370 0.950960 0.510050 -0.366171
V3    V     V_3+5 0.329450 0.009140 0.498150 1.400143
O18   O     O_R   0.935790 0.934280 0.444060 -0.538501
C47   C     C_R   0.102858 0.921975 0.422230 0.730138
O19   O     O_R   0.940370 0.906390 0.587310 -0.539101
C48   C     C_R   0.110422 0.881541 0.613874 0.729729
V4    V     V_3+5 0.828810 0.990710 0.501460 1.413496
O20   O     O_3   0.105780 0.049100 0.489960 -0.370603
C49   C     C_3   0.753382 0.311099 0.725518 -0.177443
C50   C     C_3   0.573409 0.295170 0.686346 -0.171383
H9    H     H_    0.525340 0.333277 0.632630 0.124750
H10   H     H_    0.852985 0.362657 0.704425 0.126905
H11   H     H_    0.305702 0.297241 0.757004 0.124192
C51   C     C_1   0.624439 0.122460 0.624373 -0.173510
C52   C     C_1   0.639369 0.376262 0.877123 -0.184723
C53   C     C_3   0.811265 0.222164 0.748217 -0.167896
C54   C     C_3   0.631056 0.206816 0.709600 0.125589
C55   C     C_3   0.690573 0.203083 0.815504 0.205849
C56   C     C_3   0.633393 0.290913 0.792899 0.128513
C57   C     C_3   0.512413 0.187360 0.776788 0.195485
C58   C     C_3   0.453285 0.275614 0.754303 -0.175639
C59   C     C_1   0.628701 0.160370 0.662805 -0.024923
C60   C     C_1   0.635516 0.337721 0.839276 -0.048148
H12   H     H_    0.958394 0.200156 0.745797 0.131910
N1    N     N_3   0.926764 0.004892 0.791691 -0.682615
H13   H     H_    0.778755 0.003982 0.800474 0.228858
H14   H     H_    0.997003 0.019679 0.830919 0.227048
C61   C     C_3   0.176012 0.983334 0.690766 -0.665648
H15   H     H_    0.204131 0.031339 0.711414 0.208109
H16   H     H_    0.321188 0.965650 0.680355 0.189741
H17   H     H_    0.088403 0.009763 0.642196 0.218951
C62   C     C_3   0.147851 0.763148 0.553702 -0.783039
H18   H     H_    0.003005 0.790157 0.546651 0.208251
H19   H     H_    0.265959 0.807360 0.537955 0.220195
H20   H     H_    0.152318 0.730687 0.516809 0.192396
C63   C     C_3   0.476690 0.403060 0.421535 -0.795704
H21   H     H_    0.428793 0.466050 0.401004 0.202906
H22   H     H_    0.352792 0.366400 0.449650 0.215356
H23   H     H_    0.597873 0.398455 0.458841 0.207208
N2    N     N_3   0.751527 0.988709 0.217744 -0.691453
H24   H     H_    0.762057 0.981427 0.169442 0.218296
H25   H     H_    0.886053 0.974411 0.242544 0.232241
C64   C     C_3   0.650214 0.261369 0.054186 -0.793863
H26   H     H_    0.640397 0.228028 0.017992 0.197222
H27   H     H_    0.514313 0.295253 0.046158 0.204557
H28   H     H_    0.779524 0.299558 0.038447 0.213818
C65   C     C_3   0.025006 0.641153 0.392178 -0.772415
H29   H     H_    0.007057 0.579584 0.393152 0.209906
H30   H     H_    0.137666 0.641907 0.431030 0.200038
H31   H     H_    0.886817 0.661623 0.406100 0.221000
N3    N     N_3   0.683411 0.480960 0.179871 -0.643544
H32   H     H_    0.801915 0.508549 0.193817 0.220749
H33   H     H_    0.571879 0.522371 0.164006 0.231956
C66   C     C_3   0.588081 0.237819 0.448468 -0.768406
H34   H     H_    0.596596 0.265853 0.488328 0.202036
H35   H     H_    0.456843 0.200384 0.460322 0.218686
H36   H     H_    0.723571 0.203703 0.456885 0.195888
C67   C     C_3   0.373943 0.117669 0.806223 -0.820420
H37   H     H_    0.311969 0.117810 0.855928 0.215324
H38   H     H_    0.256101 0.123452 0.767599 0.214358
H39   H     H_    0.450899 0.060928 0.816514 0.214121
C68   C     C_3   0.757305 0.150850 0.888971 -0.816553
H40   H     H_    0.785401 0.089812 0.890640 0.210220
H41   H     H_    0.891406 0.175960 0.902941 0.212187
H42   H     H_    0.644058 0.148344 0.927474 0.211118
C69   C     C_3   0.494592 0.817469 0.259643 -0.714096
H43   H     H_    0.584773 0.813429 0.217013 0.221532
H44   H     H_    0.470116 0.880957 0.250903 0.231142
H45   H     H_    0.566828 0.787845 0.311341 0.222795
C70   C     C_3   0.239048 0.847075 0.116639 -0.788478
H46   H     H_    0.258242 0.908596 0.115654 0.213870
H47   H     H_    0.375984 0.826576 0.101823 0.212994
H48   H     H_    0.124437 0.846456 0.078397 0.206073
N4    N     N_3   0.780039 0.673752 0.249083 -0.675595
H49   H     H_    0.802477 0.612430 0.266147 0.224169
H50   H     H_    0.736503 0.692262 0.196389 0.225196
C71   C     C_3   0.300664 0.489912 0.714489 -0.804908
H51   H     H_    0.311177 0.481676 0.663359 0.204931
H52   H     H_    0.441715 0.474639 0.742068 0.220959
H53   H     H_    0.188905 0.448402 0.746309 0.207348
C72   C     C_3   0.027648 0.732267 0.948108 -0.748368
H54   H     H_    0.173847 0.707403 0.962499 0.185492
H55   H     H_    0.997251 0.762921 0.985154 0.186493
H56   H     H_    0.913542 0.686679 0.956700 0.232214

loop_
_geom_bond_atom_site_label_1
_geom_bond_atom_site_label_2
_ccdc_geom_bond_type
O12   C45   A    
C38   C39   A    
C53   H12   S    
C27   C28   A    
C66   H34   S    
O11   V4    S    
C45   C51   S    
C18   H3    S    
C57   C67   S    
C21   C22   A    
C1    O6    A    
C68   H42   S    
C62   H19   S    
C49   C50   S    
N3    H32   S    
O19   C48   A    
C39   C40   A    
C8    C47   S    
C13   C14   S    
C50   C54   S    
C9    C11   S    
C57   C58   S    
C21   C23   A    
C11   C13   S    
C6    H1    S    
O16   V4    S    
C71   H52   S    
O5    C3    A    
C24   C25   A    
C55   C68   S    
N3    H33   S    
V2    O10   S    
O12   V3    S    
C63   H21   S    
C20   C21   A    
C28   H4    S    
C10   C13   S    
C54   C59   S    
O14   C46   A    
N2    H24   S    
C51   C59   T    
C17   C72   S    
H11   C58   S    
C2    C52   S    
C9    N4    S    
C63   H22   S    
C64   H27   S    
C52   C60   T    
O15   V3    S    
C20   C61   S    
C44   C66   S    
O1    V2    S    
C72   H55   S    
O7    V1    S    
C29   C71   S    
C30   H5    S    
O19   V4    S    
C42   C43   A    
C50   C58   S    
V3    O20   S    
O9    C4    A    
C33   H7    S    
C70   H48   S    
O13   C48   A    
O8    V2    S    
N2    H25   S    
C62   H18   S    
N1    H14   S    
C35   C37   A    
N1    H13   S    
N4    H50   S    
C65   H30   S    
O17   V3    S    
C12   C16   S    
C31   C36   A    
C14   C69   S    
C34   C35   A    
C4    C7    S    
C22   C26   A    
C11   C12   S    
C24   C27   A    
C71   H53   S    
C25   C26   A    
O4    C2    A    
C36   C40   A    
C68   H41   S    
C7    C15   T    
C66   H36   S    
C33   C34   A    
C41   C42   A    
O11   C46   A    
C8    C16   T    
C61   H17   S    
C34   C64   S    
C6    C10   S    
C43   C44   A    
C54   C57   S    
C3    C26   S    
O2    C1    A    
O18   C47   A    
C23   C24   A    
C56   C58   S    
C31   H6    S    
C17   C18   A    
C45   O16   A    
C64   H28   S    
C61   H16   S    
C5    C6    S    
C41   N3    S    
O14   V3    S    
O13   V3    S    
C10   C15   S    
C40   C46   S    
C72   H56   S    
C68   H40   S    
O3    C4    A    
C69   H44   S    
C32   N2    S    
C31   C32   A    
C53   C55   S    
C50   H9    S    
O6    V2    S    
O9    V2    S    
C29   C30   A    
O15   C47   A    
C70   H47   S    
C67   H39   S    
C28   C29   A    
O2    V1    S    
C49   H10   S    
C35   C36   A    
N4    H49   S    
C65   H31   S    
C37   C38   A    
C66   H35   S    
C1    C37   S    
C39   C44   A    
C9    C10   S    
C6    C14   S    
O17   V4    S    
C69   H45   S    
C43   C63   S    
O5    V1    S    
C65   H29   S    
C63   H23   S    
C25   C30   A    
C12   C14   S    
C23   C48   S    
C5    C9    S    
C27   C62   S    
C67   H38   S    
C5    C12   S    
C18   C19   A    
C67   H37   S    
O7    V2    S    
O4    V1    S    
O3    V1    S    
V1    O10   S    
C71   H51   S    
C55   C56   S    
C61   H15   S    
C55   C57   S    
C19   C20   A    
C19   N1    S    
C11   H2    S    
C49   C53   S    
C69   H43   S    
C5    C65   S    
C56   C60   S    
V4    O20   S    
C49   C56   S    
C42   H8    S    
C53   C54   S    
C32   C33   A    
C38   C41   A    
C70   H46   S    
C17   C22   A    
O1    C2    A    
C72   H54   S    
C13   C70   S    
O18   V4    S    
C62   H20   S    
C64   H26   S    
O8    C3    A    
