data_mof_unit_48709.cif
_audit_creation_date              2012-12-11T17:01:28-0500
_audit_creation_method            fapswitch 2.2
_symmetry_space_group_name_H-M    P1
_symmetry_Int_Tables_number       1
_space_group_crystal_system       triclinic
_cell_length_a                    15.041184
_cell_length_b                    14.863203
_cell_length_c                    14.83465
_cell_angle_alpha                 109.538918
_cell_angle_beta                  109.351027
_cell_angle_gamma                 109.549966
_cell_volume                      2552.15965142

loop_
_atom_site_label
_atom_site_type_symbol
_atom_type_description
_atom_site_fract_x
_atom_site_fract_y
_atom_site_fract_z
_atom_type_partial_charge
C1    C     C_R   0.929901 0.744454 0.023163 -0.150844
C2    C     C_R   0.209424 0.806554 0.299359 -0.118906
C3    C     C_R   0.974969 0.407147 0.221598 -0.151016
C4    C     C_R   0.780831 0.254483 0.685666 -0.166966
C5    C     C_R   0.314941 0.593320 0.064190 -0.228196
C6    C     C_R   0.045710 0.497770 0.326793 0.009533
C7    C     C_R   0.327705 0.501707 0.044211 -0.071203
C8    C     C_R   0.301950 0.869087 0.300123 0.143272
C9    C     C_R   0.929553 0.130115 0.933025 0.049441
C10   C     C_3   0.542759 0.412601 0.100317 -0.117435
C11   C     C_3   0.442572 0.420411 0.099221 -0.428852
C12   C     C_R   0.678028 0.225328 0.671780 0.084141
C13   C     C_3   0.636931 0.617743 0.166476 -0.388176
C14   C     C_3   0.536059 0.479888 0.963430 -0.439920
C15   C     C_3   0.608604 0.502697 0.079889 0.327510
C16   C     C_R   0.098730 0.588112 0.791117 -0.106483
C17   C     C_3   0.431111 0.504224 0.062727 0.395774
C18   C     C_3   0.532044 0.619588 0.153639 -0.422131
C19   C     C_3   0.430486 0.475791 0.951868 -0.388282
C20   C     C_R   0.579657 0.112658 0.468364 -0.049757
C21   C     C_R   0.579300 0.167487 0.565245 0.050356
C22   C     C_R   0.478541 0.148542 0.558254 -0.349343
C23   C     C_R   0.069661 0.495021 0.698595 0.064141
C24   C     C_R   0.380707 0.056956 0.463608 0.510294
C25   C     C_R   0.387143 0.984340 0.378539 0.012411
C26   C     C_R   0.485586 0.020586 0.378129 -0.083708
C27   C     C_3   0.543712 0.960729 0.348904 0.235707
C28   C     C_R   0.705265 0.408945 0.012056 0.045240
C29   C     C_3   0.647627 0.062279 0.447070 0.254679
C30   C     C_R   0.048315 0.391341 0.425343 0.146475
C31   C     C_R   0.091600 0.491589 0.427131 0.055004
C32   C     C_R   0.170867 0.586660 0.530609 -0.180144
C33   C     C_R   0.177308 0.586042 0.626803 -0.180264
C34   C     C_R   0.705996 0.500733 0.078762 -0.032470
C35   C     C_R   0.107103 0.489170 0.618600 0.025256
C36   C     C_R   0.057331 0.389604 0.520332 0.058362
C37   C     C_3   0.947022 0.288513 0.457556 -0.153547
C38   C     C_3   0.937167 0.291311 0.353987 -0.579092
C39   C     C_R   0.847992 0.880123 0.956847 0.094563
C40   C     C_R   0.006974 0.406275 0.701959 -0.173257
C41   C     C_R   0.898422 0.833685 0.907790 0.045334
C42   C     C_R   0.911206 0.855826 0.826344 -0.184540
C43   C     C_R   0.907405 0.947336 0.822211 -0.165204
C44   C     C_R   0.886791 0.012989 0.896818 -0.037173
C45   C     C_R   0.057288 0.590681 0.316728 0.073745
C46   C     C_R   0.840906 0.968025 0.950368 0.187676
C47   C     C_3   0.857890 0.019807 0.064838 0.307112
C48   C     C_3   0.866702 0.923959 0.072208 -0.632244
C49   C     C_R   0.795006 0.591476 0.102165 -0.178535
C50   C     C_R   0.686157 0.250587 0.774540 -0.109441
C51   C     C_R   0.029794 0.756793 0.940260 0.071044
C52   C     C_R   0.949045 0.777958 0.951782 0.022598
C53   C     C_1   0.610744 0.420250 0.203830 0.071003
C54   C     C_1   0.953872 0.192349 0.458850 0.183765
C55   C     C_1   0.652568 0.299855 0.996093 -0.016827
C56   C     C_R   0.225081 0.408962 0.967778 0.481120
C57   C     C_1   0.097469 0.805894 0.901523 -0.000840
C58   C     C_1   0.090992 0.696514 0.403628 0.000671
C59   C     C_R   0.297683 0.803935 0.206058 -0.053009
C60   C     C_R   0.902599 0.195975 0.994609 -0.179272
C61   C     C_R   0.992471 0.192458 0.903045 -0.051629
H1    H     H_    0.870435 0.744793 0.048096 0.125293
H2    H     H_    0.805214 0.250966 0.624646 0.155615
H3    H     H_    0.449355 0.446905 0.182065 0.161832
H4    H     H_    0.688261 0.637100 0.251641 0.168077
H5    H     H_    0.533122 0.643908 0.233715 0.168915
H6    H     H_    0.579685 0.545608 0.948663 0.179060
H7    H     H_    0.516420 0.400029 0.898097 0.159339
H8    H     H_    0.362025 0.391991 0.885113 0.203893
H9    H     H_    0.419840 0.535025 0.925262 0.159181
H10   H     H_    0.683064 0.684376 0.154460 0.155542
H11   H     H_    0.530130 0.683361 0.131007 0.159201
H12   H     H_    0.344730 0.831341 0.169619 0.078813
H13   H     H_    0.476104 0.197209 0.629442 0.130276
H14   H     H_    0.164609 0.669598 0.825216 0.104281
H15   H     H_    0.537312 0.942257 0.267039 0.067320
H16   H     H_    0.689905 0.047595 0.513219 0.130137
H17   H     H_    0.218419 0.663991 0.537478 0.147080
H18   H     H_    0.226407 0.663711 0.703674 0.132929
H19   H     H_    0.886371 0.302013 0.478276 0.176806
H20   H     H_    0.936289 0.221325 0.294155 0.186519
H21   H     H_    0.872405 0.309410 0.317509 0.205758
H22   H     H_    0.936340 0.811921 0.775283 0.145039
H23   H     H_    0.838285 0.169027 0.013268 0.157424
H24   H     H_    0.933008 0.972965 0.770680 0.133646
H25   H     H_    0.933701 0.101268 0.124504 0.053920
H26   H     H_    0.949772 0.949785 0.134321 0.186842
H27   H     H_    0.799011 0.869587 0.077353 0.218069
H28   H     H_    0.988514 0.322547 0.657030 0.107749
H29   H     H_    0.827882 0.676822 0.160691 0.108360
H30   H     H_    0.621196 0.239550 0.793296 0.107500
H31   H     H_    0.139589 0.272618 0.831840 0.299888
H32   H     H_    0.292437 0.092673 0.523788 0.319389
H33   H     H_    0.560788 0.836782 0.344131 0.311166
H34   H     H_    0.009394 0.159054 0.838436 0.103324
H35   H     H_    0.677653 0.135250 0.363236 0.319482
H36   H     H_    0.778597 0.046249 0.139781 0.326245
H37   H     H_    0.177476 0.837714 0.349378 0.178520
H38   H     H_    0.949406 0.321976 0.196950 0.125555
H39   H     H_    0.376881 0.679313 0.114502 0.140912
H40   H     H_    0.510203 0.329477 0.031671 0.129821
H41   H     H_    0.369626 0.336906 0.042970 0.212074
N1    N     N_R   0.995640 0.706130 0.053910 -0.050537
N2    N     N_R   0.054010 0.556790 0.847890 -0.042965
N3    N     N_R   0.789940 0.443190 0.997130 -0.053977
N4    N     N_R   0.997630 0.443170 0.791110 -0.042194
N5    N     N_R   0.846320 0.556810 0.053910 -0.044163
N6    N     N_R   0.791080 0.293860 0.847890 -0.040028
N7    N     N_R   0.052880 0.706130 0.997130 -0.064993
N8    N     N_R   0.002370 0.556830 0.208890 -0.059821
N9    N     N_1   0.664162 0.426232 0.284867 -0.084487
N10   N     N_1   0.959154 0.116757 0.459873 -0.089856
N11   N     N_1   0.610842 0.212050 0.983244 -0.070702
N12   N     N_R   0.153680 0.443190 0.946090 -0.096639
N13   N     N_1   0.151947 0.846954 0.871175 -0.088554
N14   N     N_1   0.117141 0.780814 0.474181 -0.072702
N15   N     N_R   0.208920 0.706140 0.152110 -0.049565
N16   N     N_R   0.947120 0.293870 0.002870 -0.043106
N17   N     N_R   0.004360 0.293870 0.946090 -0.051751
N18   N     N_R   0.151690 0.706140 0.208890 -0.059401
N19   N     N_R   0.945990 0.443210 0.152110 -0.047610
N20   N     N_R   0.210060 0.556810 0.002870 -0.059246
N21   N     N_R   0.848310 0.293860 0.791110 -0.046058
Ni1   Ni    Ni4+2 0.999010 0.630300 0.130220 0.217913
Ni2   Ni    Ni4+2 0.000990 0.369700 0.869780 0.199145
Ni3   Ni    Ni4+2 0.130280 0.630280 0.000000 0.206168
Ni4   Ni    Ni4+2 0.869720 0.369720 0.000000 0.231102
O1    O     O_3   0.204308 0.304933 0.904266 -0.806629
O2    O     O_3   0.281321 0.033697 0.457302 -0.787292
O3    O     O_3   0.518868 0.870137 0.365812 -0.750270
O4    O     O_3   0.717657 0.117174 0.416204 -0.791411
O5    O     O_3   0.763480 0.018350 0.062520 -0.738682

loop_
_geom_bond_atom_site_label_1
_geom_bond_atom_site_label_2
_ccdc_geom_bond_type
C50   N6    A    
C6    C45   A    
C27   C29   S    
C16   H14   S    
C41   C42   A    
C35   C36   A    
C49   H29   S    
C3    C6    A    
C1    H1    S    
N2    N4    A    
C57   N13   T    
C13   H4    S    
N3    N5    A    
N4    Ni2   S    
C26   C27   S    
H33   O3    S    
C13   C18   S    
C9    C61   A    
C7    C56   A    
C36   C37   S    
N19   Ni4   S    
C10   C15   S    
C8    C59   A    
C30   C31   A    
N21   Ni2   S    
C61   N17   A    
C23   C40   A    
C30   C38   S    
C10   C53   S    
N16   N17   A    
N8    Ni1   S    
C24   O2    S    
C16   N2    A    
C47   C48   S    
C7    C17   S    
C14   H6    S    
C48   H27   S    
C60   N16   A    
C51   C57   S    
C40   H28   S    
C4    C12   A    
N15   Ni3   S    
C1    N1    A    
C15   C34   S    
C53   N9    T    
C6    C31   S    
C28   C34   A    
C51   N7    A    
C21   C22   A    
C38   H21   S    
C58   N14   T    
C8    C25   S    
N2    Ni3   S    
N5    Ni1   S    
H32   O2    S    
N1    Ni1   S    
H31   O1    S    
C28   C55   S    
C44   C46   A    
C20   C29   S    
C18   H11   S    
C37   H19   S    
C45   C58   S    
N3    Ni4   S    
C51   C52   A    
C43   H24   S    
C47   H25   S    
C24   C25   A    
C39   C41   A    
C11   H3    S    
N15   N18   A    
C5    C7    A    
N12   Ni2   S    
C2    N18   A    
C45   N8    A    
C33   H18   S    
C55   N11   T    
C25   C26   A    
C49   N5    A    
C5    N20   A    
C4    N21   A    
N20   Ni3   S    
C43   C44   A    
C37   C38   S    
N7    Ni3   S    
C31   C32   A    
C4    H2    S    
C5    H39   S    
C28   N3    A    
C17   C18   S    
C48   H26   S    
C54   N10   T    
C9    C44   S    
H35   O4    S    
C37   C54   S    
N17   Ni2   S    
C16   C23   A    
C23   C35   S    
C39   C46   A    
C38   H20   S    
C22   C24   A    
C19   H8    S    
C42   C43   A    
C22   H13   S    
N6    N21   A    
C17   C19   S    
C27   H15   S    
C40   N4    A    
C59   H12   S    
C46   C47   S    
C11   C17   S    
C34   C49   A    
C56   N12   A    
C41   C52   S    
C14   C19   S    
C10   H40   S    
C2    C8    A    
C42   H22   S    
H36   O5    S    
C12   C50   A    
C61   H34   S    
C18   H5    S    
C13   H10   S    
C30   C36   A    
C47   O5    S    
N1    N7    A    
C9    C60   A    
C32   C33   A    
C13   C15   S    
N8    N19   A    
C60   H23   S    
C29   O4    S    
C20   C26   A    
C12   C21   S    
C33   C35   A    
C11   H41   S    
C3    N19   A    
C56   O1    S    
N6    Ni4   S    
C1    C52   A    
C10   C11   S    
C32   H17   S    
N12   N20   A    
C3    H38   S    
C50   H30   S    
C29   H16   S    
C20   C21   A    
C2    H37   S    
C59   N15   A    
N16   Ni4   S    
C27   O3    S    
C14   H7    S    
C14   C15   S    
C19   H9    S    
N18   Ni1   S    
C39   C48   S    
