data_mof_unit_61467.cif
_audit_creation_date              2012-10-26T21:26:54-0400
_audit_creation_method            fapswitch 2.2
_symmetry_space_group_name_H-M    P1
_symmetry_Int_Tables_number       1
_space_group_crystal_system       triclinic
_cell_length_a                    16.564248
_cell_length_b                    16.567944
_cell_length_c                    28.785288
_cell_angle_alpha                 90.008108
_cell_angle_beta                  89.974647
_cell_angle_gamma                 89.900232
_cell_volume                      7899.69303298

loop_
_atom_site_label
_atom_site_type_symbol
_atom_type_description
_atom_site_fract_x
_atom_site_fract_y
_atom_site_fract_z
_atom_type_partial_charge
Br1   Br    Br    0.129394 0.258006 0.218022 -0.303776
Br2   Br    Br    0.869566 0.104609 0.119359 -0.294395
Br3   Br    Br    0.897259 0.871142 0.381592 -0.297731
Br4   Br    Br    0.260681 0.126439 0.719410 -0.298984
Br5   Br    Br    0.876198 0.263444 0.779471 -0.298275
Br6   Br    Br    0.917274 0.717362 0.233001 -0.295305
Br7   Br    Br    0.102611 0.128005 0.381497 -0.304160
Br8   Br    Br    0.739207 0.873767 0.719434 -0.297191
Br9   Br    Br    0.864065 0.891911 0.877615 -0.292751
Br10  Br    Br    0.897260 0.127743 0.618068 -0.303382
Br11  Br    Br    0.261131 0.872877 0.280840 -0.308065
Br12  Br    Br    0.083430 0.920453 0.101887 -0.311506
Br13  Br    Br    0.125456 0.100893 0.882763 -0.296633
Br14  Br    Br    0.102471 0.872657 0.617999 -0.304871
Br15  Br    Br    0.739418 0.126187 0.280639 -0.304476
Br16  Br    Br    0.134747 0.745584 0.784697 -0.300994
C1    C     C_1   0.000703 0.128520 0.194299 0.132275
C2    C     C_3   0.999906 0.000362 0.749992 -0.035598
C3    C     C_R   0.999653 0.194808 0.161728 0.014307
C4    C     C_R   0.999734 0.805406 0.838296 0.014902
C5    C     C_R   0.804887 0.000429 0.661725 0.013779
C6    C     C_R   0.195200 0.000160 0.338186 0.014590
C7    C     C_R   0.000527 0.805480 0.160711 0.013264
C8    C     C_R   0.000408 0.195444 0.838190 0.013349
C9    C     C_R   0.194947 0.999848 0.661678 0.014193
C10   C     C_R   0.805026 0.999029 0.338144 0.012479
C11   C     C_R   0.999814 0.612308 0.939051 0.583832
C12   C     C_1   0.000895 0.871697 0.805750 0.130103
C13   C     C_R   0.999948 0.387857 0.061014 0.591518
C14   C     C_R   0.387896 0.000143 0.439003 0.605967
C15   C     C_R   0.612139 0.000071 0.560970 0.605909
C16   C     C_R   0.000167 0.387894 0.939035 0.604235
C17   C     C_R   0.000037 0.612134 0.060809 0.576120
C18   C     C_R   0.612160 0.999836 0.439011 0.605835
C19   C     C_R   0.387851 0.999938 0.560969 0.605832
C20   C     C_R   0.055865 0.257731 0.165823 0.144110
C21   C     C_R   0.940711 0.803793 0.873267 0.147451
C22   C     C_R   0.806023 0.055737 0.624798 0.141084
C23   C     C_1   0.871058 0.999428 0.694361 0.130005
C24   C     C_R   0.259352 0.945222 0.333579 0.148023
C25   C     C_R   0.034780 0.817387 0.116598 0.144114
C26   C     C_R   0.054904 0.193363 0.875507 0.141811
C27   C     C_R   0.193807 0.944517 0.624756 0.141116
C28   C     C_R   0.741018 0.054128 0.333500 0.146750
C29   C     C_R   0.057757 0.743800 0.835244 0.147616
C30   C     C_R   0.943182 0.194685 0.125394 0.143927
C31   C     C_R   0.806081 0.943560 0.375000 0.140048
C32   C     C_R   0.259025 0.054599 0.666441 0.147826
C33   C     C_R   0.946654 0.260455 0.833016 0.147848
C34   C     C_1   0.129005 0.998907 0.305553 0.130166
C35   C     C_R   0.966510 0.730673 0.172557 0.146593
C36   C     C_R   0.193989 0.055816 0.374958 0.141274
C37   C     C_R   0.740879 0.945578 0.666463 0.147561
C38   C     C_R   0.056388 0.321228 0.133105 0.015827
C39   C     C_R   0.939441 0.740336 0.905913 0.037329
C40   C     C_R   0.742902 0.056445 0.591966 0.037508
C41   C     C_R   0.322964 0.945185 0.366212 0.028842
C42   C     C_R   0.035181 0.754218 0.083763 0.039582
C43   C     C_R   0.055785 0.256486 0.908339 0.037207
C44   C     C_R   0.257003 0.943693 0.591946 0.037527
C45   C     C_1   0.999866 0.871198 0.193685 0.129108
C46   C     C_R   0.677400 0.054508 0.366176 0.028110
C47   C     C_R   0.057680 0.680027 0.867752 0.031162
C48   C     C_R   0.942472 0.257885 0.092601 0.038335
C49   C     C_R   0.742927 0.942984 0.407860 0.036801
C50   C     C_R   0.322665 0.054766 0.633798 0.028177
C51   C     C_R   0.946562 0.324024 0.865686 0.028017
C52   C     C_R   0.966242 0.666881 0.140064 0.031925
C53   C     C_R   0.257131 0.056720 0.407788 0.037463
C54   C     C_R   0.677309 0.945298 0.633799 0.027947
C55   C     C_R   0.999614 0.321571 0.096037 -0.083953
C56   C     C_1   0.999168 0.129274 0.805566 0.129349
C57   C     C_R   0.999068 0.678436 0.903878 -0.080763
C58   C     C_R   0.678286 0.000520 0.596004 -0.074421
C59   C     C_R   0.321856 0.000668 0.403891 -0.074370
C60   C     C_R   0.000335 0.678576 0.095302 -0.075778
C61   C     C_R   0.000783 0.321955 0.903923 -0.075067
C62   C     C_R   0.321679 0.999534 0.596002 -0.074398
C63   C     C_R   0.678328 0.999179 0.403923 -0.074602
C64   C     C_1   0.000783 0.071346 0.220223 0.070829
C65   C     C_1   0.000812 0.928761 0.779760 0.070676
C66   C     C_1   0.928161 0.999525 0.720328 0.070307
C67   C     C_1   0.128722 0.000976 0.694294 0.130442
C68   C     C_1   0.071936 0.998791 0.279549 0.070587
C69   C     C_1   0.999836 0.927964 0.219923 0.070332
C70   C     C_1   0.999113 0.072146 0.779619 0.070399
C71   C     C_1   0.071606 0.001014 0.720272 0.070954
C72   C     C_1   0.928437 0.000007 0.279513 0.068713
C73   C     C_2   0.115004 0.388115 0.138896 0.645701
C74   C     C_2   0.876276 0.740637 0.942518 0.663302
C75   C     C_2   0.746781 0.114130 0.552623 0.659847
C76   C     C_2   0.391866 0.889006 0.359548 0.646511
C77   C     C_2   0.070720 0.768872 0.037171 0.645989
C78   C     C_1   0.871290 0.999997 0.305500 0.127350
C79   C     C_2   0.112678 0.251828 0.948034 0.660390
C80   C     C_2   0.253138 0.885989 0.552605 0.659995
C81   C     C_2   0.608677 0.110874 0.359483 0.646970
C82   C     C_2   0.116827 0.613393 0.862218 0.649581
C83   C     C_2   0.883675 0.254795 0.053789 0.663751
C84   C     C_2   0.746758 0.885146 0.447134 0.659607
C85   C     C_2   0.391446 0.110806 0.640566 0.647077
C86   C     C_2   0.891874 0.393949 0.858487 0.646207
C87   C     C_2   0.933110 0.587393 0.154111 0.642878
C88   C     C_2   0.253155 0.114724 0.446988 0.659855
C89   C     C_3   0.000247 0.999488 0.249815 -0.035529
C90   C     C_2   0.608605 0.889154 0.640549 0.647104
Cu1   Cu    Cu3+1 0.919200 0.500000 0.000000 1.168903
Cu2   Cu    Cu3+1 0.080800 0.500000 0.000000 1.165391
Cu3   Cu    Cu3+1 0.500000 0.919200 0.500000 1.155927
Cu4   Cu    Cu3+1 0.500000 0.080800 0.500000 1.156026
H1    H     H_    0.231273 0.421664 0.146274 0.368296
H2    H     H_    0.865403 0.252954 0.984515 0.354664
H3    H     H_    0.748480 0.868471 0.516541 0.354466
H4    H     H_    0.428904 0.225517 0.649461 0.366851
H5    H     H_    0.778112 0.433777 0.848409 0.367247
H6    H     H_    0.937572 0.494151 0.199085 0.366446
H7    H     H_    0.251445 0.131710 0.516374 0.354495
H8    H     H_    0.571312 0.774384 0.649424 0.366935
H9    H     H_    0.849857 0.738410 0.010923 0.358271
H10   H     H_    0.748603 0.130549 0.483198 0.354407
H11   H     H_    0.429587 0.774178 0.350947 0.366184
H12   H     H_    0.155698 0.739520 0.989906 0.356878
H13   H     H_    0.127779 0.250037 0.017552 0.355402
H14   H     H_    0.251409 0.869529 0.483181 0.354699
H15   H     H_    0.571326 0.225782 0.350744 0.366930
H16   H     H_    0.233610 0.579962 0.857141 0.366396
O1    O     O_R   0.931980 0.584070 0.954320 -0.477071
O2    O     O_R   0.068020 0.584070 0.954320 -0.487588
O3    O     O_R   0.415930 0.068020 0.545680 -0.486665
O4    O     O_R   0.584070 0.931980 0.454320 -0.477563
O5    O     O_R   0.068020 0.584070 0.045680 -0.454312
O6    O     O_R   0.931980 0.415930 0.954320 -0.486192
O7    O     O_R   0.584070 0.931980 0.545680 -0.486638
O8    O     O_R   0.415930 0.068020 0.454320 -0.477226
O9    O     O_2   0.091277 0.458002 0.140138 -0.476238
O10   O     O_R   0.197447 0.371133 0.142567 -0.607149
O11   O     O_2   0.804949 0.742584 0.931631 -0.414308
O12   O     O_R   0.068020 0.415930 0.045680 -0.484652
O13   O     O_R   0.898235 0.738208 0.989342 -0.661658
O14   O     O_2   0.750682 0.186643 0.560190 -0.414972
O15   O     O_R   0.745852 0.085505 0.506978 -0.646207
O16   O     O_2   0.460815 0.915163 0.358071 -0.458820
O17   O     O_R   0.377884 0.806166 0.355237 -0.611876
O18   O     O_2   0.043086 0.822057 0.012359 -0.410828
O19   O     O_R   0.137242 0.723845 0.022257 -0.639192
O20   O     O_2   0.185280 0.246606 0.940912 -0.414537
O21   O     O_R   0.083216 0.253498 0.993499 -0.644349
O22   O     O_2   0.249147 0.813485 0.560175 -0.414747
O23   O     O_R   0.415930 0.931980 0.454320 -0.486627
O24   O     O_R   0.254170 0.914585 0.506959 -0.646176
O25   O     O_2   0.539643 0.084933 0.358076 -0.457599
O26   O     O_R   0.622926 0.193648 0.355049 -0.612634
O27   O     O_2   0.093254 0.543709 0.858933 -0.453289
O28   O     O_R   0.199434 0.630353 0.860959 -0.614465
O29   O     O_2   0.811297 0.252167 0.062011 -0.414732
O30   O     O_R   0.911119 0.254999 0.007889 -0.642080
O31   O     O_2   0.750669 0.812646 0.439482 -0.415368
O32   O     O_R   0.745769 0.913610 0.492814 -0.645985
O33   O     O_2   0.460455 0.084558 0.641934 -0.456886
O34   O     O_R   0.584070 0.068020 0.545680 -0.477412
O35   O     O_R   0.377274 0.193626 0.645114 -0.612796
O36   O     O_2   0.919296 0.462428 0.857655 -0.460267
O37   O     O_R   0.808995 0.381486 0.852950 -0.611984
O38   O     O_2   0.877416 0.557193 0.132415 -0.464048
O39   O     O_R   0.964902 0.547799 0.192901 -0.583591
O40   O     O_2   0.249021 0.187177 0.439242 -0.414699
O41   O     O_R   0.254264 0.086471 0.492706 -0.646081
O42   O     O_2   0.539552 0.915293 0.641916 -0.456616
O43   O     O_R   0.622899 0.806356 0.645087 -0.612860
O44   O     O_R   0.068020 0.415930 0.954320 -0.477029
O45   O     O_R   0.931980 0.584070 0.045680 -0.467543
O46   O     O_R   0.584070 0.068020 0.454320 -0.486497
O47   O     O_R   0.415930 0.931980 0.545680 -0.477339
O48   O     O_R   0.931980 0.415930 0.045680 -0.475828

loop_
_geom_bond_atom_site_label_1
_geom_bond_atom_site_label_2
_ccdc_geom_bond_type
C10   C78   S    
C67   C71   T    
C82   O28   S    
C49   C63   A    
C41   C76   S    
Cu2   O44   S    
C8    C26   A    
H11   O17   S    
C51   C61   A    
C52   C87   S    
C13   O48   A    
C15   O7    A    
C9    C27   A    
C74   O13   S    
C3    C30   A    
C10   C28   A    
Cu1   O45   S    
Br2   C30   S    
C13   O12   A    
C44   C62   A    
C87   O38   D    
C2    C70   S    
C73   O9    D    
C42   C77   S    
Br7   C36   S    
C39   C74   S    
C3    C20   A    
Cu3   O47   S    
H1    O10   S    
H12   O19   S    
C2    C65   S    
Cu4   O3    S    
C48   C55   A    
C76   O17   S    
Cu2   O5    S    
C16   O44   A    
C36   C53   A    
C1    C3    S    
C16   C61   S    
C11   O1    A    
C84   O31   D    
C40   C75   S    
C5    C22   A    
C86   O37   S    
C14   O8    A    
C83   O29   D    
C54   C58   A    
Cu1   Cu2   S    
C77   O19   S    
Br6   C35   S    
C76   O16   D    
C19   O3    A    
C15   O34   A    
C6    C34   S    
C17   O5    A    
C82   O27   D    
C80   O24   S    
C73   O10   S    
C50   C85   S    
Br5   C33   S    
C79   O20   D    
C43   C79   S    
C69   C89   S    
C37   C54   A    
Br13  C26   S    
C51   C86   S    
C48   C83   S    
C50   C62   A    
C72   C78   T    
C40   C58   A    
C38   C55   A    
C34   C68   T    
C19   O47   A    
C46   C63   A    
C18   O46   A    
C79   O21   S    
C49   C84   S    
C38   C73   S    
C54   C90   S    
C14   O23   A    
C4    C12   S    
H8    O43   S    
C28   C46   A    
Cu3   O7    S    
C64   C89   S    
C29   C47   A    
C1    C64   T    
C80   O22   D    
C30   C48   A    
C39   C57   A    
Br8   C37   S    
Cu3   O23   S    
Br12  C25   S    
H15   O26   S    
C18   C63   S    
C5    C37   A    
C46   C81   S    
C11   O2    A    
C17   C60   S    
C7    C35   A    
C5    C23   S    
C86   O36   D    
C6    C24   A    
C83   O30   S    
Br9   C21   S    
C68   C89   S    
C81   O25   D    
C22   C40   A    
Cu2   O2    S    
C9    C32   A    
C18   O4    A    
C77   O18   D    
C45   C69   T    
C27   C44   A    
C10   C31   A    
H13   O21   S    
C87   O39   S    
H3    O32   S    
C90   O43   S    
C72   C89   S    
H6    O39   S    
Cu4   O8    S    
C52   C60   A    
C17   O45   A    
H16   O28   S    
C25   C42   A    
C16   O6    A    
C74   O11   D    
Cu4   O34   S    
C8    C56   S    
C6    C36   A    
Br4   C32   S    
C53   C88   S    
C8    C33   A    
H14   O24   S    
C24   C41   A    
C33   C51   A    
C12   C65   T    
C42   C60   A    
H10   O15   S    
C4    C29   A    
C23   C66   T    
C13   C55   S    
Cu1   O6    S    
H4    O35   S    
Br16  C29   S    
Br15  C28   S    
C56   C70   T    
Cu1   O48   S    
C47   C82   S    
C47   C57   A    
C19   C62   S    
C2    C71   S    
C7    C25   A    
Br10  C22   S    
H9    O13   S    
C43   C61   A    
C41   C59   A    
C85   O35   S    
Cu1   O1    S    
Cu3   Cu4   S    
C88   O41   S    
Cu2   O12   S    
C4    C21   A    
H7    O41   S    
Br3   C31   S    
C2    C66   S    
C81   O26   S    
C53   C59   A    
C35   C52   A    
H5    O37   S    
Br11  C24   S    
C15   C58   S    
C20   C38   A    
C88   O40   D    
C75   O14   D    
C21   C39   A    
C84   O32   S    
C7    C45   S    
C14   C59   S    
C85   O33   D    
H2    O30   S    
C26   C43   A    
Cu3   O4    S    
C9    C67   S    
C44   C80   S    
C32   C50   A    
C11   C57   S    
C31   C49   A    
Br1   C20   S    
C90   O42   D    
Br14  C27   S    
C75   O15   S    
Cu4   O46   S    
