data_mof_unit_6305.cif
_audit_creation_date              2012-12-10T17:35:51-0500
_audit_creation_method            fapswitch 2.2
_symmetry_space_group_name_H-M    P1
_symmetry_Int_Tables_number       1
_space_group_crystal_system       triclinic
_cell_length_a                    10.563456
_cell_length_b                    12.218053
_cell_length_c                    12.827828
_cell_angle_alpha                 92.437881
_cell_angle_beta                  93.439544
_cell_angle_gamma                 86.045815
_cell_volume                      1647.47929019

loop_
_atom_site_label
_atom_site_type_symbol
_atom_type_description
_atom_site_fract_x
_atom_site_fract_y
_atom_site_fract_z
_atom_type_partial_charge
C1    C     C_R   0.484480 0.520353 0.698906 0.889393
C2    C     C_R   0.618221 0.160484 0.584372 0.230983
C3    C     C_R   0.555243 0.856472 0.544253 0.229779
C4    C     C_R   0.435481 0.142980 0.467843 0.232215
C5    C     C_R   0.542442 0.975437 0.542512 -0.100429
C6    C     C_R   0.441594 0.025810 0.480430 -0.087154
C7    C     C_R   0.741063 0.499129 0.493033 0.913417
C8    C     C_R   0.258703 0.500844 0.506041 0.909653
C9    C     C_3   0.956171 0.504044 0.594430 0.142588
C10   C     C_3   0.043383 0.496791 0.403564 0.143061
C11   C     C_3   0.032397 0.592971 0.550651 0.161480
C12   C     C_R   0.514201 0.479554 0.300804 0.889663
C13   C     C_3   0.967145 0.407491 0.447075 0.158550
C14   C     C_3   0.123850 0.501308 0.507140 -0.140129
C15   C     C_3   0.875713 0.499029 0.490936 -0.142203
C16   C     C_3   0.048173 0.412216 0.550881 0.166336
C17   C     C_3   0.951189 0.588157 0.447203 0.163182
C18   C     C_R   0.538045 0.470031 0.189852 -0.215569
C19   C     C_R   0.457062 0.529242 0.809236 -0.218251
C20   C     C_R   0.418799 0.637537 0.967741 0.191925
C21   C     C_R   0.571704 0.360338 0.031401 0.194561
C22   C     C_R   0.415548 0.629937 0.858155 0.161823
C23   C     C_R   0.474516 0.434248 0.868328 0.123755
C24   C     C_R   0.576183 0.368502 0.140809 0.158209
C25   C     C_3   0.065484 0.697543 0.611781 -0.907449
C26   C     C_3   0.935553 0.305111 0.381457 -0.907207
C27   C     C_3   0.904304 0.509157 0.703078 -0.898914
C28   C     C_3   0.095594 0.493068 0.295088 -0.899209
C29   C     C_3   0.098448 0.315196 0.615521 -0.889998
C30   C     C_3   0.897647 0.686253 0.385494 -0.872752
C31   C     C_3   0.564935 0.674039 0.171899 -0.823561
C32   C     C_3   0.427679 0.325488 0.825168 -0.823036
C33   C     C_3   0.572723 0.177953 0.195127 -0.751292
C34   C     C_R   0.518800 0.564576 0.130191 0.124149
C35   C     C_3   0.406123 0.822970 0.807804 -0.766986
C36   C     C_3   0.340885 0.729541 0.021937 -0.885740
C37   C     C_3   0.646876 0.266405 0.977875 -0.896036
C38   C     C_3   0.338840 0.194334 0.389646 -0.794110
C39   C     C_3   0.655023 0.801074 0.617108 -0.769756
C40   C     C_3   0.722011 0.228869 0.633496 -0.846287
C41   C     C_3   0.285198 0.776630 0.355560 -0.879005
C42   C     C_3   0.137728 0.011664 0.485678 -0.816183
C43   C     C_3   0.677299 0.020157 0.786083 -0.839390
C44   C     C_R   0.508910 0.447149 0.974442 -0.002615
C45   C     C_R   0.482760 0.551034 0.024454 -0.003789
C46   C     C_R   0.349418 0.957226 0.432502 0.159616
C47   C     C_R   0.625379 0.046127 0.601272 0.163374
C48   C     C_R   0.375421 0.842076 0.424384 0.235839
H1    H     H_    0.978855 0.753534 0.617885 0.243600
H2    H     H_    0.016139 0.489189 0.234705 0.246741
H3    H     H_    0.146671 0.567844 0.284968 0.242290
H4    H     H_    0.162228 0.419494 0.285623 0.240749
H5    H     H_    0.019629 0.262925 0.628813 0.240741
H6    H     H_    0.173099 0.265349 0.575050 0.257666
H7    H     H_    0.138697 0.345861 0.692121 0.234278
H8    H     H_    0.976073 0.735705 0.365258 0.237543
H9    H     H_    0.847724 0.656688 0.312413 0.231995
H10   H     H_    0.830665 0.738605 0.432351 0.255779
H11   H     H_    0.647422 0.660745 0.228492 0.237200
H12   H     H_    0.102152 0.676800 0.691685 0.238308
H13   H     H_    0.599148 0.721124 0.108178 0.224075
H14   H     H_    0.488991 0.724552 0.210780 0.256970
H15   H     H_    0.346743 0.339879 0.767210 0.238064
H16   H     H_    0.503909 0.274309 0.787206 0.257213
H17   H     H_    0.390997 0.278606 0.887925 0.224865
H18   H     H_    0.683620 0.299134 0.269139 0.242811
H19   H     H_    0.560291 0.152191 0.275474 0.240536
H20   H     H_    0.633495 0.113060 0.155730 0.235934
H21   H     H_    0.478098 0.185637 0.152157 0.235376
H22   H     H_    0.311364 0.696151 0.726924 0.245334
H23   H     H_    0.137690 0.739408 0.571956 0.254895
H24   H     H_    0.419832 0.852068 0.728838 0.242713
H25   H     H_    0.498725 0.820188 0.853994 0.236809
H26   H     H_    0.338255 0.882929 0.846051 0.237811
H27   H     H_    0.251137 0.750544 0.975391 0.252413
H28   H     H_    0.311029 0.704169 0.098279 0.235636
H29   H     H_    0.395673 0.803830 0.033276 0.239561
H30   H     H_    0.735747 0.243101 0.024669 0.254325
H31   H     H_    0.589132 0.193865 0.967166 0.243230
H32   H     H_    0.678412 0.290700 0.901712 0.234345
H33   H     H_    0.358091 0.276282 0.369021 0.284738
H34   H     H_    0.023727 0.252504 0.369984 0.250644
H35   H     H_    0.337508 0.145570 0.314634 0.205677
H36   H     H_    0.243314 0.201544 0.420683 0.244206
H37   H     H_    0.652028 0.713909 0.621263 0.285475
H38   H     H_    0.751657 0.817427 0.595105 0.210507
H39   H     H_    0.639347 0.826508 0.699022 0.235904
H40   H     H_    0.789071 0.243519 0.573977 0.242196
H41   H     H_    0.683929 0.305832 0.669896 0.277014
H42   H     H_    0.782342 0.190609 0.696732 0.201261
H43   H     H_    0.275021 0.810456 0.276326 0.191228
H44   H     H_    0.316978 0.690935 0.342987 0.296353
H45   H     H_    0.867390 0.257587 0.419561 0.243690
H46   H     H_    0.190940 0.779949 0.389389 0.234513
H47   H     H_    0.184792 0.973741 0.332236 0.234252
H48   H     H_    0.048248 0.057545 0.458566 0.241031
H49   H     H_    0.179574 0.057049 0.554822 0.253535
H50   H     H_    0.115043 0.929029 0.508719 0.241718
H51   H     H_    0.809111 0.014116 0.668425 0.228945
H52   H     H_    0.741941 0.968634 0.838238 0.243485
H53   H     H_    0.578584 0.996519 0.792551 0.250087
H54   H     H_    0.682048 0.106953 0.812914 0.248833
H55   H     H_    0.894174 0.329639 0.303838 0.235723
H56   H     H_    0.983941 0.513686 0.763229 0.245663
H57   H     H_    0.837885 0.582945 0.711960 0.240663
H58   H     H_    0.853131 0.434664 0.714173 0.243227
N1    N     N_R   0.523490 0.207800 0.519350 -0.121125
N2    N     N_R   0.476510 0.792200 0.480650 -0.118528
N3    N     N_2   0.635004 0.280113 0.199553 -0.293481
N4    N     N_2   0.353377 0.716523 0.798864 -0.292568
N5    N     N_2   0.224923 0.002338 0.402427 -0.307970
N6    N     N_2   0.714839 0.003703 0.679337 -0.305461
O1    O     O_R   0.506270 0.421700 0.658830 -0.616420
O2    O     O_R   0.493730 0.578300 0.341170 -0.620357
O3    O     O_R   0.491200 0.609310 0.646410 -0.628984
O4    O     O_R   0.508800 0.390690 0.353590 -0.629936
O5    O     O_R   0.693580 0.406210 0.506230 -0.624459
O6    O     O_R   0.306420 0.593790 0.493770 -0.625984
O7    O     O_R   0.678510 0.593830 0.493810 -0.631214
O8    O     O_R   0.321490 0.406170 0.506190 -0.624194
Zn1   Zn    Zn3+2 0.510060 0.374730 0.508290 0.911257
Zn2   Zn    Zn3+2 0.489940 0.625270 0.491710 0.912555

loop_
_geom_bond_atom_site_label_1
_geom_bond_atom_site_label_2
_ccdc_geom_bond_type
C35   H26   S    
C38   H35   S    
C7    O5    A    
C39   H39   S    
C8    O6    A    
C44   C45   A    
C37   H31   S    
C33   H19   S    
C42   H48   S    
C9    C16   S    
C36   H29   S    
C42   H50   S    
C5    C6    A    
C28   H3    S    
C29   H6    S    
C27   H57   S    
C10   C17   S    
C47   N6    S    
C30   H9    S    
C27   H56   S    
O6    Zn2   S    
C31   H11   S    
C31   H13   S    
O5    Zn1   S    
H22   N4    S    
C28   H2    S    
C11   C17   S    
C22   N4    S    
C25   H23   S    
C25   H12   S    
C40   H41   S    
C36   H28   S    
C20   C45   A    
C33   H21   S    
C26   H45   S    
C7    C15   S    
C3    C39   S    
C26   H34   S    
O3    Zn2   S    
C46   N5    S    
C17   C30   S    
C31   H14   S    
C1    O1    A    
C4    N1    A    
C12   O2    A    
C37   H32   S    
C46   C48   A    
C1    C19   S    
O4    Zn1   S    
C5    C47   A    
C7    O7    A    
C19   C22   A    
C43   H52   S    
C32   H16   S    
C18   C24   A    
C4    C6    A    
C10   C14   S    
C42   H49   S    
N2    Zn2   S    
C29   H7    S    
C27   H58   S    
C16   C29   S    
C30   H8    S    
C23   C44   A    
C20   C36   S    
C19   C23   A    
C42   N5    S    
C43   H53   S    
C36   H27   S    
C26   H55   S    
C21   C44   A    
C18   C34   A    
C41   H46   S    
C31   C34   S    
O1    Zn1   S    
C34   C45   A    
C9    C11   S    
C39   H37   S    
C35   N4    S    
C41   H43   S    
C20   C22   A    
C35   H24   S    
C13   C15   S    
C38   H33   S    
C2    N1    A    
C3    N2    A    
C14   C16   S    
C13   C26   S    
C21   C24   A    
C33   N3    S    
C43   N6    S    
N1    Zn1   S    
O8    Zn1   S    
C9    C27   S    
O7    Zn2   S    
C10   C28   S    
C15   C17   S    
C8    O8    A    
C35   H25   S    
C8    C14   S    
C6    C46   A    
C38   H36   S    
C24   N3    S    
C32   H15   S    
C4    C38   S    
C3    C5    A    
C10   C13   S    
C2    C47   A    
C37   H30   S    
C23   C32   S    
C40   H40   S    
C9    C15   S    
C43   H54   S    
H47   N5    S    
C28   H4    S    
C48   N2    A    
C29   H5    S    
H51   N6    S    
C30   H10   S    
C11   C14   S    
C41   C48   S    
H18   N3    S    
C25   H1    S    
O2    Zn2   S    
C2    C40   S    
C41   H44   S    
C21   C37   S    
C13   C16   S    
C12   C18   S    
C11   C25   S    
C1    O3    A    
C39   H38   S    
C40   H42   S    
C33   H20   S    
C32   H17   S    
C12   O4    A    
