data_mof_unit_17541.cif
_audit_creation_date              2013-03-05T16:20:06-0500
_audit_creation_method            fapswitch 2.2
_symmetry_space_group_name_H-M    P1
_symmetry_Int_Tables_number       1
_space_group_crystal_system       triclinic
_cell_length_a                    8.429387
_cell_length_b                    18.885516
_cell_length_c                    26.956528
_cell_angle_alpha                 100.584056
_cell_angle_beta                  92.492812
_cell_angle_gamma                 87.985023
_cell_volume                      4212.68401866

loop_
_atom_site_label
_atom_site_type_symbol
_atom_site_description
_atom_site_fract_x
_atom_site_fract_y
_atom_site_fract_z
_atom_type_partial_charge
P1    P     P_3+3 0.929380 0.335110 0.452880 0.601754
O1    O     O_2   0.106080 0.324280 0.466820 -0.284815
O2    O     O_3   0.859130 0.413620 0.470620 -0.354280
O3    O     O_3   0.376230 0.370290 0.556910 -0.321678
O4    O     O_2   0.278786 0.241363 0.509710 -0.329126
O5    O     O_3   0.953012 0.307529 0.387379 -0.531663
O6    O     O_3   0.368264 0.238876 0.603818 -0.524896
H1    H     H_    0.256649 0.331951 0.640159 0.173049
C1    C     C_3   0.289821 0.253020 0.690132 -0.184217
H2    H     H_    0.192429 0.217053 0.675198 0.188435
P2    P     P_3+3 0.398530 0.559060 0.613740 0.515572
P3    P     P_3+3 0.958712 0.416308 0.648521 0.497743
O7    O     O_2   0.227190 0.537650 0.620070 -0.408292
O8    O     O_3   0.971110 0.406970 0.583250 -0.344200
O9    O     O_2   0.118679 0.449362 0.668738 -0.404922
O10   O     O_3   0.419568 0.652268 0.635075 -0.522930
O11   O     O_3   0.970838 0.332890 0.669662 -0.535856
C2    C     C_3   0.894206 0.275901 0.636830 0.629510
H3    H     H_    0.793007 0.295384 0.615571 0.044520
C3    C     C_3   0.834604 0.223960 0.669715 -0.665462
H4    H     H_    0.936425 0.199594 0.688555 0.222474
H5    H     H_    0.763423 0.254813 0.700503 0.228536
C4    C     C_3   0.825031 0.635325 0.635516 0.130597
H6    H     H_    0.705756 0.621883 0.618625 0.146257
H7    H     H_    0.904123 0.586483 0.628170 0.047324
C5    C     C_3   0.812294 0.659890 0.693421 -0.056618
H8    H     H_    0.774218 0.613752 0.708963 0.011260
Ba1   Ba    Ba6+2 0.160810 0.465630 0.521640 1.682022
C6    C     C_3   0.893311 0.357189 0.358526 0.116225
H9    H     H_    0.774128 0.374626 0.370365 0.100307
C7    C     C_3   0.891051 0.321676 0.301426 -0.172232
H10   H     H_    0.015952 0.309001 0.290348 0.172283
C8    C     C_3   0.279139 0.693928 0.633095 0.372891
H11   H     H_    0.170183 0.662597 0.630333 0.054381
C9    C     C_3   0.274942 0.751734 0.680835 -0.766883
H12   H     H_    0.280569 0.726200 0.714784 0.298070
H13   H     H_    0.163912 0.785377 0.680931 0.241871
H14   H     H_    0.377784 0.787671 0.683297 0.288506
P4    P     P_3+3 0.880940 0.664900 0.547160 0.531394
O12   O     O_2   0.704230 0.675760 0.533200 -0.274500
O13   O     O_3   0.951180 0.586390 0.529420 -0.390187
O14   O     O_3   0.434080 0.629720 0.443130 -0.340716
O15   O     O_3   0.888498 0.688976 0.613589 -0.535567
P5    P     P_3+3 0.840223 0.593812 0.352278 0.491683
O16   O     O_3   0.351080 0.462080 0.440130 -0.277529
O17   O     O_3   0.839200 0.593040 0.416790 -0.340800
O18   O     O_2   0.702740 0.546099 0.327945 -0.409000
O19   O     O_3   0.784726 0.680008 0.341785 -0.493816
Ba2   Ba    Ba6+2 0.649380 0.534380 0.478400 1.692340
P6    P     P_3+3 0.404577 0.275523 0.549280 0.593094
C10   C     C_3   0.346341 0.291135 0.648077 0.360321
H15   H     H_    0.386271 0.217544 0.701979 0.175735
O20   O     O_3   0.459240 0.537930 0.559910 -0.362734
C11   C     C_3   0.461728 0.314502 0.342437 0.694766
H16   H     H_    0.565798 0.335574 0.327493 -0.032006
C12   C     C_3   0.407649 0.249512 0.302860 -0.690606
H17   H     H_    0.385438 0.267058 0.265898 0.237499
H18   H     H_    0.502876 0.206984 0.298060 0.247995
P7    P     P_3+3 0.396124 0.453916 0.376186 0.521748
O21   O     O_2   0.583120 0.462390 0.379940 -0.417158
O22   O     O_3   0.338035 0.366562 0.347572 -0.630966
C13   C     C_3   0.873978 0.730062 0.375762 0.499440
H19   H     H_    0.827844 0.735509 0.414312 0.112285
H20   H     H_    0.001822 0.713721 0.376460 -0.026270
C14   C     C_3   0.858864 0.802970 0.359465 -0.947869
H21   H     H_    0.734899 0.824399 0.363552 0.257858
H22   H     H_    0.939391 0.841623 0.383273 0.223169
H23   H     H_    0.891609 0.797689 0.319431 0.279677
P8    P     P_3+3 0.408191 0.722491 0.445094 0.497571
C15   C     C_3   0.341496 0.732097 0.352251 0.199200
H24   H     H_    0.234002 0.763665 0.366435 0.052928
O23   O     O_2   0.537501 0.757546 0.483222 -0.348494
O24   O     O_3   0.468705 0.742489 0.387960 -0.513779
H25   H     H_    0.314642 0.674237 0.342749 0.112210
H26   H     H_    0.298326 0.736594 0.273264 0.226073
C16   C     C_3   0.387249 0.756326 0.303919 -0.611109
H27   H     H_    0.505176 0.732353 0.292232 0.225141
C17   C     C_R   0.983231 0.044575 0.468633 0.030983
C18   C     C_R   0.073696 0.092278 0.447591 0.091542
C19   C     C_R   0.220898 0.068212 0.427375 -0.130900
C20   C     C_R   0.278258 0.997989 0.428479 -0.169836
C21   C     C_R   0.188923 0.950003 0.449307 0.123516
C22   C     C_R   0.040438 0.973009 0.469246 0.032064
C23   C     C_R   0.246000 0.879499 0.450193 -0.276823
C24   C     C_R   0.156061 0.830008 0.469963 -0.010402
C25   C     C_R   0.008796 0.853642 0.491963 -0.007607
C26   C     C_R   0.951040 0.925180 0.490777 -0.007137
C27   C     C_R   0.208493 0.757500 0.467983 0.178014
C28   C     C_R   0.112457 0.709817 0.486987 -0.459338
C29   C     C_R   0.976987 0.733480 0.514721 0.191412
C30   C     C_R   0.923430 0.807535 0.517364 -0.202397
C31   C     C_R   0.836201 0.068469 0.489212 0.009208
C32   C     C_R   0.783800 0.141518 0.491907 0.022722
C33   C     C_R   0.877868 0.190658 0.472623 0.024109
C34   C     C_R   0.017918 0.163615 0.447989 -0.061874
H28   H     H_    0.292982 0.104098 0.411337 0.146472
H29   H     H_    0.393062 0.981242 0.413090 0.136389
H30   H     H_    0.153152 0.654404 0.484703 0.181096
H31   H     H_    0.360837 0.863800 0.434843 0.166307
H32   H     H_    0.087942 0.197918 0.430251 0.160919
C35   C     C_R   0.789480 0.838092 0.544766 0.356192
C36   C     C_R   0.718243 0.903795 0.535678 -0.024957
C37   C     C_R   0.803132 0.948967 0.510777 -0.017512
C38   C     C_R   0.744382 0.019950 0.508997 0.030673
C39   C     C_R   0.567630 0.927679 0.553925 -0.082715
C40   C     C_R   0.505769 0.995696 0.549324 -0.165599
C41   C     C_R   0.595378 0.043056 0.528479 0.092626
C42   C     C_R   0.637320 0.165215 0.514110 -0.088505
C43   C     C_R   0.540563 0.114057 0.529130 -0.180793
C44   C     C_R   0.593943 0.239532 0.521726 0.234394
C45   C     C_R   0.692499 0.288170 0.506126 -0.366615
C46   C     C_R   0.829773 0.265235 0.480007 0.295611
H33   H     H_    0.494412 0.893933 0.571158 0.180401
H34   H     H_    0.389796 0.012257 0.563903 0.163108
H35   H     H_    0.424444 0.129063 0.543544 0.213622
H36   H     H_    0.656516 0.344592 0.511898 0.163101
C47   C     C_R   0.340120 0.474632 0.178588 0.581398
O25   O     O_2   0.383298 0.426716 0.201478 -0.585195
N1    N     N_R   0.254479 0.534065 0.202939 -0.163011
C48   C     C_R   0.200330 0.586797 0.176153 0.527190
C49   C     C_2   0.066607 0.557467 0.271522 -0.159523
C50   C     C_3   0.031392 0.555771 0.325478 0.149510
C51   C     C_1   0.300275 0.520407 0.341567 0.290511
C52   C     C_2   0.340941 0.523220 0.294757 -0.235581
C53   C     C_2   0.216482 0.539615 0.255939 0.136517
C54   C     C_R   0.316250 0.519879 0.099246 -0.065865
C55   C     C_R   0.374906 0.467750 0.126989 -0.109083
C56   C     C_R   0.459419 0.407328 0.102168 -0.025339
C57   C     C_R   0.225614 0.579073 0.123971 -0.050217
C58   C     C_2   0.177404 0.560030 0.360133 -0.430197
H37   H     H_    0.460461 0.508824 0.283136 0.193376
H38   H     H_    0.497329 0.364983 0.122759 0.209469
C59   C     C_2   0.664946 0.487525 0.637491 -0.311877
C60   C     C_R   0.490971 0.453774 0.972192 0.050093
C61   C     C_R   0.311283 0.557921 0.966537 -0.007067
C62   C     C_R   0.419202 0.503674 0.943704 0.117832
C63   C     C_R   0.616349 0.408927 0.950126 -0.233943
C64   C     C_R   0.647459 0.402424 0.899304 -0.038280
C65   C     C_R   0.567331 0.446585 0.869507 -0.019884
C66   C     C_R   0.459715 0.500399 0.892229 -0.079237
C67   C     C_R   0.395165 0.551283 0.863796 -0.233732
C68   C     C_R   0.445049 0.548058 0.813645 0.631730
N2    N     N_R   0.547181 0.493304 0.791423 -0.158971
C69   C     C_R   0.600302 0.440502 0.818127 0.629990
C70   C     C_2   0.757318 0.484839 0.728671 -0.142209
C71   C     C_3   0.803017 0.483645 0.674446 0.022256
C72   C     C_1   0.524395 0.510601 0.654251 0.289729
C73   C     C_2   0.479544 0.502243 0.699223 -0.157302
C74   C     C_2   0.600003 0.492023 0.740249 0.128562
O26   O     O_2   0.678475 0.388627 0.797243 -0.592306
C75   C     C_R   0.443408 0.453754 0.022645 -0.054124
C76   C     C_R   0.347327 0.512759 0.046777 0.104591
C77   C     C_R   0.280432 0.564550 0.018906 0.076430
C78   C     C_R   0.487221 0.397688 0.050489 -0.111393
H39   H     H_    0.740767 0.364830 0.883926 0.181202
H40   H     H_    0.697414 0.380139 0.971885 0.150974
O27   O     O_2   0.130832 0.640868 0.197801 -0.597759
C79   C     C_R   0.160227 0.629261 0.096073 -0.065161
H41   H     H_    0.970104 0.565743 0.245035 0.181639
H42   H     H_    0.086942 0.674581 0.113812 0.182409
C80   C     C_R   0.241586 0.605433 0.936424 -0.264271
C81   C     C_R   0.283953 0.603854 0.886707 0.425902
O28   O     O_2   0.399260 0.594463 0.789846 -0.530255
C82   C     C_R   0.185307 0.621937 0.044773 -0.185273
H43   H     H_    0.154108 0.646153 0.950463 0.167658
H44   H     H_    0.355277 0.506863 0.707808 0.189105
H45   H     H_    0.129269 0.663548 0.026968 0.147972
H46   H     H_    0.171855 0.582592 0.399984 0.163920
H47   H     H_    0.683726 0.472720 0.597264 0.158015
N3    N     N_R   0.691448 0.716973 0.706943 0.307252
O29   O     O_R   0.710838 0.781500 0.698154 -0.224571
O30   O     O_R   0.578552 0.706872 0.736235 -0.314795
C83   C     C_2   0.970120 0.679242 0.719694 0.661654
H48   H     H_    0.067454 0.639576 0.715878 -0.046282
O31   O     O_2   0.989457 0.737899 0.747056 -0.455845
C84   C     C_2   0.000495 0.419423 0.365726 0.567377
H49   H     H_    0.076683 0.424350 0.335530 -0.040771
O32   O     O_2   0.006899 0.463078 0.405026 -0.518344
C85   C     C_2   0.820152 0.373804 0.269466 0.498636
H50   H     H_    0.699171 0.394443 0.274584 0.054350
O33   O     O_2   0.898718 0.393278 0.237645 -0.546155
N4    N     N_R   0.807174 0.253350 0.290582 0.268421
O34   O     O_R   0.843735 0.203326 0.316831 -0.283492
O35   O     O_R   0.733170 0.234478 0.246966 -0.346274
C86   C     C_2   0.284801 0.731190 0.589353 0.538706
H51   H     H_    0.205285 0.776794 0.586160 -0.029352
O36   O     O_2   0.382703 0.711066 0.557008 -0.486845
N5    N     N_R   0.236877 0.302720 0.735132 0.262100
O37   O     O_R   0.256982 0.371839 0.741259 -0.427801
O38   O     O_R   0.175405 0.276602 0.771134 -0.328582
C87   C     C_2   0.497623 0.326901 0.666849 0.383449
H52   H     H_    0.542916 0.328911 0.705353 0.095397
O39   O     O_2   0.568678 0.357090 0.639267 -0.648709
N6    N     N_R   0.502736 0.291389 0.390466 0.180256
O40   O     O_R   0.605833 0.238820 0.391647 -0.464152
O41   O     O_R   0.422486 0.315733 0.430415 -0.377508
C88   C     C_2   0.260536 0.216585 0.317003 0.704187
H53   H     H_    0.229787 0.222101 0.356213 0.046093
O42   O     O_2   0.177399 0.180287 0.284328 -0.490412
C89   C     C_2   0.738509 0.163838 0.640122 0.581124
H54   H     H_    0.787420 0.128138 0.608046 0.087931
O43   O     O_2   0.606331 0.152662 0.652976 -0.568112
N7    N     N_R   0.004214 0.239331 0.599352 0.187824
O44   O     O_R   0.043938 0.272996 0.564362 -0.373361
O45   O     O_R   0.048350 0.171888 0.596195 -0.462918
C90   C     C_2   0.393358 0.836972 0.311580 0.681446
H55   H     H_    0.472656 0.865928 0.340449 0.004758
O46   O     O_2   0.308919 0.870581 0.285545 -0.532786
N8    N     N_R   0.762098 0.817908 0.592098 0.258800
O47   O     O_R   0.865634 0.836299 0.629046 -0.345776
O48   O     O_R   0.623623 0.796680 0.601772 -0.334244
C91   C     C_2   0.888475 0.494211 0.767917 0.612841
H56   H     H_    0.007321 0.474296 0.758294 0.093868
O49   O     O_2   0.867771 0.527462 0.810557 -0.560685
C92   C     C_2   0.542369 0.324243 0.026491 0.536610
H57   H     H_    0.496681 0.299966 0.989191 0.045949
O50   O     O_2   0.641547 0.290253 0.048128 -0.518604
N9    N     N_R   0.212683 0.657343 0.860630 0.261362
O51   O     O_R   0.295751 0.711567 0.854296 -0.270941
O52   O     O_R   0.058941 0.661134 0.854318 -0.320006

loop_
_geom_bond_atom_site_label_1
_geom_bond_atom_site_label_2
_geom_bond_distance
_ccdc_geom_bond_type
C64   H39   1.084207 S    
N6    O41   1.299337 A    
N7    O44   1.291778 A    
C81   N9    1.434212 S    
C35   C36   1.416592 A    
C11   N6    1.464338 S    
C36   C37   1.409062 A    
C73   H44   1.079659 S    
C22   C26   1.413915 A    
C72   C73   1.323583 D    
C1    C10   1.549562 S    
C62   C66   1.433206 A    
C1    N5    1.466648 S    
C60   C63   1.412366 A    
C80   C81   1.396680 A    
O2    Ba2   2.818552 S    
N9    O51   1.301218 A    
C51   C52   1.332699 D    
P4    O13   1.574824 S    
C83   H48   1.086616 S    
C12   H17   1.112790 S    
C18   C34   1.409548 A    
N7    O45   1.302907 A    
O17   Ba2   2.752713 S    
C5    H8    1.096920 S    
C54   C55   1.406069 A    
Ba2   O21   2.793510 S    
C20   H29   1.083423 S    
C40   H34   1.083839 S    
C80   H43   1.075093 S    
C39   H33   1.078995 S    
O2    Ba1   2.949271 S    
C9    H13   1.112406 S    
C2    H3    1.097420 S    
C25   C30   1.432055 A    
C47   N1    1.387609 Am   
C32   C42   1.417778 A    
C90   O46   1.220836 D    
C86   O36   1.226581 D    
N3    O29   1.300503 A    
C67   C81   1.416196 A    
O12   Ba2   2.846662 S    
Ba1   O13   2.817943 S    
P6    C44   1.844742 S    
C4    O15   1.395651 S    
C42   C43   1.410834 A    
C36   C39   1.410589 A    
N5    O38   1.300464 A    
P1    O1    1.536127 D    
Ba1   Ba2   4.621117 S    
C75   C78   1.435696 A    
P3    C71   1.861166 S    
C88   O42   1.222758 D    
C59   H47   1.086087 S    
N4    O34   1.301632 A    
C3    C89   1.502487 S    
C13   H20   1.110811 S    
C8    C9    1.527831 S    
C44   C45   1.391657 A    
C54   C76   1.430739 A    
C17   C22   1.421689 A    
C17   C18   1.410151 A    
C45   C46   1.394951 A    
P5    O17   1.742157 S    
C89   H54   1.081413 S    
C14   H22   1.109215 S    
P3    O11   1.769316 S    
C15   H25   1.104734 S    
P1    Ba1   3.415023 S    
C69   O26   1.222773 D    
C4    H6    1.103757 S    
O7    Ba1   2.793176 S    
P8    O24   1.752276 S    
C2    N7    1.462071 S    
C59   C72   1.317429 D    
P1    C46   1.861970 S    
C19   H28   1.083897 S    
C6    H9    1.088851 S    
C1    H2    1.098836 S    
P4    C29   1.910230 S    
P2    O20   1.537612 S    
P5    O18   1.541240 D    
C79   C82   1.388958 A    
C70   C91   1.488656 S    
C65   C69   1.407665 A    
C84   O32   1.217472 D    
N6    O40   1.300164 A    
P7    O21   1.586937 D    
C91   H56   1.082876 S    
C79   H42   1.086737 S    
C61   C80   1.413601 A    
C33   C34   1.413029 A    
C1    H15   1.108863 S    
C30   C35   1.422559 A    
C56   H38   1.086006 S    
O13   Ba2   2.950133 S    
C57   C79   1.398867 A    
O3    Ba1   2.773448 S    
C16   C90   1.501331 S    
C70   C71   1.523742 S    
C83   O31   1.224680 D    
P7    C51   1.842294 S    
C65   C66   1.409173 A    
C11   C12   1.538977 S    
Ba1   O16   2.765783 S    
P7    O22   1.764319 S    
C77   C82   1.419043 A    
C48   C57   1.412052 A    
C61   C62   1.416851 A    
C9    H14   1.111914 S    
C23   C24   1.414325 A    
N8    O47   1.301117 A    
C49   H41   1.085107 S    
P4    O12   1.536414 D    
C43   H35   1.078190 S    
C90   H55   1.084246 S    
C78   C92   1.486499 S    
C60   C62   1.424484 A    
C5    C83   1.504065 S    
C17   C31   1.405686 A    
C24   C25   1.421181 A    
C12   H18   1.109796 S    
O14   P8    1.749299 S    
C20   C21   1.405430 A    
C87   H52   1.084714 S    
C63   H40   1.078293 S    
C7    C85   1.514590 S    
N5    O37   1.301474 A    
P1    O2    1.574853 S    
C9    H12   1.108613 S    
C4    C5    1.551879 S    
P8    O23   1.544697 D    
H26   C16   1.111842 S    
C87   O39   1.206257 D    
P5    C50   1.861172 S    
C49   C53   1.360276 D    
C13   H19   1.111193 S    
O10   C8    1.402676 S    
P2    O10   1.761251 S    
O19   C13   1.403747 S    
C7    H10   1.112793 S    
P3    O9    1.541181 D    
O16   Ba2   2.957972 S    
C75   C76   1.427224 A    
C14   H23   1.111386 S    
C3    H4    1.107484 S    
C15   O24   1.403746 S    
C8    H11   1.102387 S    
C32   C33   1.423051 A    
C16   H27   1.111559 S    
Ba1   O20   2.958905 S    
C47   C55   1.415608 A    
H1    C10   1.103065 S    
C5    N3    1.464049 S    
C49   C50   1.503326 S    
C45   H36   1.082621 S    
P8    C27   1.874474 S    
C26   C37   1.406063 A    
N1    C53   1.461908 S    
C89   O43   1.217780 D    
C84   H49   1.077580 S    
P4    Ba2   3.415652 S    
C91   O49   1.220886 D    
C21   C22   1.406684 A    
C21   C23   1.403771 A    
C51   C58   1.317655 D    
C15   C16   1.526678 S    
C48   O27   1.222804 D    
O4    P6    1.541169 D    
C6    C84   1.486932 S    
C29   C30   1.444532 A    
C55   C56   1.400408 A    
C68   O28   1.220580 D    
C15   H24   1.109525 S    
C10   C87   1.489075 S    
C25   C26   1.425336 A    
C12   C88   1.500751 S    
C63   C64   1.388501 A    
C24   C27   1.416305 A    
C11   H16   1.097456 S    
O16   P7    1.759047 S    
P1    O5    1.764681 S    
C13   C14   1.519912 S    
C34   H32   1.077925 S    
C23   H31   1.079691 S    
C82   H45   1.078783 S    
O6    P6    1.778168 S    
C3    H5    1.108783 S    
C19   C20   1.400581 A    
C61   C77   1.428598 A    
P4    O15   1.763641 S    
N1    C48   1.387443 Am   
C59   C71   1.507396 S    
C11   O22   1.401216 S    
C56   C78   1.400360 A    
C85   H50   1.084195 S    
C39   C40   1.393965 A    
C28   H30   1.081468 S    
C54   C57   1.410027 A    
O11   C2    1.417103 S    
N9    O52   1.300902 A    
C35   N8    1.427230 S    
C92   O50   1.228238 D    
P3    O8    1.743131 S    
O6    C10   1.416137 S    
C7    N4    1.469006 S    
P5    O19   1.747247 S    
C47   O25   1.222497 D    
P2    O7    1.538321 D    
P2    C72   1.831338 S    
C86   H51   1.086307 S    
C41   C43   1.400088 A    
N3    O30   1.303449 A    
P2    Ba1   3.391035 S    
C66   C67   1.415797 A    
C60   C75   1.434585 A    
C33   C46   1.432316 A    
C31   C32   1.423626 A    
N8    O48   1.299616 A    
C42   C44   1.417846 A    
C2    C3    1.547041 S    
C73   C74   1.502744 S    
C4    H7    1.111594 S    
C92   H57   1.085758 S    
C88   H53   1.084753 S    
N4    O35   1.302474 A    
Ba2   O20   2.765108 S    
O1    Ba1   2.846194 S    
C64   C65   1.398652 A    
C31   C38   1.410108 A    
O14   Ba2   2.772826 S    
C18   C19   1.404059 A    
C58   H46   1.082833 S    
N2    C74   1.463629 S    
O5    C6    1.392279 S    
C27   C28   1.409090 A    
C52   H37   1.078866 S    
C6    C7    1.561575 S    
C14   H21   1.109835 S    
C40   C41   1.398334 A    
O3    P6    1.772424 S    
C37   C38   1.421096 A    
C68   N2    1.387082 Am   
C8    C86   1.483214 S    
C76   C77   1.425974 A    
O8    Ba1   2.752080 S    
C28   C29   1.406510 A    
C67   C68   1.423219 A    
C50   C58   1.507768 S    
C38   C41   1.406562 A    
C70   C74   1.371885 D    
N2    C69   1.384679 Am   
C52   C53   1.513974 S    
C85   O33   1.221517 D    
