data_mof_unit_48267.cif
_audit_creation_date              2012-12-10T20:25:38-0500
_audit_creation_method            fapswitch 2.2
_symmetry_space_group_name_H-M    P1
_symmetry_Int_Tables_number       1
_space_group_crystal_system       triclinic
_cell_length_a                    8.680925
_cell_length_b                    10.826543
_cell_length_c                    10.010656
_cell_angle_alpha                 90.708216
_cell_angle_beta                  97.609449
_cell_angle_gamma                 92.731988
_cell_volume                      931.334621519

loop_
_atom_site_label
_atom_site_type_symbol
_atom_type_description
_atom_site_fract_x
_atom_site_fract_y
_atom_site_fract_z
_atom_type_partial_charge
C1    C     C_R   0.493358 0.260765 0.497941 0.914798
C2    C     C_R   0.403578 0.929917 0.397406 -0.204729
C3    C     C_R   0.504987 0.873042 0.496544 -0.137359
C4    C     C_R   0.613047 0.946381 0.583300 0.000628
C5    C     C_3   0.644688 0.950273 0.734405 0.488125
C6    C     C_3   0.632592 0.090040 0.729776 0.168661
C7    C     C_R   0.474422 0.393347 0.066538 0.102689
C8    C     C_R   0.556836 0.598973 0.080643 -0.221115
C9    C     C_R   0.568069 0.595275 0.938937 0.237249
C10   C     C_R   0.469361 0.393789 0.925324 0.083354
C11   C     C_3   0.329715 0.305674 0.909147 -0.100339
C12   C     C_R   0.201884 0.499818 0.464860 0.966927
C13   C     C_3   0.350764 0.292582 0.064395 0.484548
C14   C     C_R   0.502760 0.739971 0.500361 0.879434
C15   C     C_R   0.797494 0.497168 0.534293 0.986047
C16   C     C_2   0.037510 0.505314 0.445602 -0.327840
C17   C     C_2   0.960179 0.484820 0.549593 -0.372336
C18   C     C_R   0.606562 0.073477 0.581514 0.015624
C19   C     C_R   0.496740 0.129386 0.493372 -0.121120
C20   C     C_R   0.397881 0.058264 0.397233 -0.170358
H1    H     H_    0.980763 0.529995 0.346723 0.192021
H2    H     H_    0.346322 0.219465 0.853520 0.123139
H3    H     H_    0.015528 0.454099 0.644799 0.196076
H4    H     H_    0.311071 0.101260 0.327990 0.204928
H5    H     H_    0.323000 0.875114 0.325635 0.166689
H6    H     H_    0.529184 0.124366 0.768655 0.090143
H7    H     H_    0.606641 0.677673 0.141917 0.161614
N1    N     N_R   0.498950 0.499140 0.142680 -0.111712
N2    N     N_R   0.498950 0.499180 0.857030 -0.097662
O1    O     O_R   0.500020 0.316790 0.614690 -0.614008
O2    O     O_R   0.500000 0.316760 0.385350 -0.592261
O3    O     O_R   0.271760 0.500010 0.587850 -0.613447
O4    O     O_R   0.271740 0.499970 0.358500 -0.567375
O5    O     O_R   0.500000 0.683240 0.614650 -0.588806
O6    O     O_R   0.499980 0.683210 0.385310 -0.632266
O7    O     O_R   0.728260 0.500030 0.641500 -0.597998
O8    O     O_R   0.728240 0.499990 0.412150 -0.620090
Zn1   Zn    Zn3+2 0.500010 0.500020 0.653130 1.009783
Zn2   Zn    Zn3+2 0.499990 0.499980 0.346870 0.996374
N3    N     N_2   0.682688 0.673443 0.892476 -0.226104
H8    H     H_    0.699731 0.754553 0.947481 0.266698
C21   C     C_3   0.830201 0.616659 0.898587 -0.661621
H9    H     H_    0.899576 0.635136 0.999144 0.204952
H10   H     H_    0.895494 0.655760 0.819814 0.275205
H11   H     H_    0.814319 0.514888 0.881959 0.254340
N4    N     N_2   0.190939 0.366541 0.851093 -0.261919
H12   H     H_    0.096756 0.307049 0.819947 0.295556
C22   C     C_3   0.152002 0.485032 0.904737 -0.644567
H13   H     H_    0.124189 0.550639 0.822591 0.219327
H14   H     H_    0.246692 0.531334 0.974202 0.237313
H15   H     H_    0.053256 0.469798 0.962151 0.262103
Cl1   Cl    Cl    0.186113 0.320491 0.148304 -0.614968
N5    N     N_2   0.413919 0.175751 0.109679 -0.332204
H16   H     H_    0.340727 0.098177 0.089735 0.237318
C23   C     C_3   0.580481 0.158883 0.131343 -0.754775
H17   H     H_    0.603035 0.068485 0.179205 0.253661
H18   H     H_    0.641830 0.231129 0.200908 0.280109
H19   H     H_    0.628491 0.162824 0.034077 0.263448
N6    N     N_2   0.520137 0.885736 0.795044 -0.302854
H20   H     H_    0.413860 0.875979 0.735077 0.235435
C24   C     C_3   0.499823 0.921904 0.930168 -0.854574
H21   H     H_    0.428217 0.003451 0.925128 0.243481
H22   H     H_    0.613976 0.941958 0.992236 0.275957
H23   H     H_    0.436372 0.846096 0.976995 0.254272
Cl2   Cl    Cl    0.837032 0.902182 0.789172 -0.591676
Cl3   Cl    Cl    0.804969 0.184293 0.783030 -0.591944

loop_
_geom_bond_atom_site_label_1
_geom_bond_atom_site_label_2
_ccdc_geom_bond_type
N2    Zn1   S    
C14   O5    A    
C7    C10   A    
O6    Zn2   S    
C23   H17   S    
C9    N3    S    
C16   H1    S    
O3    Zn1   S    
C24   H23   S    
C13   Cl1   S    
C11   H2    S    
N3    C21   S    
C19   C20   A    
C9    N2    A    
C4    C18   A    
C24   H21   S    
O7    Zn1   S    
C2    C3    A    
N6    H20   S    
O8    Zn2   S    
C6    H6    S    
N5    H16   S    
C12   O3    A    
C11   C13   S    
C10   N2    A    
C6    Cl3   S    
C17   H3    S    
C3    C14   S    
C21   H10   S    
C6    C18   S    
C4    C5    S    
C22   H14   S    
C22   H13   S    
O2    Zn2   S    
C2    H5    S    
C13   N5    S    
C23   H18   S    
C1    O1    A    
C5    C6    S    
C8    N1    A    
N4    C22   S    
N6    C24   S    
C1    C19   S    
C10   C11   S    
C5    N6    S    
N5    C23   S    
C2    C20   A    
C3    C4    A    
C12   C16   S    
C15   O7    A    
C1    O2    A    
O1    Zn1   S    
C5    Cl2   S    
C18   C19   A    
C21   H9    S    
C23   H19   S    
C14   O6    A    
C15   C17   S    
C8    H7    S    
N4    H12   S    
N3    H8    S    
C11   N4    S    
C7    C13   S    
N1    Zn2   S    
C12   O4    A    
O5    Zn1   S    
O4    Zn2   S    
C22   H15   S    
C15   O8    A    
C7    N1    A    
C20   H4    S    
C16   C17   D    
C8    C9    A    
C24   H22   S    
C21   H11   S    
