data_mof_unit_64131.cif
_audit_creation_date              2012-12-10T17:07:09-0500
_audit_creation_method            fapswitch 2.2
_symmetry_space_group_name_H-M    P1
_symmetry_Int_Tables_number       1
_space_group_crystal_system       triclinic
_cell_length_a                    10.088774
_cell_length_b                    10.634578
_cell_length_c                    13.595109
_cell_angle_alpha                 90.137237
_cell_angle_beta                  82.033859
_cell_angle_gamma                 89.273219
_cell_volume                      1444.41289165

loop_
_atom_site_label
_atom_site_type_symbol
_atom_type_description
_atom_site_fract_x
_atom_site_fract_y
_atom_site_fract_z
_atom_type_partial_charge
C1    C     C_R   0.500743 0.737200 0.491792 0.950616
C2    C     C_R   0.501443 0.262489 0.498451 0.961045
C3    C     C_R   0.524905 0.500043 0.314285 0.909912
C4    C     C_1   0.545153 0.498559 0.210064 -0.101439
C5    C     C_2   0.563097 0.495542 0.017669 0.204788
C6    C     C_2   0.446740 0.498514 0.981887 -0.218545
C7    C     C_1   0.446008 0.499047 0.878102 0.077510
C8    C     C_1   0.558182 0.497015 0.121912 0.021236
C9    C     C_1   0.455587 0.499559 0.790017 -0.127109
C10   C     C_2   0.589596 0.069808 0.422372 0.166762
C11   C     C_2   0.508015 0.129502 0.494605 -0.389199
C12   C     C_2   0.606898 0.933984 0.430075 0.187264
C13   C     C_2   0.499098 0.868093 0.467991 -0.432195
C14   C     C_2   0.084267 0.439174 0.437667 0.165623
C15   C     C_2   0.944584 0.476196 0.423999 0.177925
C16   C     C_R   0.475100 0.500039 0.685737 0.879902
H1    H     H_    0.096275 0.571844 0.537385 0.153340
H2    H     H_    0.351689 0.501459 0.030663 0.169654
H3    H     H_    0.881206 0.484096 0.567868 0.158059
H4    H     H_    0.454002 0.081019 0.557748 0.133365
H5    H     H_    0.400309 0.912387 0.478239 0.164792
I1    I     I_    0.753924 0.489767 0.928865 -0.268628
I2    I     I_    0.690767 0.164752 0.295582 -0.210267
I3    I     I_    0.803339 0.857454 0.385135 -0.218239
I4    I     I_    0.179106 0.291461 0.347327 -0.207965
I5    I     I_    0.913976 0.501214 0.273816 -0.174166
N1    N     N_2   0.147970 0.498670 0.498970 -0.217703
N2    N     N_2   0.852310 0.498640 0.498940 -0.211704
O1    O     O_R   0.386960 0.680940 0.500020 -0.613956
O2    O     O_R   0.613100 0.680900 0.499980 -0.573136
O3    O     O_R   0.370650 0.500000 0.640370 -0.606528
O4    O     O_R   0.596800 0.499960 0.640330 -0.598871
O5    O     O_R   0.386900 0.319100 0.500020 -0.584025
O6    O     O_R   0.613040 0.319060 0.499980 -0.587225
O7    O     O_R   0.403200 0.500040 0.359670 -0.592065
O8    O     O_R   0.629350 0.500000 0.359630 -0.572919
Zn1   Zn    Zn3+2 0.349000 0.500030 0.500020 0.999058
Zn2   Zn    Zn3+2 0.651000 0.499970 0.499980 1.025032

loop_
_geom_bond_atom_site_label_1
_geom_bond_atom_site_label_2
_ccdc_geom_bond_type
C5    C8    S    
C6    C7    S    
O4    Zn2   S    
C14   N1    D    
C16   O4    A    
C12   I3    S    
C3    O7    A    
C4    C8    T    
C2    O6    A    
C1    O1    A    
C13   H5    S    
C16   O3    A    
H3    N2    S    
C15   N2    D    
C10   C12   S    
C3    O8    A    
N1    Zn1   S    
C6    H2    S    
C2    C11   S    
C2    O5    A    
O8    Zn2   S    
C1    O2    A    
O7    Zn1   S    
C9    C16   S    
C14   I4    S    
C5    C6    D    
C10   I2    S    
C11   H4    S    
C1    C13   S    
C10   C11   D    
C3    C4    S    
H1    N1    S    
C12   C13   D    
O2    Zn2   S    
O1    Zn1   S    
C7    C9    T    
C14   C15   S    
C15   I5    S    
N2    Zn2   S    
O6    Zn2   S    
O5    Zn1   S    
C5    I1    S    
O3    Zn1   S    
