data_mof_unit_52035.cif
_audit_creation_date              2012-12-10T17:52:38-0500
_audit_creation_method            fapswitch 2.2
_symmetry_space_group_name_H-M    P1
_symmetry_Int_Tables_number       1
_space_group_crystal_system       triclinic
_cell_length_a                    14.696301
_cell_length_b                    14.818808
_cell_length_c                    23.471101
_cell_angle_alpha                 75.746042
_cell_angle_beta                  101.756965
_cell_angle_gamma                 114.628117
_cell_volume                      4473.75348048

loop_
_atom_site_label
_atom_site_type_symbol
_atom_type_description
_atom_site_fract_x
_atom_site_fract_y
_atom_site_fract_z
_atom_type_partial_charge
C1    C     C_R   0.880538 0.312371 0.507880 0.872343
C2    C     C_R   0.007618 0.579216 0.284854 -0.085261
C3    C     C_R   0.945234 0.398992 0.767529 0.140820
C4    C     C_R   0.001665 0.571566 0.225337 0.094146
C5    C     C_R   0.985640 0.488653 0.790539 0.231417
C6    C     C_R   0.986148 0.479331 0.211069 0.354360
C7    C     C_R   0.811935 0.204252 0.514958 -0.126225
C8    C     C_R   0.186763 0.796355 0.483843 -0.097189
C9    C     C_R   0.768146 0.042995 0.582903 -0.074519
C10   C     C_R   0.227333 0.958352 0.416427 -0.049912
C11   C     C_R   0.842075 0.131794 0.556013 0.102071
C12   C     C_R   0.119390 0.687749 0.491633 0.923504
C13   C     C_R   0.154898 0.866993 0.441901 0.114506
C14   C     C_R   0.710818 0.175747 0.487670 -0.122216
C15   C     C_R   0.287393 0.827549 0.511936 -0.138856
C16   C     C_R   0.999268 0.500460 0.608545 0.886677
C17   C     C_R   0.999915 0.498379 0.391536 0.867800
C18   C     C_R   0.637600 0.080347 0.509536 0.007126
C19   C     C_R   0.358747 0.924997 0.490900 0.001780
C20   C     C_R   0.665541 0.024177 0.563320 0.032905
C21   C     C_R   0.330106 0.980738 0.437151 0.045095
C22   C     C_R   0.535367 0.041934 0.483299 0.107232
C23   C     C_R   0.028015 0.582805 0.753827 0.130140
C24   C     C_R   0.460461 0.965496 0.517582 0.106493
C25   C     C_R   0.489494 0.934409 0.577618 -0.118638
C26   C     C_R   0.505918 0.073981 0.423464 -0.159385
C27   C     C_R   0.590120 0.955632 0.598448 -0.109606
C28   C     C_R   0.405256 0.051851 0.402666 -0.116971
C29   C     C_R   0.700744 0.630852 0.381065 0.043616
C30   C     C_R   0.269369 0.314808 0.591755 0.049519
C31   C     C_R   0.789675 0.617527 0.407166 0.028349
C32   C     C_R   0.195705 0.355267 0.579579 0.018102
C33   C     C_R   0.714394 0.516931 0.493606 0.303176
C34   C     C_R   0.975868 0.393729 0.255229 0.102126
C35   C     C_R   0.284798 0.486953 0.506076 0.347673
C36   C     C_R   0.618481 0.519257 0.467616 -0.040880
C37   C     C_R   0.360606 0.446075 0.513315 -0.079926
C38   C     C_R   0.613251 0.582457 0.411449 0.032739
C39   C     C_R   0.355496 0.362027 0.560176 0.059708
C40   C     C_R   0.065988 0.475209 0.132015 0.598123
C41   C     C_R   0.901193 0.481582 0.870693 0.528893
C42   C     C_R   0.528502 0.462817 0.496583 0.101419
C43   C     C_R   0.442255 0.486782 0.477147 0.067963
C44   C     C_R   0.436750 0.542350 0.419614 -0.280989
C45   C     C_R   0.032270 0.587854 0.693704 -0.061993
C46   C     C_R   0.518569 0.376626 0.540468 -0.200039
C47   C     C_R   0.519711 0.591315 0.387344 0.020634
C48   C     C_R   0.435065 0.326619 0.572078 -0.000487
C49   C     C_R   0.898138 0.470197 0.112286 0.603230
C50   C     C_R   0.067338 0.482010 0.890953 0.539327
C51   C     C_R   0.895381 0.471117 0.051624 -0.019864
C52   C     C_R   0.069189 0.478768 0.951806 -0.007080
C53   C     C_R   0.981593 0.473829 0.031916 -0.063417
C54   C     C_R   0.983071 0.476362 0.971459 -0.058073
C55   C     C_R   0.066825 0.474768 0.072540 -0.043569
C56   C     C_R   0.982982 0.400282 0.314919 -0.076540
C57   C     C_R   0.898470 0.477106 0.930657 -0.026171
C58   C     C_R   0.810472 0.470514 0.010054 0.157999
C59   C     C_R   0.153691 0.478280 0.993467 0.159342
C60   C     C_R   0.813110 0.473778 0.950326 -0.204179
C61   C     C_R   0.151608 0.476533 0.053031 -0.203094
C62   C     C_2   0.797241 0.968730 0.629990 0.824439
C63   C     C_2   0.195883 0.030836 0.369112 0.826549
C64   C     C_2   0.504218 0.654529 0.329796 0.911540
C65   C     C_2   0.439140 0.241083 0.619383 0.917113
C66   C     C_2   0.076662 0.688577 0.655604 0.926587
C67   C     C_R   0.994161 0.497117 0.670886 -0.275006
C68   C     C_2   0.970277 0.308782 0.361157 0.843510
C69   C     C_2   0.902762 0.307062 0.683964 0.871210
C70   C     C_2   0.026701 0.677753 0.300034 0.834898
C71   C     C_2   0.319100 0.752999 0.557367 0.864018
C72   C     C_2   0.680561 0.251523 0.442601 0.864386
C73   C     C_R   0.998980 0.493236 0.329709 -0.213888
C74   C     C_R   0.948613 0.402703 0.707615 -0.050229
Cu1   Cu    Cu3+1 0.081740 0.475680 0.515360 1.038542
Cu2   Cu    Cu3+1 0.918260 0.524320 0.484640 1.006220
H1    H     H_    0.435020 0.890911 0.608738 0.158119
H2    H     H_    0.386707 0.085495 0.357727 0.169220
H3    H     H_    0.707684 0.531073 0.003906 0.229299
H4    H     H_    0.660634 0.403472 0.015705 0.229103
H5    H     H_    0.303527 0.544008 0.987660 0.229859
H6    H     H_    0.255502 0.416361 0.000049 0.228648
H7    H     H_    0.773522 0.822379 0.662612 0.350550
H8    H     H_    0.110303 0.053743 0.292417 0.346298
H9    H     H_    0.534546 0.794725 0.281766 0.343776
H10   H     H_    0.453045 0.186518 0.706912 0.346989
H11   H     H_    0.369822 0.633667 0.470147 0.244968
H12   H     H_    0.559675 0.117229 0.391992 0.165176
H13   H     H_    0.257908 0.574791 0.427572 0.228311
H14   H     H_    0.779767 0.537328 0.576660 0.264844
H15   H     H_    0.754265 0.420274 0.561548 0.254930
H16   H     H_    0.755857 0.761458 0.323428 0.244755
H17   H     H_    0.718650 0.655880 0.294628 0.245877
H18   H     H_    0.243806 0.235319 0.674288 0.251014
H19   H     H_    0.184504 0.167894 0.619505 0.231451
H20   H     H_    0.121698 0.672495 0.811735 0.254498
H21   H     H_    0.005378 0.676275 0.794560 0.236713
H22   H     H_    0.016787 0.276613 0.261104 0.247713
H23   H     H_    0.129153 0.317918 0.602521 0.175782
H24   H     H_    0.890458 0.246700 0.250857 0.261917
H25   H     H_    0.185882 0.828658 0.647744 0.344721
H26   H     H_    0.877168 0.170149 0.396612 0.337440
H27   H     H_    0.784729 0.174412 0.679361 0.338449
H28   H     H_    0.991486 0.800579 0.282071 0.347353
H29   H     H_    0.958651 0.295715 0.840056 0.234064
H30   H     H_    0.843430 0.302155 0.823552 0.256492
H31   H     H_    0.082992 0.716296 0.189051 0.242530
H32   H     H_    0.955499 0.680228 0.174175 0.283840
H33   H     H_    0.293272 0.651822 0.633511 0.346864
H34   H     H_    0.854612 0.651312 0.382841 0.158469
H35   H     H_    0.591029 0.330385 0.418485 0.338071
H36   H     H_    0.031567 0.834855 0.380496 0.263005
H37   H     H_    0.032375 0.903505 0.429307 0.233897
H38   H     H_    0.958349 0.088665 0.561904 0.227599
H39   H     H_    0.969446 0.154376 0.614605 0.283394
H40   H     H_    0.365977 0.544588 0.397332 0.161976
H41   H     H_    0.573530 0.342860 0.548825 0.198464
H42   H     H_    0.747467 0.473875 0.919329 0.192752
H43   H     H_    0.217434 0.476907 0.083977 0.195000
H44   H     H_    0.608574 0.922183 0.643450 0.168499
N1    N     N_R   0.982843 0.473470 0.150466 -0.441820
N2    N     N_3   0.252217 0.222939 0.634027 -0.552967
N3    N     N_3   0.064432 0.674033 0.777283 -0.523231
N4    N     N_3   0.959718 0.300967 0.238394 -0.558272
N5    N     N_3   0.903339 0.303199 0.805509 -0.521694
N6    N     N_3   0.015340 0.657526 0.178460 -0.560788
N7    N     N_3   0.049220 0.843975 0.424590 -0.536204
N8    N     N_3   0.947244 0.149446 0.569978 -0.540185
N9    N     N_R   0.984612 0.483978 0.852244 -0.475585
N10   N     N_R   0.795430 0.560810 0.461550 -0.205886
N11   N     N_R   0.204570 0.439190 0.538450 -0.187310
N12   N     N_3   0.721190 0.467352 0.027644 -0.498796
N13   N     N_3   0.242523 0.480203 0.976006 -0.498420
N14   N     N_3   0.294695 0.583148 0.470082 -0.521184
N15   N     N_3   0.728773 0.478372 0.555403 -0.590558
N16   N     N_3   0.699924 0.689167 0.322536 -0.548098
O1    O     O_R   0.977900 0.338110 0.520250 -0.532795
O2    O     O_2   0.821243 0.483706 0.830932 -0.525439
O3    O     O_2   0.817657 0.466700 0.133309 -0.481382
O4    O     O_2   0.147077 0.483438 0.870151 -0.487681
O5    O     O_2   0.862855 0.997017 0.670471 -0.585912
O6    O     O_R   0.747890 0.865676 0.628209 -0.732634
O7    O     O_2   0.233072 0.120711 0.371742 -0.557113
O8    O     O_R   0.125042 0.996998 0.321450 -0.777566
O9    O     O_2   0.446379 0.614916 0.289424 -0.555648
O10   O     O_R   0.552076 0.759600 0.322775 -0.734106
O11   O     O_2   0.437753 0.165374 0.606516 -0.581217
O12   O     O_R   0.022100 0.661890 0.479750 -0.533370
O13   O     O_R   0.449623 0.249235 0.678665 -0.722007
O14   O     O_2   0.037160 0.706674 0.605379 -0.599480
O15   O     O_R   0.162991 0.763662 0.677714 -0.697096
O16   O     O_2   0.041678 0.303902 0.397237 -0.558393
O17   O     O_R   0.876798 0.227881 0.362854 -0.739795
O18   O     O_2   0.948210 0.289671 0.652655 -0.630941
O19   O     O_R   0.807885 0.236204 0.698214 -0.715029
O20   O     O_2   0.091856 0.709574 0.340023 -0.615405
O21   O     O_R   0.970288 0.734095 0.268558 -0.775948
O22   O     O_2   0.390957 0.735930 0.551564 -0.577593
O23   O     O_R   0.839850 0.379180 0.494310 -0.600390
O24   O     O_R   0.265508 0.701354 0.606189 -0.754239
O25   O     O_2   0.723497 0.291913 0.398025 -0.560973
O26   O     O_R   0.604302 0.277618 0.451915 -0.755017
O27   O     O_R   0.160150 0.620820 0.505690 -0.561846
O28   O     O_R   0.069020 0.479430 0.595090 -0.550662
O29   O     O_R   0.930980 0.520570 0.404910 -0.579520
O30   O     O_R   0.930970 0.520500 0.569150 -0.590462
O31   O     O_R   0.069030 0.479500 0.430850 -0.559500
O32   O     O_2   0.148023 0.478445 0.171173 -0.507696

loop_
_geom_bond_atom_site_label_1
_geom_bond_atom_site_label_2
_ccdc_geom_bond_type
C33   N10   A    
C30   C32   A    
Cu2   O23   S    
C34   C56   A    
C8    C13   A    
C23   C45   A    
C64   O9    D    
C61   H43   S    
C14   C18   A    
C36   C42   A    
C10   C63   S    
H28   O21   S    
C43   C44   A    
H17   N16   S    
C53   C54   A    
C16   O28   A    
C7    C11   A    
C71   O24   S    
H30   N5    S    
C69   O19   S    
H4    N12   S    
C22   C24   A    
C19   C21   A    
C66   O14   D    
C31   N10   A    
C50   O4    S    
H8    O8    S    
C58   C60   A    
C33   C36   A    
Cu1   O27   S    
C42   C46   A    
C16   O30   A    
C3    C74   A    
H36   N7    S    
C15   C19   A    
Cu2   N10   S    
C7    C14   A    
C30   N2    S    
Cu1   N11   S    
C49   C51   A    
C29   C38   A    
C45   C67   A    
C50   C52   A    
C63   O8    S    
Cu2   O30   S    
H13   N14   S    
C48   C65   S    
C65   O11   D    
C18   C22   A    
C28   H2    S    
C44   C47   A    
C5    N9    S    
Cu2   O29   S    
C17   C73   S    
H11   N14   S    
H16   N16   S    
H35   O26   S    
C62   O6    S    
C35   N14   S    
C52   C54   A    
C53   C55   A    
C10   C21   A    
C37   C39   A    
C46   C48   A    
C59   C61   A    
C9    C62   S    
C1    O23   A    
C24   C25   A    
C4    C6    A    
C68   O17   S    
C17   O31   A    
H10   O13   S    
C58   N12   S    
C47   C64   S    
C67   C74   A    
C57   C60   A    
C23   N3    S    
C27   H44   S    
H25   O15   S    
H39   N8    S    
C6    C34   A    
C46   H41   S    
Cu1   O28   S    
H24   N4    S    
C37   C43   A    
H22   N4    S    
Cu1   Cu2   S    
C68   O16   D    
C50   N9    A    
C52   C59   A    
H38   N8    S    
C33   N15   S    
C9    C20   A    
H3    N12   S    
C5    C23   A    
C8    C12   S    
C40   C55   A    
C49   N1    A    
C41   O2    S    
C69   C74   S    
C16   C67   S    
H9    O10   S    
C60   H42   S    
C9    C11   A    
H26   O17   S    
Cu2   O12   S    
C38   C47   A    
C2    C73   A    
C72   O26   S    
H18   N2    S    
H19   N2    S    
H27   O19   S    
C21   C28   A    
C8    C15   A    
C49   O3    S    
Cu1   O1    S    
C25   H1    S    
C51   C58   A    
C42   C43   A    
C62   O5    D    
C35   N11   A    
C1    O1    A    
C35   C37   A    
C71   O22   D    
C34   N4    S    
C56   C73   A    
H20   N3    S    
C64   O10   S    
C1    C7    S    
C14   C72   S    
H31   N6    S    
C3    C5    A    
C10   C13   A    
H7    O6    S    
Cu1   O31   S    
C3    N5    S    
H5    N13   S    
H37   N7    S    
C20   C27   A    
C4    N6    S    
C25   C27   A    
C15   C71   S    
C26   C28   A    
C69   O18   D    
C32   H23   S    
H29   N5    S    
C70   O21   S    
H32   N6    S    
C12   O12   A    
H6    N13   S    
C40   N1    A    
C11   N8    S    
C41   C57   A    
C66   O15   S    
C29   C31   A    
C56   C68   S    
C12   O27   A    
C41   N9    A    
H14   N15   S    
C2    C4    A    
C55   C61   A    
C36   C38   A    
C31   H34   S    
C59   N13   S    
C30   C39   A    
C19   C24   A    
C72   O25   D    
C18   C20   A    
C65   O13   S    
C40   O32   S    
C13   N7    S    
C26   H12   S    
C29   N16   S    
H15   N15   S    
C44   H40   S    
H21   N3    S    
C22   C26   A    
C45   C66   S    
C63   O7    D    
C70   O20   D    
C17   O29   A    
C6    N1    S    
C51   C53   A    
C2    C70   S    
H33   O24   S    
C32   N11   A    
C39   C48   A    
C54   C57   A    
