data_mof_unit_15922.cif
_audit_creation_date              2012-12-10T20:02:24-0500
_audit_creation_method            fapswitch 2.2
_symmetry_space_group_name_H-M    P1
_symmetry_Int_Tables_number       1
_space_group_crystal_system       triclinic
_cell_length_a                    18.331973
_cell_length_b                    18.418838
_cell_length_c                    18.400548
_cell_angle_alpha                 120.238844
_cell_angle_beta                  120.143864
_cell_angle_gamma                 89.912132
_cell_volume                      4371.13946563

loop_
_atom_site_label
_atom_site_type_symbol
_atom_type_description
_atom_site_fract_x
_atom_site_fract_y
_atom_site_fract_z
_atom_type_partial_charge
C1    C     C_R   0.140461 0.139961 0.779914 0.821149
C2    C     C_R   0.707988 0.761114 0.418777 -0.004896
C3    C     C_R   0.824465 0.794943 0.754423 -0.423043
C4    C     C_R   0.859990 0.860364 0.219858 0.805888
C5    C     C_R   0.873103 0.800713 0.846191 0.411775
C6    C     C_R   0.931586 0.751685 0.857869 0.486156
C7    C     C_R   0.943386 0.699807 0.779788 -0.301750
C8    C     C_R   0.896393 0.695657 0.689240 0.670051
C9    C     C_R   0.836288 0.742963 0.675921 -0.055710
C10   C     C_R   0.714766 0.800131 0.052733 0.125103
C11   C     C_R   0.805396 0.810099 0.108170 -0.113244
C12   C     C_R   0.621527 0.697652 0.230976 0.650897
C13   C     C_R   0.844141 0.773610 0.054160 -0.168815
C14   C     C_R   0.790169 0.718847 0.946510 -0.099303
C15   C     C_R   0.697129 0.700899 0.891674 -0.097668
C16   C     C_R   0.859793 0.139918 0.501024 0.896194
C17   C     C_R   0.661373 0.746300 0.946159 0.128868
C18   C     C_3   0.584109 0.711178 0.940740 -0.463659
C19   C     C_3   0.643120 0.770358 0.057943 -0.467144
C20   C     C_R   0.224620 0.777244 0.562575 -0.227957
C21   C     C_R   0.197905 0.806750 0.500064 -0.166446
C22   C     C_R   0.229435 0.781975 0.437026 0.480757
C23   C     C_R   0.559802 0.700195 0.147915 -0.263852
C24   C     C_R   0.281878 0.726074 0.436586 -0.297900
C25   C     C_R   0.305331 0.695915 0.499638 -0.083636
C26   C     C_R   0.274120 0.722649 0.560717 -0.225646
C27   C     C_3   0.272122 0.714699 0.637441 0.247443
C28   C     C_R   0.140385 0.860630 0.500102 0.824793
C29   C     C_3   0.216335 0.778191 0.640329 1.023650
C30   C     C_R   0.223096 0.158717 0.946680 0.030267
C31   C     C_R   0.202939 0.195498 0.891428 -0.090596
C32   C     C_R   0.248222 0.286070 0.945044 -0.351945
C33   C     C_R   0.302379 0.341696 0.053551 0.485861
C34   C     C_R   0.535104 0.776055 0.165721 -0.350046
C35   C     C_R   0.312631 0.304670 0.108148 -0.206307
C36   C     C_R   0.277292 0.212428 0.053131 -0.092155
C37   C     C_3   0.220445 0.158419 0.058011 0.363297
C38   C     C_3   0.161941 0.098553 0.940323 -0.502887
C39   C     C_R   0.265722 0.274102 0.591893 -0.042481
C40   C     C_R   0.139972 0.139902 0.499795 0.858071
C41   C     C_R   0.198418 0.193942 0.500579 -0.227271
C42   C     C_R   0.194171 0.162378 0.410364 0.604853
C43   C     C_R   0.248323 0.216372 0.410725 -0.298690
C44   C     C_R   0.306343 0.302622 0.500345 -0.106942
C45   C     C_R   0.657613 0.707483 0.421432 0.613358
C46   C     C_R   0.317191 0.327381 0.591160 -0.063650
C47   C     C_3   0.327042 0.411171 0.678922 0.404589
C48   C     C_3   0.270951 0.351774 0.681282 0.257347
C49   C     C_R   0.841204 0.287766 0.562070 -0.275565
C50   C     C_R   0.804101 0.195747 0.507571 -0.167860
C51   C     C_R   0.712333 0.159710 0.461695 0.630286
C52   C     C_R   0.859169 0.859533 0.498894 0.866587
C53   C     C_R   0.658749 0.214023 0.460905 -0.293709
C54   C     C_R   0.695457 0.304133 0.503719 -0.161314
C55   C     C_R   0.787301 0.339147 0.554984 -0.172014
C56   C     C_R   0.697274 0.698029 0.502797 -0.212092
C57   C     C_3   0.848152 0.400949 0.561539 0.941097
C58   C     C_3   0.910832 0.345051 0.573756 0.754883
C59   C     C_R   0.360108 0.639689 0.499854 0.806959
C60   C     C_R   0.639984 0.359997 0.499807 0.843830
C61   C     C_R   0.640209 0.640028 0.780002 0.796190
C62   C     C_R   0.361177 0.360070 0.219891 0.821076
C63   C     C_R   0.359659 0.359857 0.499480 0.838549
C64   C     C_R   0.571758 0.849516 0.266653 -0.160671
C65   C     C_R   0.640517 0.640970 0.501282 0.869822
C66   C     C_R   0.632140 0.846834 0.350144 0.668880
C67   C     C_R   0.789952 0.742936 0.582919 0.049381
C68   C     C_R   0.657805 0.770863 0.332913 -0.095418
C69   C     C_3   0.276414 0.880696 0.417426 0.065405
C70   C     C_3   0.246619 0.915268 0.350905 -0.663129
C71   C     C_3   0.164925 0.568104 0.494330 0.244178
C72   C     C_3   0.105897 0.489573 0.469237 -0.767918
C73   C     C_3   0.328879 0.922836 0.769070 0.037238
C74   C     C_3   0.371623 0.003441 0.879410 -0.805016
C75   C     C_3   0.286419 0.476894 0.090445 0.070178
C76   C     C_3   0.336389 0.576814 0.170566 -0.665185
C77   C     C_3   0.335672 0.095411 0.104385 0.158796
C78   C     C_R   0.840800 0.793752 0.578021 -0.188880
C79   C     C_3   0.366754 0.040322 0.146791 -0.790781
C80   C     C_3   0.323715 0.422650 0.851881 0.031585
C81   C     C_3   0.401088 0.440381 0.952836 -0.703618
C82   C     C_3   0.746752 0.327973 0.378044 0.053489
C83   C     C_3   0.743289 0.327840 0.293672 -0.744326
C84   C     C_3   0.985240 0.340645 0.498844 0.198472
C85   C     C_3   0.988529 0.278834 0.407073 -0.872750
C86   C     C_3   0.999276 0.402635 0.753642 0.138820
C87   C     C_3   0.088004 0.471219 0.855121 -0.807138
C88   C     C_3   0.926380 0.935444 0.996451 0.128913
C89   C     C_R   0.801276 0.803847 0.497466 -0.127866
C90   C     C_3   0.914900 0.989282 0.083142 -0.732116
F1    F     F_    0.977373 0.754822 0.945159 -0.655620
F2    F     F_    0.568620 0.664881 0.343423 -0.648376
F3    F     F_    0.909203 0.645482 0.614540 -0.591239
F4    F     F_    0.128522 0.737920 0.598480 -0.613043
F5    F     F_    0.663242 0.916817 0.447380 -0.638615
F6    F     F_    0.134230 0.082180 0.320474 -0.672310
F7    F     F_    0.282451 0.461909 0.648816 -0.658878
F8    F     F_    0.673674 0.072158 0.415256 -0.648963
F9    F     F_    0.643073 0.622542 0.212076 -0.649909
F10   F     F_    0.884791 0.486221 0.650889 -0.647099
H1    H     H_    0.487362 0.777808 0.101197 0.201862
H2    H     H_    0.303593 0.706456 0.386415 0.181885
H3    H     H_    0.339811 0.744791 0.710741 0.093597
H4    H     H_    0.239599 0.314254 0.903104 0.179655
H5    H     H_    0.184778 0.196900 0.089813 0.092444
H6    H     H_    0.165208 0.029898 0.905811 0.232687
H7    H     H_    0.093002 0.101823 0.905505 0.162008
H8    H     H_    0.241516 0.192448 0.339701 0.200553
H9    H     H_    0.397579 0.449180 0.748273 0.094554
H10   H     H_    0.204221 0.358416 0.661707 0.116830
H11   H     H_    0.588234 0.184710 0.423841 0.194198
H12   H     H_    0.989364 0.662994 0.789677 0.240727
H13   H     H_    0.530823 0.643196 0.069514 0.178038
H14   H     H_    0.911750 0.827884 0.639840 0.191639
H15   H     H_    0.778652 0.832057 0.745072 0.192974
H16   H     H_    0.335522 0.860631 0.423677 0.140644
H17   H     H_    0.296281 0.936215 0.495733 0.126123
H18   H     H_    0.187535 0.935736 0.343148 0.295641
H19   H     H_    0.301816 0.973861 0.387197 0.196168
H20   H     H_    0.228482 0.862295 0.272910 0.251745
H21   H     H_    0.202406 0.542461 0.459796 0.121461
H22   H     H_    0.120264 0.598071 0.458299 0.162349
H23   H     H_    0.915141 0.783402 0.094569 0.211753
H24   H     H_    0.068315 0.513077 0.503986 0.283349
H25   H     H_    0.057401 0.441228 0.384216 0.180844
H26   H     H_    0.147801 0.455502 0.500257 0.292366
H27   H     H_    0.304149 0.946754 0.719043 0.151047
H28   H     H_    0.381176 0.893685 0.765654 0.116979
H29   H     H_    0.429118 0.052101 0.904069 0.207184
H30   H     H_    0.395994 0.982439 0.932168 0.249982
H31   H     H_    0.321794 0.036284 0.884124 0.258459
H32   H     H_    0.234247 0.458930 0.098734 0.128040
H33   H     H_    0.253602 0.462363 0.012627 0.124283
H34   H     H_    0.820729 0.687461 0.906622 0.214418
H35   H     H_    0.388053 0.597800 0.163688 0.271412
H36   H     H_    0.288637 0.613712 0.158320 0.180467
H37   H     H_    0.369413 0.593810 0.249511 0.287453
H38   H     H_    0.391994 0.158811 0.155451 0.163232
H39   H     H_    0.319011 0.057063 0.025197 0.142373
H40   H     H_    0.312383 0.975937 0.097340 0.265279
H41   H     H_    0.426184 0.026502 0.147939 0.202260
H42   H     H_    0.385285 0.077437 0.226781 0.263467
H43   H     H_    0.259960 0.404248 0.841657 0.153694
H44   H     H_    0.333041 0.485691 0.857755 0.149267
H45   H     H_    0.526530 0.732254 0.906795 0.217663
H46   H     H_    0.465542 0.459027 0.964444 0.258825
H47   H     H_    0.402460 0.496125 0.018350 0.232383
H48   H     H_    0.393379 0.379834 0.951457 0.268385
H49   H     H_    0.681762 0.330733 0.366922 0.139071
H50   H     H_    0.755263 0.264596 0.368180 0.160355
H51   H     H_    0.807812 0.326961 0.302777 0.251441
H52   H     H_    0.688540 0.267876 0.216701 0.194916
H53   H     H_    0.730603 0.388497 0.298213 0.276436
H54   H     H_    0.051885 0.361528 0.569593 0.190238
H55   H     H_    0.972430 0.400191 0.500179 0.184266
H56   H     H_    0.567040 0.638689 0.907015 0.209835
H57   H     H_    0.924849 0.258971 0.334127 0.252771
H58   H     H_    0.044767 0.312745 0.415202 0.219571
H59   H     H_    0.998897 0.217906 0.403267 0.262024
H60   H     H_    0.993881 0.337565 0.743446 0.156310
H61   H     H_    0.944981 0.425772 0.758988 0.177014
H62   H     H_    0.094152 0.537485 0.868447 0.283781
H63   H     H_    0.091815 0.476490 0.919861 0.196536
H64   H     H_    0.144154 0.450887 0.852855 0.230321
H65   H     H_    0.920450 0.971975 0.961551 0.121299
H66   H     H_    0.994697 0.930253 0.030808 0.195160
H67   H     H_    0.619770 0.825605 0.091803 0.220062
H68   H     H_    0.923416 0.955913 0.121702 0.273721
H69   H     H_    0.965972 0.057110 0.141195 0.228149
H70   H     H_    0.847148 0.995394 0.051666 0.233143
H71   H     H_    0.661423 0.732352 0.092279 0.221583
H72   H     H_    0.551597 0.907703 0.279918 0.216530
O1    O     O_3   0.000000 0.000000 0.500000 -0.516161
O2    O     O_R   0.384160 0.323450 0.268320 -0.646697
O3    O     O_R   0.384130 0.444860 0.560610 -0.596520
O4    O     O_R   0.115780 0.055050 0.731580 -0.632280
O5    O     O_R   0.555060 0.615780 0.439210 -0.575334
O6    O     O_R   0.384140 0.323430 0.439180 -0.648941
O7    O     O_R   0.676490 0.615760 0.560640 -0.632728
O8    O     O_R   0.676470 0.615740 0.731500 -0.641785
O9    O     O_R   0.384180 0.444900 0.268330 -0.593007
O10   O     O_R   0.384150 0.615750 0.560620 -0.626908
O11   O     O_R   0.555030 0.323430 0.439190 -0.661321
O12   O     O_R   0.823480 0.055090 0.439280 -0.587307
O13   O     O_R   0.823490 0.884220 0.268410 -0.644436
O14   O     O_R   0.944920 0.176520 0.560720 -0.631766
O15   O     O_R   0.115810 0.884200 0.439290 -0.606643
O16   O     O_R   0.115820 0.176530 0.560730 -0.641546
O17   O     O_R   0.944890 0.884180 0.560700 -0.628875
O18   O     O_R   0.115830 0.055100 0.439300 -0.604196
O19   O     O_R   0.823460 0.884190 0.439270 -0.637785
O20   O     O_3   0.205065 0.807131 0.370996 -0.580890
O21   O     O_3   0.225443 0.629743 0.603026 -0.530649
O22   O     O_3   0.257066 0.860553 0.739681 -0.604793
O23   O     O_R   0.115790 0.884180 0.560710 -0.602125
O24   O     O_3   0.348056 0.430829 0.106318 -0.567617
O25   O     O_3   0.260051 0.112598 0.103538 -0.578047
O26   O     O_3   0.322687 0.351423 0.769370 -0.606088
O27   O     O_3   0.817190 0.404589 0.475376 -0.585351
O28   O     O_3   0.916453 0.293341 0.488891 -0.659334
O29   O     O_3   0.996904 0.394645 0.671729 -0.625924
O30   O     O_3   0.859421 0.850441 0.921843 -0.592606
O31   O     O_R   0.115790 0.176500 0.731590 -0.653926
O32   O     O_R   0.944940 0.884220 0.268420 -0.633425
O33   O     O_3   0.499960 0.499960 0.499910 -0.510132
O34   O     O_R   0.384170 0.615770 0.439200 -0.665845
O35   O     O_R   0.676480 0.444870 0.560630 -0.594712
O36   O     O_R   0.555020 0.615730 0.731490 -0.640219
Zn1   Zn    Zn3+2 0.869870 0.956630 0.413250 1.015780
Zn2   Zn    Zn3+2 0.043380 0.130130 0.586750 0.979286
Zn3   Zn    Zn3+2 0.043390 0.956630 0.413260 1.005696
Zn4   Zn    Zn3+2 0.043360 0.956610 0.586740 1.017341
Zn5   Zn    Zn3+2 0.630090 0.543330 0.586660 1.017280
Zn6   Zn    Zn3+2 0.456570 0.543320 0.586650 0.992832
Zn7   Zn    Zn3+2 0.456580 0.369830 0.413160 0.962708
Zn8   Zn    Zn3+2 0.456590 0.543350 0.413170 0.997893

loop_
_geom_bond_atom_site_label_1
_geom_bond_atom_site_label_2
_ccdc_geom_bond_type
C66   C68   A    
C24   C25   A    
C1    O4    A    
C38   H6    S    
C59   O10   A    
C27   C29   S    
C90   H69   S    
C41   C42   A    
C71   H22   S    
C48   H10   S    
O1    Zn2   S    
C1    C31   S    
O18   Zn3   S    
C18   H45   S    
C76   H36   S    
O12   Zn1   S    
C39   C41   A    
C54   C60   S    
C53   C54   A    
C84   O28   S    
C12   C68   A    
C12   C23   A    
C58   O28   S    
C26   C27   S    
C63   O6    A    
C85   H57   S    
O6    Zn7   S    
C42   F6    S    
C36   C37   S    
C19   H71   S    
C18   C19   S    
C2    C68   S    
C5    C6    A    
C13   H23   S    
C84   H55   S    
C71   O21   S    
C79   H42   S    
C10   C17   A    
C29   O22   S    
C62   O2    A    
C80   O26   S    
O35   Zn5   S    
C28   O23   A    
C7    H12   S    
C65   O5    A    
O2    Zn7   S    
C73   C74   S    
C27   H3    S    
C38   H7    S    
C45   F2    S    
C12   F9    S    
C13   C14   A    
C86   H60   S    
C54   C55   A    
O16   Zn2   S    
C35   C36   A    
C45   C56   A    
C70   H20   S    
C8    C9    A    
C80   H44   S    
C47   C48   S    
C32   H4    S    
O31   Zn2   S    
C27   O21   S    
C37   O25   S    
C35   C62   S    
C87   H63   S    
C70   H19   S    
C24   H2    S    
C52   O17   A    
C25   C59   S    
C75   O24   S    
C23   C34   A    
C51   F8    S    
C87   H64   S    
C6    F1    S    
O33   Zn5   S    
C78   C89   A    
C74   H31   S    
C72   H24   S    
C16   O12   A    
O5    Zn8   S    
C90   H70   S    
C52   C89   S    
C78   H14   S    
C67   C78   A    
C19   H67   S    
C73   H28   S    
C69   O20   S    
C76   H35   S    
C44   C46   A    
C50   C51   A    
C83   H51   S    
C20   C29   S    
C77   C79   S    
C44   C63   S    
O11   Zn7   S    
C58   O29   S    
C34   H1    S    
C8    F3    S    
O3    Zn6   S    
C7    C8    A    
C77   H38   S    
C33   O24   S    
C28   O15   A    
C5    O30   S    
C86   C87   S    
C2    C45   A    
C14   H34   S    
C81   H47   S    
C25   C26   A    
C47   H9    S    
C57   F10   S    
C82   C83   S    
C49   C58   S    
O4    Zn4   S    
C73   O22   S    
C51   C53   A    
C52   O19   A    
C64   C66   A    
C4    O13   A    
C64   H72   S    
C2    C89   A    
C75   C76   S    
C9    C67   S    
C37   H5    S    
C37   C38   S    
C3    C9    A    
C80   H43   S    
C23   H13   S    
C31   C32   A    
C10   C19   S    
C16   O14   A    
C81   H48   S    
C49   C55   A    
O7    Zn5   S    
C34   C64   A    
C17   C18   S    
C15   C61   S    
C40   O18   A    
C86   H61   S    
C84   C85   S    
C4    C11   S    
C86   O29   S    
C82   H50   S    
O19   Zn1   S    
C39   C46   A    
C83   H53   S    
C59   O34   A    
C40   C41   S    
C21   C28   S    
C88   C90   S    
O33   Zn6   S    
C81   H46   S    
C88   H66   S    
C55   C57   S    
C43   C44   A    
C29   F4    S    
C22   C24   A    
O1    Zn4   S    
C42   C43   A    
C22   O20   S    
C1    O31   A    
C74   H30   S    
C18   H56   S    
C75   H32   S    
C83   H52   S    
O34   Zn8   S    
C15   C17   A    
C46   C47   S    
O8    Zn5   S    
O36   Zn6   S    
C84   H54   S    
C90   H68   S    
C71   H21   S    
C76   H37   S    
O1    Zn1   S    
O33   Zn8   S    
C77   H39   S    
C69   H16   S    
O15   Zn3   S    
C80   C81   S    
C3    C5    A    
O17   Zn4   S    
C75   H33   S    
C60   O35   A    
C63   O3    A    
C6    C7    A    
C40   O16   A    
C56   C67   A    
C65   O7    A    
C47   F7    S    
C30   C36   A    
C72   H25   S    
C32   C33   A    
O14   Zn2   S    
C82   O27   S    
C88   H65   S    
C73   H27   S    
O1    Zn3   S    
C62   O9    A    
C11   C13   A    
C30   C31   A    
C53   H11   S    
C57   C58   S    
C79   H41   S    
C70   H18   S    
C20   C26   A    
C60   O11   A    
O32   Zn3   S    
C69   H17   S    
C33   C35   A    
C79   H40   S    
O9    Zn8   S    
O13   Zn1   S    
C43   H8    S    
C69   C70   S    
C16   C50   S    
C82   H49   S    
C4    O32   A    
C10   C11   A    
C61   O36   A    
C72   H26   S    
O23   Zn4   S    
C87   H62   S    
C71   C72   S    
C20   C21   A    
O33   Zn7   S    
C61   O8    A    
C49   C50   A    
C85   H58   S    
C74   H29   S    
C48   O26   S    
O10   Zn6   S    
C14   C15   A    
C39   C48   S    
C3    H15   S    
C85   H59   S    
C30   C38   S    
C88   O30   S    
C21   C22   A    
C77   O25   S    
C57   O27   S    
C56   C65   S    
C66   F5    S    
