data_mof_unit_66437.cif
_audit_creation_date              2012-12-10T18:14:43-0500
_audit_creation_method            fapswitch 2.2
_symmetry_space_group_name_H-M    P1
_symmetry_Int_Tables_number       1
_space_group_crystal_system       triclinic
_cell_length_a                    18.344943
_cell_length_b                    18.344981
_cell_length_c                    36.227351
_cell_angle_alpha                 90.000016
_cell_angle_beta                  90.000021
_cell_angle_gamma                 90.000016
_cell_volume                      12191.866875

loop_
_atom_site_label
_atom_site_type_symbol
_atom_type_description
_atom_site_fract_x
_atom_site_fract_y
_atom_site_fract_z
_atom_type_partial_charge
C1    C     C_R   0.565982 0.004258 0.480710 -0.096624
C2    C     C_R   0.934119 0.494387 0.019290 -0.096628
C3    C     C_R   0.803812 0.696188 0.750000 0.043034
C4    C     C_R   0.696188 0.196188 0.250000 0.043029
C5    C     C_R   0.303812 0.803812 0.750000 0.043029
C6    C     C_R   0.803812 0.696188 0.250000 0.043035
C7    C     C_R   0.196188 0.303812 0.750000 0.043034
C8    C     C_R   0.303812 0.196188 0.750000 0.043034
C9    C     C_R   0.696188 0.803812 0.250000 0.043034
C10   C     C_R   0.196188 0.696188 0.750000 0.043029
C11   C     C_R   0.803812 0.303812 0.250000 0.043029
C12   C     C_R   0.696188 0.803812 0.750000 0.043034
C13   C     C_R   0.497371 0.066067 0.980710 -0.096623
C14   C     C_R   0.303812 0.196188 0.250000 0.043034
C15   C     C_R   0.803812 0.303812 0.750000 0.043029
C16   C     C_R   0.196188 0.696188 0.250000 0.043029
C17   C     C_2   0.170094 0.718578 0.182354 0.245952
C18   C     C_2   0.829906 0.281421 0.817646 0.245952
C19   C     C_2   0.281417 0.170090 0.182355 0.245981
C20   C     C_2   0.718584 0.829911 0.817645 0.245980
C21   C     C_2   0.829906 0.281421 0.182354 0.245952
C22   C     C_2   0.170093 0.718579 0.817646 0.245952
C23   C     C_2   0.718584 0.829912 0.182355 0.245980
C24   C     C_R   0.502629 0.933933 0.019290 -0.096623
C25   C     C_2   0.281418 0.170091 0.817646 0.245981
C26   C     C_2   0.170090 0.281417 0.817645 0.246051
C27   C     C_2   0.829913 0.718585 0.182355 0.246049
C28   C     C_2   0.281419 0.829908 0.817646 0.246023
C29   C     C_2   0.718580 0.170093 0.182354 0.246023
C30   C     C_2   0.829913 0.718585 0.817645 0.246050
C31   C     C_2   0.170089 0.281416 0.182355 0.246051
C32   C     C_2   0.718580 0.170093 0.817646 0.246023
C33   C     C_2   0.281421 0.829906 0.182354 0.246024
C34   C     C_2   0.670093 0.218579 0.682354 0.245967
C35   C     C_R   0.934119 0.494387 0.980710 -0.096627
C36   C     C_2   0.329906 0.781422 0.317646 0.245967
C37   C     C_2   0.781416 0.670089 0.682355 0.245967
C38   C     C_2   0.218582 0.329910 0.317646 0.245967
C39   C     C_2   0.329907 0.781420 0.682354 0.245966
C40   C     C_2   0.670094 0.218579 0.317646 0.245966
C41   C     C_2   0.218581 0.329909 0.682354 0.245968
C42   C     C_2   0.781416 0.670088 0.317645 0.245967
C43   C     C_2   0.670087 0.781415 0.317645 0.246037
C44   C     C_2   0.329910 0.218583 0.682354 0.246038
C45   C     C_2   0.781420 0.329907 0.317646 0.246037
C46   C     C_R   0.065881 0.505613 0.019290 -0.096627
C47   C     C_2   0.218581 0.670092 0.682354 0.246036
C48   C     C_2   0.329911 0.218583 0.317645 0.246038
C49   C     C_2   0.670088 0.781415 0.682355 0.246037
C50   C     C_2   0.218579 0.670093 0.317646 0.246037
C51   C     C_2   0.781420 0.329908 0.682354 0.246037
C52   C     C_R   0.502629 0.933933 0.980710 -0.096623
C53   C     C_R   0.497371 0.066067 0.019290 -0.096623
C54   C     C_1   0.500000 0.000000 0.421731 -0.040324
C55   C     C_1   0.500000 0.000000 0.578269 -0.040324
C56   C     C_1   0.000000 0.500000 0.421731 -0.040323
C57   C     C_R   0.434018 0.995742 0.519290 -0.096624
C58   C     C_1   0.000000 0.500000 0.578269 -0.040323
C59   C     C_1   0.000000 0.500000 0.921731 -0.040328
C60   C     C_1   1.000000 0.500000 0.078269 -0.040328
C61   C     C_1   0.500000 0.000000 0.921731 -0.040321
C62   C     C_1   0.500000 1.000000 0.078269 -0.040321
C63   C     C_1   1.000000 0.500000 0.111495 0.031794
C64   C     C_1   0.000000 0.500000 0.888505 0.031794
C65   C     C_1   0.500000 1.000000 0.111495 0.031794
C66   C     C_1   0.500000 0.000000 0.888505 0.031794
C67   C     C_1   0.500000 0.000000 0.611495 0.031794
C68   C     C_R   0.996056 0.566002 0.480710 -0.096624
C69   C     C_1   0.500000 0.000000 0.388505 0.031794
C70   C     C_1   0.000000 0.500000 0.611495 0.031795
C71   C     C_1   1.000000 0.500000 0.388505 0.031795
C72   C     C_R   1.000000 0.500000 0.349001 0.550331
C73   C     C_R   0.000000 0.500000 0.650999 0.550330
C74   C     C_R   0.500000 0.000000 0.349001 0.550331
C75   C     C_R   0.500000 0.000000 0.650999 0.550330
C76   C     C_R   0.500000 1.000000 0.849001 0.550331
C77   C     C_R   0.500000 1.000000 0.150999 0.550331
C78   C     C_R   0.000000 0.500000 0.849001 0.550327
C79   C     C_R   0.003944 0.433998 0.519290 -0.096624
C80   C     C_R   1.000000 0.500000 0.150999 0.550327
C81   C     C_R   0.140010 0.359990 0.250000 0.620979
C82   C     C_R   0.859990 0.640010 0.750000 0.620980
C83   C     C_R   0.640010 0.140010 0.250000 0.620981
C84   C     C_R   0.359990 0.859990 0.750000 0.620981
C85   C     C_R   0.859990 0.640009 0.250000 0.620980
C86   C     C_R   0.140009 0.359990 0.750000 0.620979
C87   C     C_R   0.359990 0.859990 0.250000 0.620981
C88   C     C_R   0.640009 0.140010 0.750000 0.620981
C89   C     C_R   0.140010 0.640010 0.750000 0.620981
C90   C     C_R   0.434018 0.995742 0.480710 -0.096624
C91   C     C_R   0.859990 0.359990 0.250000 0.620981
C92   C     C_R   0.640009 0.859990 0.750000 0.620980
C93   C     C_R   0.359990 0.140010 0.250000 0.620979
C94   C     C_R   0.859990 0.359990 0.750000 0.620981
C95   C     C_R   0.140010 0.640009 0.250000 0.620981
C96   C     C_R   0.359990 0.140010 0.750000 0.620979
C97   C     C_R   0.640009 0.859990 0.250000 0.620980
C98   C     C_R   0.212498 0.733259 0.216752 -0.048680
C99   C     C_R   0.787503 0.266741 0.783248 -0.048680
C100  C     C_R   0.266739 0.212495 0.216752 -0.048703
C101  C     C_R   0.565982 0.004258 0.519290 -0.096624
C102  C     C_R   0.733262 0.787505 0.783248 -0.048703
C103  C     C_R   0.787502 0.266741 0.216752 -0.048680
C104  C     C_R   0.212497 0.733260 0.783248 -0.048680
C105  C     C_R   0.733262 0.787505 0.216752 -0.048703
C106  C     C_R   0.266739 0.212496 0.783248 -0.048703
C107  C     C_R   0.212496 0.266739 0.783248 -0.048739
C108  C     C_R   0.787505 0.733262 0.216752 -0.048739
C109  C     C_R   0.266740 0.787503 0.783248 -0.048719
C110  C     C_R   0.733259 0.212497 0.216752 -0.048718
C111  C     C_R   0.787505 0.733262 0.783248 -0.048740
C112  C     C_R   0.003944 0.433998 0.480710 -0.096624
C113  C     C_R   0.212495 0.266738 0.216752 -0.048739
C114  C     C_R   0.733260 0.212497 0.783248 -0.048719
C115  C     C_R   0.266741 0.787503 0.216752 -0.048719
C116  C     C_R   0.712497 0.233259 0.716752 -0.048693
C117  C     C_R   0.287502 0.766741 0.283248 -0.048692
C118  C     C_R   0.766738 0.712495 0.716752 -0.048692
C119  C     C_R   0.233261 0.287505 0.283248 -0.048692
C120  C     C_R   0.287503 0.766740 0.716752 -0.048693
C121  C     C_R   0.712497 0.233259 0.283248 -0.048693
C122  C     C_R   0.233261 0.287504 0.716752 -0.048691
C123  C     C_R   0.996056 0.566002 0.519290 -0.096624
C124  C     C_R   0.766738 0.712495 0.283248 -0.048692
C125  C     C_R   0.712494 0.766738 0.283248 -0.048729
C126  C     C_R   0.287504 0.233261 0.716752 -0.048729
C127  C     C_R   0.766740 0.287503 0.283248 -0.048730
C128  C     C_R   0.233260 0.712497 0.716752 -0.048730
C129  C     C_R   0.287505 0.233261 0.283248 -0.048729
C130  C     C_R   0.712495 0.766738 0.716752 -0.048729
C131  C     C_R   0.233259 0.712497 0.283248 -0.048729
C132  C     C_R   0.766740 0.287503 0.716752 -0.048730
C133  C     C_R   0.500000 0.000000 0.461375 0.039212
C134  C     C_R   0.065881 0.505613 0.980710 -0.096627
C135  C     C_R   0.500000 0.000000 0.538625 0.039212
C136  C     C_R   0.000000 0.500000 0.461375 0.039216
C137  C     C_R   1.000000 0.500000 0.538625 0.039216
C138  C     C_R   0.000000 0.500000 0.961375 0.039195
C139  C     C_R   1.000000 0.500000 0.038625 0.039195
C140  C     C_R   0.500000 0.000000 0.961375 0.039227
C141  C     C_R   0.500000 1.000000 0.038625 0.039227
C142  C     C_R   0.303812 0.803812 0.250000 0.043029
C143  C     C_R   0.696188 0.196188 0.750000 0.043029
C144  C     C_R   0.196188 0.303812 0.250000 0.043034
H1    H     H_    0.117103 0.509977 0.034015 0.119102
H2    H     H_    0.382716 0.992432 0.465985 0.119081
H3    H     H_    0.992990 0.617318 0.534015 0.119077
H4    H     H_    0.007010 0.382682 0.465985 0.119077
H5    H     H_    0.382716 0.992432 0.534015 0.119081
H6    H     H_    0.617284 0.007567 0.465985 0.119081
H7    H     H_    0.007010 0.382682 0.534015 0.119077
H8    H     H_    0.992990 0.617318 0.465985 0.119077
H9    H     H_    0.197065 0.717076 0.155762 0.091488
H10   H     H_    0.802936 0.282922 0.844237 0.091489
H11   H     H_    0.282916 0.197058 0.155763 0.091608
H12   H     H_    0.882897 0.490023 0.965985 0.119102
H13   H     H_    0.717086 0.802944 0.844237 0.091608
H14   H     H_    0.802936 0.282923 0.155762 0.091488
H15   H     H_    0.197063 0.717079 0.844237 0.091488
H16   H     H_    0.717086 0.802944 0.155763 0.091608
H17   H     H_    0.282918 0.197060 0.844237 0.091607
H18   H     H_    0.197058 0.282916 0.844237 0.091748
H19   H     H_    0.802946 0.717088 0.155763 0.091748
H20   H     H_    0.282919 0.802939 0.844237 0.091632
H21   H     H_    0.717080 0.197062 0.155762 0.091632
H22   H     H_    0.802945 0.717088 0.844237 0.091748
H23   H     H_    0.495327 0.117434 0.034015 0.119064
H24   H     H_    0.197056 0.282914 0.155763 0.091748
H25   H     H_    0.717080 0.197062 0.844237 0.091632
H26   H     H_    0.282921 0.802937 0.155762 0.091632
H27   H     H_    0.697063 0.217078 0.655763 0.091542
H28   H     H_    0.302935 0.782923 0.344237 0.091542
H29   H     H_    0.782915 0.697057 0.655763 0.091555
H30   H     H_    0.217083 0.302941 0.344237 0.091555
H31   H     H_    0.302937 0.782921 0.655763 0.091542
H32   H     H_    0.697064 0.217078 0.344237 0.091542
H33   H     H_    0.217081 0.302940 0.655763 0.091555
H34   H     H_    0.504673 0.882566 0.965985 0.119064
H35   H     H_    0.782915 0.697056 0.344237 0.091555
H36   H     H_    0.697055 0.782912 0.344237 0.091696
H37   H     H_    0.302942 0.217084 0.655763 0.091696
H38   H     H_    0.782920 0.302938 0.344237 0.091683
H39   H     H_    0.217081 0.697061 0.655763 0.091684
H40   H     H_    0.302943 0.217085 0.344237 0.091696
H41   H     H_    0.697055 0.782912 0.655763 0.091697
H42   H     H_    0.217079 0.697063 0.344237 0.091683
H43   H     H_    0.782919 0.302938 0.655763 0.091683
H44   H     H_    0.882897 0.490023 0.034015 0.119102
H45   H     H_    0.117103 0.509977 0.965985 0.119102
H46   H     H_    0.504673 0.882566 0.034015 0.119064
H47   H     H_    0.495327 0.117434 0.965985 0.119064
H48   H     H_    0.617283 0.007567 0.534015 0.119081
O1    O     O_3   1.000000 0.500000 0.250000 -0.476940
O2    O     O_R   0.000000 0.560700 0.668450 -0.525116
O3    O     O_R   0.560700 0.000000 0.331550 -0.525116
O4    O     O_R   0.439300 0.000000 0.668450 -0.525116
O5    O     O_R   0.500000 0.060700 0.831550 -0.525116
O6    O     O_R   0.500000 0.939300 0.168450 -0.525117
O7    O     O_R   0.939300 0.500000 0.831550 -0.525113
O8    O     O_R   0.060700 0.500000 0.168450 -0.525113
O9    O     O_R   0.500000 0.939300 0.831550 -0.525117
O10   O     O_R   0.500000 0.060700 0.168450 -0.525117
O11   O     O_R   0.060700 0.500000 0.831550 -0.525113
O12   O     O_3   0.000000 0.500000 0.750000 -0.476940
O13   O     O_R   0.939300 0.500000 0.168450 -0.525114
O14   O     O_R   0.085400 0.353840 0.271430 -0.518483
O15   O     O_R   0.914600 0.646160 0.728570 -0.518483
O16   O     O_R   0.646160 0.085400 0.271430 -0.518482
O17   O     O_R   0.353840 0.914600 0.728570 -0.518483
O18   O     O_R   0.914600 0.646160 0.271430 -0.518483
O19   O     O_R   0.085400 0.353840 0.728570 -0.518484
O20   O     O_R   0.353840 0.914600 0.271430 -0.518483
O21   O     O_R   0.646160 0.085400 0.728570 -0.518483
O22   O     O_R   0.085400 0.646160 0.728570 -0.518461
O23   O     O_3   0.500000 0.000000 0.250000 -0.476939
O24   O     O_R   0.914600 0.353840 0.271430 -0.518461
O25   O     O_R   0.646160 0.914600 0.728570 -0.518462
O26   O     O_R   0.353840 0.085400 0.271430 -0.518462
O27   O     O_R   0.914600 0.353840 0.728570 -0.518461
O28   O     O_R   0.085400 0.646160 0.271430 -0.518461
O29   O     O_R   0.353840 0.085400 0.728570 -0.518462
O30   O     O_R   0.646160 0.914600 0.271430 -0.518462
O31   O     O_R   0.585400 0.853840 0.771430 -0.518478
O32   O     O_R   0.414600 0.146160 0.228570 -0.518478
O33   O     O_R   0.146160 0.585400 0.771430 -0.518487
O34   O     O_3   0.500000 0.000000 0.750000 -0.476939
O35   O     O_R   0.853840 0.414600 0.228570 -0.518487
O36   O     O_R   0.414600 0.146160 0.771430 -0.518478
O37   O     O_R   0.585400 0.853840 0.228570 -0.518478
O38   O     O_R   0.853840 0.414600 0.771430 -0.518487
O39   O     O_R   0.146160 0.585400 0.228570 -0.518487
O40   O     O_R   0.585400 0.146160 0.228570 -0.518466
O41   O     O_R   0.414600 0.853840 0.771430 -0.518466
O42   O     O_R   0.146160 0.414600 0.228570 -0.518456
O43   O     O_R   0.853840 0.585400 0.771430 -0.518456
O44   O     O_R   0.414600 0.853840 0.228570 -0.518466
O45   O     O_R   1.000000 0.560700 0.331550 -0.525116
O46   O     O_R   0.585400 0.146160 0.771430 -0.518466
O47   O     O_R   0.853840 0.585400 0.228570 -0.518456
O48   O     O_R   0.146160 0.414600 0.771430 -0.518456
O49   O     O_2   0.104145 0.709675 0.183320 -0.460290
O50   O     O_2   0.895855 0.290324 0.816679 -0.460290
O51   O     O_2   0.290321 0.104141 0.183322 -0.460258
O52   O     O_2   0.709680 0.895860 0.816677 -0.460258
O53   O     O_2   0.895855 0.290324 0.183320 -0.460290
O54   O     O_2   0.104144 0.709676 0.816679 -0.460290
O55   O     O_2   0.709680 0.895860 0.183323 -0.460258
O56   O     O_R   0.000000 0.439300 0.668450 -0.525116
O57   O     O_2   0.290322 0.104142 0.816678 -0.460257
O58   O     O_2   0.104141 0.290321 0.816677 -0.460203
O59   O     O_2   0.895861 0.709681 0.183324 -0.460203
O60   O     O_2   0.290323 0.895857 0.816678 -0.460226
O61   O     O_2   0.709677 0.104144 0.183321 -0.460226
O62   O     O_2   0.895861 0.709681 0.816677 -0.460203
O63   O     O_2   0.104140 0.290320 0.183323 -0.460203
O64   O     O_2   0.709677 0.104144 0.816679 -0.460226
O65   O     O_2   0.290324 0.895855 0.183321 -0.460226
O66   O     O_2   0.604144 0.209676 0.683321 -0.460274
O67   O     O_R   0.439300 0.000000 0.331550 -0.525115
O68   O     O_2   0.395855 0.790324 0.316679 -0.460274
O69   O     O_2   0.790320 0.604140 0.683323 -0.460271
O70   O     O_2   0.209679 0.395859 0.316678 -0.460272
O71   O     O_2   0.395856 0.790323 0.683321 -0.460274
O72   O     O_2   0.604145 0.209676 0.316679 -0.460274
O73   O     O_2   0.209678 0.395858 0.683322 -0.460271
O74   O     O_2   0.790320 0.604140 0.316677 -0.460271
O75   O     O_2   0.604139 0.790319 0.316677 -0.460213
O76   O     O_2   0.395859 0.209679 0.683322 -0.460213
O77   O     O_2   0.790323 0.395856 0.316679 -0.460214
O78   O     O_R   0.560700 0.000000 0.668450 -0.525116
O79   O     O_2   0.209677 0.604143 0.683322 -0.460215
O80   O     O_2   0.395860 0.209680 0.316677 -0.460213
O81   O     O_2   0.604139 0.790319 0.683323 -0.460213
O82   O     O_2   0.209677 0.604144 0.316679 -0.460215
O83   O     O_2   0.790323 0.395856 0.683321 -0.460214
O84   O     O_R   1.000000 0.439300 0.331550 -0.525116
Zn1   Zn    Zn3+2 0.086700 0.500000 0.219560 1.046988
Zn2   Zn    Zn3+2 0.413300 0.000000 0.280440 1.046986
Zn3   Zn    Zn3+2 0.000000 0.586700 0.719560 1.046986
Zn4   Zn    Zn3+2 1.000000 0.413300 0.280440 1.046986
Zn5   Zn    Zn3+2 0.413300 0.000000 0.719560 1.046987
Zn6   Zn    Zn3+2 0.586700 0.000000 0.280440 1.046987
Zn7   Zn    Zn3+2 0.000000 0.413300 0.719560 1.046986
Zn8   Zn    Zn3+2 1.000000 0.586700 0.280440 1.046986
Zn9   Zn    Zn3+2 0.913300 0.500000 0.780440 1.046988
Zn10  Zn    Zn3+2 0.500000 0.086700 0.219560 1.046986
Zn11  Zn    Zn3+2 0.500000 0.913300 0.780440 1.046986
Zn12  Zn    Zn3+2 0.913300 0.500000 0.219560 1.046988
Zn13  Zn    Zn3+2 0.086700 0.500000 0.780440 1.046988
Zn14  Zn    Zn3+2 0.500000 0.913300 0.219560 1.046986
Zn15  Zn    Zn3+2 0.500000 0.086700 0.780440 1.046986
Zn16  Zn    Zn3+2 0.586700 0.000000 0.719560 1.046987

loop_
_geom_bond_atom_site_label_1
_geom_bond_atom_site_label_2
_ccdc_geom_bond_type
C2    C35   A    
C24   C52   A    
O32   Zn10  S    
C32   H25   S    
O27   Zn7   S    
C88   O46   A    
C49   H41   S    
C19   H11   S    
C21   H14   S    
C41   O73   D    
C86   O19   A    
C8    C96   S    
C6    C124  A    
O47   Zn12  S    
C101  H48   S    
C17   H9    S    
C85   O18   A    
C43   C125  S    
C99   C114  A    
O12   Zn13  S    
C42   C124  S    
C47   C128  S    
C44   O76   D    
C73   O56   A    
O44   Zn14  S    
C74   O67   A    
C45   O77   D    
O48   Zn13  S    
C4    C83   S    
C44   C126  S    
C59   C64   T    
C91   O24   A    
C6    C85   S    
C12   C130  A    
C79   C112  A    
C103  C110  A    
C118  C130  A    
C2    C139  A    
C96   O36   A    
C134  H45   S    
C41   H33   S    
O37   Zn14  S    
C95   O39   A    
C121  C127  A    
C76   O5    A    
C38   O70   D    
C35   C138  A    
O78   Zn16  S    
C104  C109  A    
C10   C128  A    
C38   H30   S    
C46   H1    S    
C20   C102  S    
C22   H15   S    
C9    C105  A    
C39   C120  S    
C23   C105  S    
O23   Zn10  S    
O6    Zn14  S    
O17   Zn5   S    
C97   O30   A    
C34   O66   D    
C20   O52   D    
O36   Zn15  S    
C87   O20   A    
O15   Zn3   S    
C29   H21   S    
C78   O11   A    
C16   C131  A    
O45   Zn8   S    
C27   O59   D    
C26   O58   D    
C52   C140  A    
C25   O57   D    
C61   C66   T    
C53   H23   S    
C81   C144  S    
C97   O37   A    
C15   C132  A    
O84   Zn4   S    
C10   C89   S    
C3    C111  A    
O23   Zn2   S    
C57   H5    S    
C25   C106  S    
C26   C107  S    
O34   Zn16  S    
C30   O62   D    
C94   O38   A    
C29   O61   D    
C42   O74   D    
C17   C98   S    
O9    Zn11  S    
C14   C93   S    
C18   H10   S    
C13   H47   S    
O30   Zn6   S    
C27   H19   S    
C75   O4    A    
C18   O50   D    
O1    Zn4   S    
C40   C121  S    
C80   O13   A    
C115  C142  A    
C17   O49   D    
O2    Zn3   S    
O42   Zn1   S    
O22   Zn3   S    
C77   O10   A    
O43   Zn9   S    
C119  C144  A    
O24   Zn4   S    
C32   O64   D    
C102  C111  A    
C89   O33   A    
C112  C136  A    
C1    C133  A    
C33   H26   S    
C68   C123  A    
C82   O15   A    
C56   C136  S    
C45   H38   S    
C95   O28   A    
C13   C53   A    
C63   C80   S    
C101  C135  A    
O1    Zn1   S    
O7    Zn9   S    
C105  C108  A    
C43   H36   S    
C33   C115  S    
C65   C77   S    
C57   C90   A    
C37   C118  S    
C5    C120  A    
C31   O63   D    
C13   C140  A    
O5    Zn15  S    
C29   C110  S    
C68   C136  A    
C51   H43   S    
C35   H12   S    
C30   H22   S    
C39   H31   S    
O4    Zn5   S    
C88   O21   A    
C37   O69   D    
C25   H17   S    
C48   H40   S    
C5    C84   S    
O39   Zn1   S    
C76   O9    A    
C58   C70   T    
C21   O53   D    
C124  C125  A    
O13   Zn12  S    
O12   Zn3   S    
C54   C133  S    
C37   H29   S    
C26   H18   S    
C9    C125  A    
C87   O44   A    
C112  H4    S    
C73   O2    A    
C93   O26   A    
C85   O47   A    
C21   C103  S    
C41   C122  S    
C122  C126  A    
C11   C127  A    
C28   O60   D    
C88   C143  S    
C43   O75   D    
C83   O16   A    
C68   H8    S    
C3    C118  A    
C11   C91   S    
C46   C134  A    
C116  C143  A    
C86   O48   A    
O12   Zn9   S    
C116  C132  A    
C12   C102  A    
C42   H35   S    
O26   Zn2   S    
C56   C71   T    
C66   C76   S    
C23   H16   S    
C50   O82   D    
C3    C82   S    
C120  C128  A    
O34   Zn15  S    
O23   Zn6   S    
O14   Zn4   S    
C1    H6    S    
O28   Zn8   S    
C106  C107  A    
O34   Zn11  S    
C14   C100  A    
C36   C117  S    
O23   Zn14  S    
O31   Zn11  S    
C38   C119  S    
C58   C137  S    
C47   H39   S    
C79   C137  A    
C2    H44   S    
C123  H3    S    
C96   O29   A    
O1    Zn8   S    
O33   Zn13  S    
C20   H13   S    
O3    Zn6   S    
O46   Zn15  S    
C7    C107  A    
C48   C129  S    
O19   Zn7   S    
C78   O7    A    
C7    C122  A    
C50   H42   S    
C84   O17   A    
C1    C101  A    
C22   O54   D    
C69   C74   S    
C28   H20   S    
C40   H32   S    
C77   O6    A    
C79   H7    S    
C8    C126  A    
O21   Zn16  S    
C113  C144  A    
C4    C110  A    
C74   O3    A    
C16   C95   S    
C9    C97   S    
O25   Zn16  S    
C62   C65   T    
C91   O35   A    
C72   O84   A    
C64   C78   S    
C12   C92   S    
C92   O31   A    
C57   C135  A    
C100  C113  A    
O40   Zn10  S    
C8    C106  A    
C18   C99   S    
C134  C138  A    
C55   C67   T    
C51   C132  S    
C24   C141  A    
C61   C140  S    
O16   Zn6   S    
C75   O78   A    
C19   O51   D    
C28   C109  S    
C11   C103  A    
C49   C130  S    
C123  C137  A    
O12   Zn7   S    
C59   C138  S    
C70   C73   S    
C51   O83   D    
C30   C111  S    
O11   Zn13  S    
O18   Zn8   S    
C114  C143  A    
C81   O42   A    
O29   Zn5   S    
C84   O41   A    
C22   C104  S    
C71   C72   S    
C90   H2    S    
C39   O71   D    
O35   Zn12  S    
C90   C133  A    
C19   C100  S    
C15   C99   A    
C40   O72   D    
C16   C98   A    
C98   C115  A    
O41   Zn11  S    
C54   C69   T    
C5    C109  A    
C27   C108  S    
C45   C127  S    
O1    Zn12  S    
C55   C135  S    
C36   H28   S    
O38   Zn9   S    
C10   C104  A    
C94   O27   A    
C119  C129  A    
C4    C121  A    
C117  C142  A    
C93   O32   A    
C53   C141  A    
C46   C139  A    
C36   O68   D    
C87   C142  S    
C23   O55   D    
C92   O25   A    
C117  C131  A    
C52   H34   S    
O34   Zn5   S    
C60   C63   T    
C50   C131  S    
O10   Zn10  S    
C60   C139  S    
C49   O81   D    
C7    C86   S    
C47   O79   D    
C15   C94   S    
C67   C75   S    
C31   H24   S    
C48   O80   D    
O8    Zn1   S    
C83   O40   A    
C80   O8    A    
C33   O65   D    
C6    C108  A    
C72   O45   A    
C89   O22   A    
O67   Zn2   S    
C24   H46   S    
C62   C141  S    
C32   C114  S    
C82   O43   A    
C34   C116  S    
C44   H37   S    
C31   C113  S    
O56   Zn7   S    
C34   H27   S    
C81   O14   A    
C14   C129  A    
O20   Zn2   S    
