data_mof_unit_63731.cif
_audit_creation_date              2012-12-10T17:01:38-0500
_audit_creation_method            fapswitch 2.2
_symmetry_space_group_name_H-M    P1
_symmetry_Int_Tables_number       1
_space_group_crystal_system       triclinic
_cell_length_a                    20.121797
_cell_length_b                    22.653954
_cell_length_c                    15.091632
_cell_angle_alpha                 89.872437
_cell_angle_beta                  90.240602
_cell_angle_gamma                 90.032916
_cell_volume                      6879.26452258

loop_
_atom_site_label
_atom_site_type_symbol
_atom_type_description
_atom_site_fract_x
_atom_site_fract_y
_atom_site_fract_z
_atom_type_partial_charge
Br1   Br    Br    0.355527 0.156650 0.283730 -0.457613
Br2   Br    Br    0.226927 0.944312 0.478606 -0.471082
Br3   Br    Br    0.846701 0.651676 0.282046 -0.441958
Br4   Br    Br    0.726837 0.444189 0.477197 -0.461531
Br5   Br    Br    0.675314 0.839933 0.327439 -0.518081
Br6   Br    Br    0.570334 0.243862 0.496532 -0.469166
Br7   Br    Br    0.183425 0.344820 0.327966 -0.495035
Br8   Br    Br    0.070310 0.744024 0.498066 -0.488314
C1    C     C_R   0.372283 0.886586 0.486549 0.549948
C2    C     C_R   0.281785 0.741643 0.503479 0.018118
C3    C     C_R   0.758997 0.740682 0.540051 0.024955
C4    C     C_R   0.781780 0.241626 0.503723 0.018728
C5    C     C_R   0.298067 0.188991 0.549747 0.113665
C6    C     C_R   0.333775 0.783120 0.495890 0.106183
C7    C     C_R   0.801882 0.691875 0.550137 0.108385
C8    C     C_R   0.833777 0.283106 0.496254 0.106659
C9    C     C_R   0.314702 0.186947 0.389387 0.134466
C10   C     C_R   0.251881 0.862376 0.484026 0.110733
C11   C     C_R   0.810417 0.684516 0.388947 0.124736
C12   C     C_R   0.373476 0.114336 0.484669 0.549667
C13   C     C_R   0.751880 0.362294 0.483332 0.112549
C14   C     C_R   0.275090 0.236751 0.380089 -0.076935
C15   C     C_R   0.200886 0.821437 0.491290 -0.081363
C16   C     C_R   0.769503 0.733442 0.379552 -0.077477
C17   C     C_R   0.700885 0.321346 0.490447 -0.081703
C18   C     C_R   0.520371 0.995828 0.164208 0.027767
C19   C     C_R   0.020779 0.502114 0.163780 0.035822
C20   C     C_R   0.479013 0.000530 0.834805 0.091075
C21   C     C_R   0.979250 0.499700 0.834434 0.092503
C22   C     C_R   0.420199 0.031575 0.966037 -0.121533
C23   C     C_R   0.872281 0.386579 0.486538 0.553246
C24   C     C_R   0.913888 0.484080 0.966299 -0.122345
C25   C     C_R   0.423199 0.027159 0.874125 0.103653
C26   C     C_R   0.917858 0.486533 0.874242 0.100607
C27   C     C_R   0.531233 0.977582 0.886712 0.102860
C28   C     C_R   0.036276 0.511295 0.885602 0.101360
C29   C     C_R   0.626929 0.114011 0.513769 0.533588
C30   C     C_R   0.626672 0.885803 0.514045 0.532594
C31   C     C_R   0.126926 0.614023 0.513756 0.536701
C32   C     C_R   0.126801 0.385767 0.514110 0.529396
C33   C     C_R   0.528419 0.983198 0.979644 0.042717
C34   C     C_R   0.873585 0.614531 0.484562 0.574901
C35   C     C_R   0.031981 0.508574 0.978674 0.045544
C36   C     C_R   0.472036 0.009999 0.018747 -0.007398
C37   C     C_R   0.970071 0.495080 0.018496 -0.004700
C38   C     C_R   0.468126 0.015356 0.110549 -0.104863
C39   C     C_R   0.964902 0.492433 0.110471 -0.102408
C40   C     C_R   0.577094 0.971008 0.125971 -0.116063
C41   C     C_R   0.082326 0.514305 0.124707 -0.110412
C42   C     C_R   0.581023 0.964345 0.034580 -0.123767
C43   C     C_R   0.087956 0.517681 0.033111 -0.122448
C44   C     C_R   0.514544 0.999598 0.260239 0.522853
C45   C     C_R   0.743481 0.762275 0.453824 0.005422
C46   C     C_R   0.014582 0.500210 0.260122 0.522588
C47   C     C_R   0.484859 0.000005 0.738990 0.544644
C48   C     C_R   0.984692 0.499933 0.738828 0.556195
C49   C     C_R   0.326387 0.162804 0.474044 0.061111
C50   C     C_R   0.318429 0.843425 0.486335 0.061758
C51   C     C_R   0.826763 0.663410 0.474102 0.073529
C52   C     C_R   0.818439 0.343388 0.486254 0.062242
C53   C     C_R   0.675660 0.838898 0.519967 0.051980
C54   C     C_R   0.678130 0.159295 0.515947 0.049080
C55   C     C_R   0.176040 0.338817 0.520271 0.049417
C56   C     C_R   0.714540 0.261018 0.500879 0.001631
C57   C     C_R   0.178140 0.659312 0.515921 0.050317
C58   C     C_R   0.731366 0.768422 0.614343 -0.133353
C59   C     C_R   0.795477 0.181125 0.512330 -0.133208
C60   C     C_R   0.228362 0.265663 0.613878 -0.119448
C61   C     C_R   0.295484 0.681118 0.511606 -0.134217
C62   C     C_R   0.690527 0.816935 0.604209 -0.157105
C63   C     C_R   0.744244 0.140686 0.518378 -0.155282
C64   C     C_R   0.188202 0.314706 0.604092 -0.165404
C65   C     C_R   0.244259 0.640683 0.517760 -0.154076
C66   C     C_R   0.701663 0.811864 0.443835 0.149856
C67   C     C_R   0.246402 0.263840 0.454129 -0.000998
C68   C     C_R   0.662431 0.219544 0.507304 0.151396
C69   C     C_R   0.205164 0.313879 0.444383 0.148958
C70   C     C_R   0.162436 0.719600 0.507832 0.150399
C71   C     C_3   0.354761 0.191266 0.693726 -0.264936
C72   C     C_3   0.430568 0.752915 0.412842 -0.279388
C73   C     C_3   0.870784 0.702368 0.682051 -0.254872
C74   C     C_3   0.930829 0.252657 0.413959 -0.281218
C75   C     C_3   0.330368 0.007338 0.773489 -0.273468
C76   C     C_3   0.831911 0.524434 0.774311 -0.269820
C77   C     C_3   0.639750 0.988962 0.820085 -0.300598
C78   C     C_R   0.214544 0.761072 0.501259 0.002521
C79   C     C_3   0.138896 0.475804 0.821865 -0.305470
C80   C     C_R   0.258052 0.239575 0.539767 0.041477
H1    H     H_    0.625715 0.944872 0.008032 0.125426
H2    H     H_    0.150554 0.837977 0.490287 0.207172
H3    H     H_    0.669480 0.837113 0.662824 0.132682
H4    H     H_    0.756331 0.094184 0.523837 0.134174
H5    H     H_    0.165298 0.333417 0.662548 0.126717
H6    H     H_    0.256358 0.594164 0.522826 0.135623
H7    H     H_    0.424589 0.035261 0.140322 0.161688
H8    H     H_    0.917319 0.482443 0.140524 0.146855
H9    H     H_    0.617930 0.955621 0.166930 0.171052
H10   H     H_    0.126189 0.521799 0.165001 0.154937
H11   H     H_    0.377244 0.052042 0.996358 0.132664
H12   H     H_    0.136506 0.526967 0.006048 0.121483
H13   H     H_    0.866683 0.473780 0.997127 0.126076
H14   H     H_    0.307768 0.117463 0.637672 0.260618
H15   H     H_    0.399780 0.163314 0.701037 0.196865
H16   H     H_    0.332177 0.196820 0.760129 0.138271
H17   H     H_    0.369933 0.235434 0.668572 0.168136
H18   H     H_    0.414185 0.735204 0.547079 0.254551
H19   H     H_    0.484387 0.743426 0.420941 0.165842
H20   H     H_    0.425103 0.791699 0.368202 0.161348
H21   H     H_    0.406000 0.713977 0.382305 0.145844
H22   H     H_    0.779143 0.659220 0.675398 0.243031
H23   H     H_    0.234951 0.248003 0.679971 0.155861
H24   H     H_    0.887829 0.676508 0.740415 0.146444
H25   H     H_    0.852029 0.745623 0.705381 0.130264
H26   H     H_    0.914103 0.710279 0.638236 0.213358
H27   H     H_    0.914031 0.235356 0.548222 0.255329
H28   H     H_    0.984623 0.243192 0.422420 0.164789
H29   H     H_    0.925501 0.291306 0.369026 0.159043
H30   H     H_    0.906356 0.213627 0.383553 0.146393
H31   H     H_    0.342683 0.083344 0.850298 0.253329
H32   H     H_    0.278360 0.008162 0.797894 0.149419
H33   H     H_    0.349723 0.961627 0.781359 0.156301
H34   H     H_    0.345563 0.663940 0.511633 0.128343
H35   H     H_    0.330334 0.018677 0.701943 0.151110
H36   H     H_    0.825067 0.447990 0.851522 0.260113
H37   H     H_    0.782116 0.535217 0.801364 0.141089
H38   H     H_    0.826369 0.512682 0.703304 0.171826
H39   H     H_    0.863483 0.564604 0.779325 0.156729
H40   H     H_    0.601802 0.910910 0.873249 0.252266
H41   H     H_    0.663300 0.007857 0.880393 0.146509
H42   H     H_    0.621139 0.025383 0.777304 0.159988
H43   H     H_    0.677830 0.964050 0.782501 0.139445
H44   H     H_    0.122461 0.561070 0.868795 0.255287
H45   H     H_    0.740007 0.752800 0.681062 0.125682
H46   H     H_    0.156671 0.454410 0.883876 0.147835
H47   H     H_    0.182589 0.490942 0.783283 0.142378
H48   H     H_    0.111298 0.442972 0.781385 0.166324
H49   H     H_    0.845563 0.163964 0.512839 0.128408
H50   H     H_    0.759169 0.748742 0.313070 0.204975
H51   H     H_    0.650542 0.337853 0.488966 0.206374
H52   H     H_    0.268009 0.254143 0.314022 0.204702
N1    N     N_2   0.307075 0.162938 0.635342 -0.525105
N2    N     N_2   0.401800 0.765288 0.498442 -0.501231
N3    N     N_2   0.819141 0.669802 0.635947 -0.521948
N4    N     N_2   0.901797 0.265292 0.499311 -0.500867
N5    N     N_2   0.370198 0.050191 0.821395 -0.523215
N6    N     N_2   0.860184 0.474688 0.821982 -0.515014
N7    N     N_2   0.586036 0.949677 0.844149 -0.515475
N8    N     N_2   0.096978 0.525822 0.842088 -0.521423
O1    O     O_3   0.500000 0.000000 0.500000 -0.471339
O2    O     O_R   0.135640 0.430410 0.463140 -0.497688
O3    O     O_R   0.456890 0.000000 0.295720 -0.525002
O4    O     O_R   0.956890 0.500000 0.295720 -0.527144
O5    O     O_R   0.488070 0.049450 0.698020 -0.545698
O6    O     O_R   0.488070 0.950550 0.698020 -0.532160
O7    O     O_R   0.988070 0.549450 0.698020 -0.542011
O8    O     O_R   0.988070 0.450550 0.698020 -0.539515
O9    O     O_R   0.370630 0.069610 0.433010 -0.482370
O10   O     O_R   0.370630 0.930390 0.433010 -0.506647
O11   O     O_R   0.870630 0.569610 0.433010 -0.483397
O12   O     O_3   0.000000 0.500000 0.500000 -0.472525
O13   O     O_R   0.870630 0.430390 0.433010 -0.508983
O14   O     O_R   0.574320 0.880940 0.560740 -0.542714
O15   O     O_R   0.574320 0.119060 0.560740 -0.500555
O16   O     O_R   0.074320 0.380940 0.560740 -0.552181
O17   O     O_R   0.074320 0.619060 0.560740 -0.497269
O18   O     O_R   0.566990 0.000000 0.308240 -0.524214
O19   O     O_R   0.066990 0.500000 0.308240 -0.526038
O20   O     O_R   0.419410 0.880950 0.543120 -0.519376
O21   O     O_R   0.419410 0.119050 0.543120 -0.531240
O22   O     O_R   0.919410 0.380950 0.543120 -0.512108
O23   O     O_R   0.919410 0.619050 0.543120 -0.523539
O24   O     O_R   0.635640 0.069590 0.463140 -0.545190
O25   O     O_R   0.635640 0.930410 0.463140 -0.501589
O26   O     O_R   0.135640 0.569590 0.463140 -0.548023
Zn1   Zn    Zn3+2 0.583120 0.000000 0.434770 0.984905
Zn2   Zn    Zn3+2 0.083120 0.500000 0.434770 0.984066
Zn3   Zn    Zn3+2 0.425830 0.000000 0.416880 1.017723
Zn4   Zn    Zn3+2 0.925830 0.500000 0.416880 1.019599
Zn5   Zn    Zn3+2 0.495530 0.070660 0.574170 0.964430
Zn6   Zn    Zn3+2 0.495530 0.929340 0.574170 0.951751
Zn7   Zn    Zn3+2 0.995530 0.570660 0.574170 0.974010
Zn8   Zn    Zn3+2 0.995530 0.429340 0.574170 0.953897

loop_
_geom_bond_atom_site_label_1
_geom_bond_atom_site_label_2
_ccdc_geom_bond_type
C53   C62   A    
C75   H32   S    
C47   O6    A    
O2    Zn2   S    
C6    N2    S    
O6    Zn6   S    
Br2   C10   S    
C31   C57   S    
C24   C37   A    
O12   Zn7   S    
C45   C66   A    
C46   O19   A    
C48   O8    A    
C71   H15   S    
C29   O24   A    
C23   O13   A    
C29   C54   S    
C19   C46   S    
C58   C62   A    
C40   H9    S    
C21   C28   A    
O18   Zn1   S    
C32   C55   S    
C14   C67   A    
C17   H51   S    
O10   Zn3   S    
C32   O16   A    
C48   O7    A    
C4    C56   A    
O3    Zn3   S    
C5    C49   A    
C14   H52   S    
O1    Zn5   S    
C57   C65   A    
C71   H17   S    
C1    C50   S    
C8    C52   A    
Br5   C66   S    
C44   O18   A    
C41   H10   S    
C75   N5    S    
C3    C7    A    
C28   N8    S    
C63   H4    S    
C4    C8    A    
C20   C27   A    
C41   C43   A    
C15   C78   A    
C72   H21   S    
C60   H23   S    
C39   H8    S    
C61   C65   A    
H14   N1    S    
C5    N1    S    
O14   Zn6   S    
C3    C45   A    
C3    C58   A    
C18   C40   A    
Br7   C69   S    
C30   C53   S    
C77   H41   S    
C70   C78   A    
C76   H39   S    
C40   C42   A    
C12   O21   A    
O22   Zn8   S    
Br8   C70   S    
O12   Zn2   S    
C79   H46   S    
C54   C68   A    
C65   H6    S    
C31   O26   A    
C27   C33   A    
O12   Zn8   S    
C20   C47   S    
C36   C38   A    
H18   N2    S    
C37   C39   A    
C76   H38   S    
C6    C50   A    
C4    C59   A    
C79   N8    S    
C38   H7    S    
C10   C15   A    
H44   N8    S    
C79   H47   S    
C13   C52   A    
C74   N4    S    
C2    C6    A    
C61   H34   S    
O8    Zn8   S    
C30   O25   A    
C46   O4    A    
C16   H50   S    
C16   C45   A    
O20   Zn6   S    
H36   N6    S    
C22   H11   S    
O1    Zn6   S    
O1    Zn1   S    
C17   C56   A    
C24   C26   A    
C23   C52   S    
C31   O17   A    
C18   C44   S    
C77   H42   S    
C58   H45   S    
C35   C37   A    
O9    Zn3   S    
C42   H1    S    
C72   H19   S    
C73   H24   S    
C73   N3    S    
C60   C64   A    
O1    Zn3   S    
C56   C68   A    
C15   H2    S    
C32   O2    A    
C27   N7    S    
C75   H33   S    
Br3   C11   S    
C67   C69   A    
C62   H3    S    
O12   Zn4   S    
O25   Zn1   S    
C25   N5    S    
C7    N3    S    
C64   H5    S    
C21   C48   S    
C22   C36   A    
C20   C25   A    
C72   N2    S    
C12   O9    A    
O15   Zn5   S    
C60   C80   A    
C33   C36   A    
C71   H16   S    
C74   H30   S    
O11   Zn4   S    
C33   C42   A    
O24   Zn1   S    
C55   C69   A    
C19   C39   A    
C76   H37   S    
C47   O5    A    
C13   C17   A    
H27   N4    S    
C2    C78   A    
C57   C70   A    
C22   C25   A    
C8    N4    S    
C7    C51   A    
C79   H48   S    
O23   Zn7   S    
C1    O20   A    
C77   N7    S    
O5    Zn5   S    
C34   C51   S    
O7    Zn7   S    
H40   N7    S    
Br6   C68   S    
C23   O22   A    
C76   N6    S    
C53   C66   A    
H31   N5    S    
C72   H20   S    
Br1   C9    S    
C9    C14   A    
C29   O15   A    
C43   H12   S    
C73   H26   S    
C11   C51   A    
C11   C16   A    
C12   C49   S    
O17   Zn7   S    
C77   H43   S    
Br4   C13   S    
C26   N6    S    
C35   C43   A    
C71   N1    S    
C1    O10   A    
C44   O3    A    
C21   C26   A    
C5    C80   A    
C10   C50   A    
C54   C63   A    
C59   C63   A    
O4    Zn4   S    
H22   N3    S    
C59   H49   S    
O26   Zn2   S    
O16   Zn8   S    
C34   O23   A    
C18   C38   A    
C74   H28   S    
C2    C61   A    
C67   C80   A    
C30   O14   A    
C55   C64   A    
C34   O11   A    
C73   H25   S    
C24   H13   S    
C28   C35   A    
C74   H29   S    
C75   H35   S    
O13   Zn4   S    
O21   Zn5   S    
C19   C41   A    
C9    C49   A    
O19   Zn2   S    
