data_mof_unit_61550.cif
_audit_creation_date              2012-12-11T14:24:18-0500
_audit_creation_method            fapswitch 2.2
_symmetry_space_group_name_H-M    P1
_symmetry_Int_Tables_number       1
_space_group_crystal_system       triclinic
_cell_length_a                    6.947767
_cell_length_b                    17.471616
_cell_length_c                    18.874822
_cell_angle_alpha                 105.284322
_cell_angle_beta                  89.777778
_cell_angle_gamma                 90.501592
_cell_volume                      2210.06245239

loop_
_atom_site_label
_atom_site_type_symbol
_atom_type_description
_atom_site_fract_x
_atom_site_fract_y
_atom_site_fract_z
_atom_type_partial_charge
O1    O     O_R   0.494360 0.416740 0.414860 -0.510179
O2    O     O_R   0.818980 0.432970 0.557290 -0.526597
O3    O     O_R   0.994290 0.583260 0.585140 -0.543263
C1    C     C_R   0.650007 0.415956 0.580641 0.723220
O4    O     O_R   0.823740 0.407570 0.413690 -0.542723
O5    O     O_R   0.999090 0.557670 0.440510 -0.526655
C2    C     C_R   0.653535 0.383651 0.387931 0.708435
O6    O     O_R   0.489560 0.442330 0.559490 -0.521494
O7    O     O_3   0.662450 0.549280 0.508970 -0.371414
V1    V     V_3+5 0.935350 0.490860 0.498340 1.459880
O8    O     O_R   0.329100 0.567030 0.442710 -0.527863
C3    C     C_R   0.160922 0.584058 0.419369 0.714501
O9    O     O_R   0.324330 0.592430 0.586310 -0.542776
C4    C     C_R   0.154876 0.614533 0.613759 0.763408
V2    V     V_3+5 0.435960 0.509140 0.501660 1.458470
O10   O     O_3   0.158990 0.450720 0.491030 -0.344990
C5    C     C_2   0.284314 0.784534 0.787297 0.496589
C6    C     C_2   0.117646 0.818531 0.818087 -0.397704
H1    H     H_    0.980435 0.798364 0.792669 0.107936
C7    C     C_2   0.290845 0.721205 0.715887 -0.220749
C8    C     C_2   0.138308 0.679218 0.682294 -0.377568
H2    H     H_    0.431820 0.707783 0.690843 0.158969
H3    H     H_    0.995642 0.690190 0.705925 0.134269
C9    C     C_1   0.110763 0.863935 0.132654 -0.194652
C10   C     C_1   0.118328 0.821368 0.176214 0.015072
C11   C     C_1   0.127815 0.771149 0.228097 0.010075
C12   C     C_1   0.135921 0.728859 0.271890 0.007032
C13   C     C_1   0.145406 0.678635 0.323769 0.006015
C14   C     C_1   0.152970 0.636057 0.367324 -0.209202
C15   C     C_1   0.641377 0.364021 0.632673 -0.194290
C16   C     C_1   0.636976 0.321434 0.676241 0.010806
C17   C     C_1   0.633249 0.271195 0.728126 0.007433
C18   C     C_1   0.630421 0.228873 0.771936 0.005731
C19   C     C_1   0.626700 0.178632 0.823820 0.004983
C20   C     C_1   0.622312 0.136041 0.867386 -0.205218
C21   C     C_2   0.774876 0.208147 0.221270 0.451868
C22   C     C_2   0.620701 0.186640 0.176219 -0.321722
H4    H     H_    0.496220 0.225070 0.184201 0.165422
C23   C     C_2   0.779359 0.283377 0.280637 -0.244963
C24   C     C_2   0.634043 0.309941 0.328102 0.186122
H5    H     H_    0.914440 0.316318 0.287896 0.156740
O11   O     O_R   0.774180 0.057760 0.940580 -0.527478
O12   O     O_R   0.439830 0.092440 0.086330 -0.522991
O13   O     O_R   0.264640 0.942310 0.059470 -0.524293
C25   C     C_R   0.609616 0.115157 0.113358 0.788339
O14   O     O_R   0.444740 0.067040 0.942730 -0.531863
O15   O     O_R   0.269590 0.916730 0.914840 -0.503827
C26   C     C_R   0.613709 0.084092 0.919405 0.709852
O16   O     O_R   0.769230 0.083340 0.085210 -0.508564
O17   O     O_3   0.601340 0.950770 0.991070 -0.365031
V3    V     V_3+5 0.328370 0.009130 0.001660 1.522440
O18   O     O_R   0.939550 0.907490 0.913620 -0.549709
C27   C     C_R   0.109019 0.884940 0.886255 0.754394
O19   O     O_R   0.934640 0.932890 0.057220 -0.527588
C28   C     C_R   0.102810 0.915913 0.080599 0.743495
V4    V     V_3+5 0.827780 0.990750 0.998250 1.488760
O20   O     O_3   0.104690 0.049230 0.008930 -0.353538
O21   O     O_3   0.458719 0.813856 0.819167 -0.536440
C29   C     C_3   0.548542 0.755037 0.845996 -0.225722
H6    H     H_    0.603836 0.706153 0.800319 0.112118
H7    H     H_    0.450315 0.731195 0.882001 0.112517
H8    H     H_    0.673836 0.782240 0.879866 0.163724
Cl1   Cl    Cl    0.988132 0.151924 0.210959 -0.569018
Cl2   Cl    Cl    0.419469 0.254245 0.327528 -0.578531

loop_
_geom_bond_atom_site_label_1
_geom_bond_atom_site_label_2
_ccdc_geom_bond_type
O5    V1    S    
O2    C1    A    
O8    C3    A    
C22   H4    S    
V3    O20   S    
O15   V3    S    
C3    C14   S    
O16   V4    S    
O17   V4    S    
O7    V1    S    
C2    C24   S    
C16   C17   S    
C24   Cl2   S    
C25   O16   A    
C5    O21   S    
C1    O6    A    
C17   C18   T    
O9    V2    S    
C5    C6    D    
O7    V2    S    
C29   H6    S    
C23   H5    S    
O3    V1    S    
O11   C26   A    
O9    C4    A    
C7    C8    D    
C9    C28   S    
O12   C25   A    
O13   C28   A    
O12   V3    S    
C11   C12   T    
O3    C4    A    
O1    V2    S    
O15   C27   A    
O13   V3    S    
C21   C22   D    
C7    H2    S    
C18   C19   S    
O6    V2    S    
O19   V4    S    
C8    H3    S    
O5    C3    A    
C15   C16   T    
C19   C20   T    
O14   C26   A    
C29   H7    S    
V4    O20   S    
C20   C26   S    
C23   C24   D    
C22   C25   S    
V2    O10   S    
C21   Cl1   S    
O4    V1    S    
C5    C7    S    
C9    C10   T    
C4    C8    S    
C6    H1    S    
C12   C13   S    
O4    C2    A    
O19   C28   A    
C13   C14   T    
C29   H8    S    
V1    O10   S    
O17   V3    S    
C6    C27   S    
O11   V4    S    
C10   C11   S    
O1    C2    A    
O21   C29   S    
O8    V2    S    
O14   V3    S    
C21   C23   S    
C1    C15   S    
O18   V4    S    
O18   C27   A    
O2    V1    S    
