data_mof_unit_12118.cif
_audit_creation_date              2012-12-10T17:43:22-0500
_audit_creation_method            fapswitch 2.2
_symmetry_space_group_name_H-M    P1
_symmetry_Int_Tables_number       1
_space_group_crystal_system       triclinic
_cell_length_a                    15.044689
_cell_length_b                    13.706404
_cell_length_c                    10.611305
_cell_angle_alpha                 90.174741
_cell_angle_beta                  89.95663
_cell_angle_gamma                 90.071665
_cell_volume                      2188.12968573

loop_
_atom_site_label
_atom_site_type_symbol
_atom_type_description
_atom_site_fract_x
_atom_site_fract_y
_atom_site_fract_z
_atom_type_partial_charge
C1    C     C_R   0.329015 0.499926 0.500169 0.957935
C2    C     C_R   0.670965 0.500057 0.500290 0.961904
C3    C     C_R   0.952987 0.499120 0.500969 -0.008729
C4    C     C_R   0.046933 0.498986 0.500990 -0.010495
C5    C     C_R   0.906144 0.460058 0.396561 0.053920
C6    C     C_R   0.093784 0.538464 0.605138 0.047485
C7    C     C_R   0.953905 0.576869 0.707641 -0.150384
C8    C     C_R   0.045978 0.420682 0.294647 -0.152909
C9    C     C_R   0.046111 0.576879 0.707573 -0.147052
C10   C     C_R   0.953775 0.420926 0.294553 -0.161447
C11   C     C_R   0.450479 0.793283 0.586913 0.080530
C12   C     C_R   0.549083 0.206716 0.412504 0.075347
C13   C     C_R   0.549411 0.792991 0.412943 0.073119
C14   C     C_R   0.450896 0.206942 0.587333 0.075674
C15   C     C_R   0.550046 0.896138 0.409612 -0.121033
C16   C     C_R   0.449387 0.103764 0.589580 -0.118092
C17   C     C_R   0.449711 0.896467 0.590037 -0.126187
C18   C     C_R   0.550662 0.103515 0.410187 -0.125413
C19   C     C_R   0.499928 0.948194 0.499849 -0.042669
C20   C     C_R   0.500007 0.051755 0.499878 -0.039699
C21   C     C_R   0.599208 0.948029 0.318178 0.340294
C22   C     C_R   0.398162 0.051852 0.678745 0.328697
C23   C     C_R   0.400352 0.948689 0.681291 0.339828
C24   C     C_R   0.601736 0.051210 0.320917 0.326874
C25   C     C_R   0.499922 0.499809 0.259129 0.865113
C26   C     C_R   0.500059 0.500223 0.740877 0.859800
C27   C     C_3   0.427785 0.547722 0.042247 -0.128367
C28   C     C_3   0.572187 0.452502 0.957781 -0.111910
C29   C     C_3   0.501785 0.592975 0.959849 -0.161387
C30   C     C_3   0.498210 0.407225 0.040174 -0.134073
C31   C     C_3   0.426101 0.455625 0.957729 -0.112827
C32   C     C_3   0.573856 0.544562 0.042308 -0.119038
C33   C     C_3   0.500083 0.500789 0.877641 -0.005429
C34   C     C_3   0.499884 0.499387 0.122378 -0.009294
C35   C     C_R   0.812855 0.461276 0.396390 0.246534
C36   C     C_R   0.187109 0.538572 0.604524 0.252773
C37   C     C_R   0.767253 0.500098 0.500449 -0.206688
C38   C     C_R   0.232698 0.499653 0.500448 -0.212253
C39   C     C_R   0.812859 0.538558 0.604762 0.255735
C40   C     C_R   0.187029 0.460195 0.396780 0.252520
C41   C     C_R   0.906187 0.538531 0.605221 0.044539
C42   C     C_R   0.093711 0.459569 0.396739 0.046509
Cu1   Cu    Cu3+1 0.500000 0.597420 0.500000 0.995525
Cu2   Cu    Cu3+1 0.500000 0.402580 0.500000 0.993792
H1    H     H_    0.365716 0.419339 0.919784 0.175298
H2    H     H_    0.634316 0.580477 0.080459 0.174242
H3    H     H_    0.368773 0.586595 0.080090 0.175163
H4    H     H_    0.631263 0.413734 0.919963 0.177450
H5    H     H_    0.503425 0.668961 0.924124 0.153388
H6    H     H_    0.496798 0.331168 0.075858 0.174210
H7    H     H_    0.920764 0.607649 0.788995 0.206786
H8    H     H_    0.079100 0.389535 0.213511 0.204155
H9    H     H_    0.079284 0.607669 0.788882 0.208095
H10   H     H_    0.920562 0.389842 0.213445 0.201081
H11   H     H_    0.411772 0.751864 0.654104 0.190630
H12   H     H_    0.587164 0.248136 0.344612 0.185352
H13   H     H_    0.588171 0.751368 0.345818 0.164978
H14   H     H_    0.412629 0.248535 0.655057 0.162633
N1    N     N_R   0.500000 0.743810 0.500000 -0.209497
N2    N     N_R   0.500000 0.256190 0.500000 -0.207199
O1    O     O_R   0.370260 0.582280 0.500030 -0.564183
O2    O     O_R   0.629740 0.417720 0.499970 -0.572922
O3    O     O_R   0.629740 0.582280 0.499970 -0.560858
O4    O     O_R   0.370260 0.417720 0.500030 -0.568547
O5    O     O_R   0.499980 0.582260 0.316850 -0.615364
O6    O     O_R   0.500020 0.417740 0.683150 -0.610962
O7    O     O_R   0.500020 0.582260 0.683150 -0.571359
O8    O     O_R   0.499980 0.417740 0.316850 -0.566018
Cl1   Cl    Cl    0.751632 0.418173 0.264383 -0.710918
Cl2   Cl    Cl    0.248346 0.584468 0.735076 -0.686898
Cl3   Cl    Cl    0.751646 0.583749 0.735767 -0.665583
Cl4   Cl    Cl    0.248133 0.415078 0.265641 -0.662284
O9    O     O_3   0.650200 0.898370 0.230527 -0.571707
C43   C     C_3   0.599081 0.884128 0.120466 0.048925
H15   H     H_    0.578029 0.955155 0.079351 0.174338
H16   H     H_    0.539173 0.839020 0.140777 0.119676
C44   C     C_3   0.655074 0.830514 0.023084 -0.719966
H17   H     H_    0.676370 0.758815 0.060897 0.251547
H18   H     H_    0.615793 0.818265 0.935970 0.189806
H19   H     H_    0.714880 0.874400 0.999399 0.259488
O10   O     O_3   0.349870 0.101796 0.769109 -0.582027
C45   C     C_3   0.262419 0.114939 0.724192 0.071868
H20   H     H_    0.226921 0.043707 0.719080 0.188870
H21   H     H_    0.261888 0.149793 0.629331 0.134678
C46   C     C_3   0.212370 0.181469 0.814548 -0.739148
H22   H     H_    0.245928 0.253603 0.820186 0.248912
H23   H     H_    0.143271 0.192151 0.780611 0.202379
H24   H     H_    0.210315 0.148416 0.909939 0.259435
O11   O     O_3   0.349292 0.899184 0.768732 -0.561840
C47   C     C_3   0.400669 0.884492 0.878298 0.070184
H25   H     H_    0.414783 0.955320 0.925975 0.175539
H26   H     H_    0.464618 0.847330 0.855990 0.110443
C48   C     C_3   0.349040 0.819878 0.968861 -0.745948
H27   H     H_    0.334711 0.748351 0.923721 0.278368
H28   H     H_    0.388638 0.807324 0.055505 0.177161
H29   H     H_    0.285386 0.855489 0.995182 0.262395
O12   O     O_3   0.650046 0.100339 0.230077 -0.580792
C49   C     C_3   0.737783 0.113272 0.274223 0.092176
H30   H     H_    0.768412 0.042605 0.302450 0.169378
H31   H     H_    0.738868 0.164362 0.356028 0.148873
C50   C     C_3   0.794104 0.156630 0.169266 -0.705470
H32   H     H_    0.764210 0.225889 0.135914 0.283636
H33   H     H_    0.862291 0.171589 0.204458 0.198303
H34   H     H_    0.798029 0.104624 0.088977 0.240573

loop_
_geom_bond_atom_site_label_1
_geom_bond_atom_site_label_2
_ccdc_geom_bond_type
C48   H27   S    
C29   C33   S    
C27   C29   S    
O9    C43   S    
Cu2   O6    S    
C19   C20   A    
C6    C9    A    
O10   C45   S    
Cu1   O3    S    
C39   C41   A    
C29   H5    S    
C44   H17   S    
Cu2   O4    S    
C15   C19   A    
C17   C23   A    
C43   H16   S    
C18   C24   A    
C26   O7    A    
C35   C37   A    
C8    C42   A    
C29   C32   S    
C30   C31   S    
C44   H19   S    
C13   H13   S    
C21   O9    S    
C11   C17   A    
C43   C44   S    
C23   O11   S    
C8    H8    S    
Cu1   O5    S    
C25   C34   S    
C40   C42   A    
C30   H6    S    
C50   H33   S    
C28   H4    S    
C25   O8    A    
C11   N1    A    
C50   H32   S    
C36   Cl2   S    
O12   C49   S    
C44   H18   S    
C27   C34   S    
C14   H14   S    
C43   H15   S    
C30   C34   S    
C46   H23   S    
C27   C31   S    
C24   O12   S    
C26   O6    A    
C22   O10   S    
C28   C32   S    
C25   O5    A    
C4    C6    A    
Cu2   O2    S    
C46   H22   S    
C32   C34   S    
Cu1   Cu2   S    
C26   C33   S    
C47   H26   S    
C16   C20   A    
C31   C33   S    
C12   H12   S    
C1    C38   S    
Cu1   O7    S    
C28   C33   S    
C45   H20   S    
C50   H34   S    
C45   H21   S    
C13   C15   A    
C14   C16   A    
Cu2   O8    S    
C9    H9    S    
C3    C4    A    
C49   C50   S    
C1    O4    A    
C11   H11   S    
C2    O3    A    
Cu1   O1    S    
C47   C48   S    
C46   H24   S    
C27   H3    S    
C7    C9    A    
C3    C41   A    
C16   C22   A    
C40   Cl4   S    
C32   H2    S    
C3    C5    A    
C1    O1    A    
C13   N1    A    
Cu1   N1    S    
C48   H29   S    
C45   C46   S    
C14   N2    A    
C49   H31   S    
C28   C30   S    
C7    H7    S    
C5    C10   A    
C37   C39   A    
C38   C40   A    
C2    C37   S    
C47   H25   S    
C48   H28   S    
C4    C42   A    
Cu2   N2    S    
C5    C35   A    
C36   C38   A    
C17   C19   A    
C6    C36   A    
C18   C20   A    
C7    C41   A    
C10   H10   S    
C12   N2    A    
C15   C21   A    
C35   Cl1   S    
C8    C10   A    
C49   H30   S    
C31   H1    S    
C21   C24   A    
C12   C18   A    
C39   Cl3   S    
C22   C23   A    
O11   C47   S    
C2    O2    A    
