data_mof_unit_42605.cif
_audit_creation_date              2012-12-10T17:11:53-0500
_audit_creation_method            fapswitch 2.2
_symmetry_space_group_name_H-M    P1
_symmetry_Int_Tables_number       1
_space_group_crystal_system       triclinic
_cell_length_a                    19.178801
_cell_length_b                    10.707998
_cell_length_c                    10.034555
_cell_angle_alpha                 89.6355
_cell_angle_beta                  90.191339
_cell_angle_gamma                 90.704567
_cell_volume                      2060.55360252

loop_
_atom_site_label
_atom_site_type_symbol
_atom_type_description
_atom_site_fract_x
_atom_site_fract_y
_atom_site_fract_z
_atom_type_partial_charge
C1    C     C_R   0.492257 0.263496 0.499637 0.922121
C2    C     C_R   0.854202 0.504385 0.510601 -0.013441
C3    C     C_2   0.455498 0.931117 0.410208 -0.123983
C4    C     C_R   0.365755 0.500534 0.500023 0.854818
C5    C     C_2   0.500750 0.870435 0.492710 -0.199895
C6    C     C_2   0.463136 0.064752 0.389680 -0.026082
C7    C     C_2   0.469168 0.135445 0.499760 -0.298480
C8    C     C_2   0.510088 0.598912 0.924497 -0.197217
C9    C     C_2   0.522980 0.593032 0.072207 -0.005577
C10   C     C_R   0.498741 0.737515 0.499161 0.912203
C11   C     C_R   0.633944 0.499434 0.500185 0.806363
C12   C     C_R   0.289755 0.498363 0.499760 -0.172630
C13   C     C_R   0.253203 0.595964 0.561939 -0.016699
C14   C     C_R   0.179814 0.594589 0.557972 -0.066247
C15   C     C_R   0.144748 0.500843 0.484526 -0.063315
C16   C     C_R   0.181056 0.404097 0.421100 -0.007879
C17   C     C_R   0.254261 0.402193 0.430094 -0.120556
C18   C     C_2   0.292024 0.703061 0.623048 0.557580
C19   C     C_2   0.562879 0.928229 0.558475 0.364086
C20   C     C_2   0.467184 0.109289 0.249213 0.447220
C21   C     C_2   0.562365 0.700071 0.127711 0.521837
C22   C     C_2   0.138643 0.685600 0.636820 0.519971
C23   C     C_R   0.929589 0.501048 0.501100 0.356167
C24   C     C_2   0.142542 0.300862 0.352413 0.518909
C25   C     C_2   0.294818 0.300147 0.367707 0.449302
C26   C     C_2   0.857358 0.737411 0.548829 0.518639
C27   C     C_2   0.704155 0.732257 0.540707 0.413023
C28   C     C_2   0.708430 0.267268 0.467358 0.492582
C29   C     C_2   0.394536 0.871810 0.340341 0.439066
C30   C     C_R   0.069205 0.497416 0.486117 0.318599
C31   C     C_R   0.818510 0.617812 0.527828 -0.027214
C32   C     C_R   0.745013 0.616185 0.522809 -0.076660
C33   C     C_R   0.709396 0.501643 0.501107 -0.149764
C34   C     C_R   0.745575 0.388736 0.487517 -0.068582
C35   C     C_R   0.818013 0.391802 0.493361 -0.113451
H1    H     H_    0.514870 0.688844 0.874724 0.160549
H2    H     H_    0.161688 0.206056 0.357821 0.097367
H3    H     H_    0.340776 0.264528 0.417494 0.068474
H4    H     H_    0.838760 0.823276 0.503976 0.120705
H5    H     H_    0.656046 0.744628 0.485556 0.092425
H6    H     H_    0.651987 0.262697 0.462042 0.078238
H7    H     H_    0.846940 0.306351 0.480382 0.198978
H8    H     H_    0.368255 0.922654 0.261295 0.094914
H9    H     H_    0.339785 0.688601 0.678491 0.070393
H10   H     H_    0.579805 0.893396 0.654959 0.103814
H11   H     H_    0.497952 0.057622 0.178209 0.051920
H12   H     H_    0.460553 0.093309 0.597454 0.147557
H13   H     H_    0.503101 0.415803 0.899093 0.184422
H14   H     H_    0.555310 0.792632 0.085437 0.005551
H15   H     H_    0.469905 0.434453 0.103010 0.200212
H16   H     H_    0.089283 0.719766 0.599374 0.095453
N1    N     N_R   0.032768 0.578553 0.409978 -0.120538
N2    N     N_R   0.963745 0.580019 0.417074 -0.129604
N3    N     N_R   0.966092 0.417999 0.575011 -0.130127
N4    N     N_R   0.035151 0.416540 0.567993 -0.134377
N5    N     N_2   0.500750 0.501330 0.852150 -0.177655
N6    N     N_2   0.500770 0.501360 0.147810 -0.182895
O1    O     O_R   0.499990 0.319060 0.613040 -0.620638
O2    O     O_2   0.598168 0.008203 0.502320 -0.523453
O3    O     O_2   0.431850 0.195966 0.209388 -0.544413
O4    O     O_2   0.606492 0.685498 0.213834 -0.540837
O5    O     O_2   0.158049 0.719109 0.747117 -0.504282
O6    O     O_2   0.089920 0.320889 0.287258 -0.521593
O7    O     O_2   0.279034 0.258694 0.258473 -0.517754
O8    O     O_2   0.909447 0.741654 0.619063 -0.538174
O9    O     O_2   0.722180 0.812269 0.620276 -0.538196
O10   O     O_2   0.740564 0.170105 0.456414 -0.504525
O11   O     O_2   0.370920 0.769901 0.372556 -0.564990
O12   O     O_R   0.500010 0.319100 0.386900 -0.581255
O13   O     O_R   0.398130 0.499970 0.613110 -0.635664
O14   O     O_R   0.398150 0.500010 0.386970 -0.556609
O15   O     O_R   0.499990 0.680900 0.613100 -0.650386
O16   O     O_R   0.500010 0.680940 0.386960 -0.558801
O17   O     O_R   0.601850 0.499990 0.613030 -0.596939
O18   O     O_R   0.601870 0.500030 0.386890 -0.559791
O19   O     O_2   0.271963 0.810052 0.607985 -0.527812
Zn1   Zn    Zn3+2 0.499990 0.499970 0.650990 0.968457
Zn2   Zn    Zn3+2 0.500010 0.500030 0.349010 1.057063

loop_
_geom_bond_atom_site_label_1
_geom_bond_atom_site_label_2
_ccdc_geom_bond_type
C2    C35   A    
C3    C6    S    
C8    N5    D    
C4    O13   A    
C13   C18   S    
C23   N3    A    
C10   O16   A    
C26   H4    S    
C15   C16   A    
C28   H6    S    
C34   C35   A    
C8    H1    S    
C3    C29   S    
C35   H7    S    
O1    Zn1   S    
C8    C9    S    
O17   Zn1   S    
C12   C17   A    
O16   Zn2   S    
C23   N2    A    
C20   O3    D    
C21   O4    D    
C28   C34   S    
C26   C31   S    
C16   C24   S    
C13   C14   A    
C29   H8    S    
O13   Zn1   S    
C26   O8    D    
O12   Zn2   S    
C21   H14   S    
C33   C34   A    
C11   C33   S    
C28   O10   D    
C16   C17   A    
C19   O2    D    
C1    O12   A    
N5    Zn1   S    
C2    C31   A    
C25   O7    D    
C7    H12   S    
O15   Zn1   S    
C18   H9    S    
C25   H3    S    
C22   O5    D    
C29   O11   D    
C31   C32   A    
C27   H5    S    
C24   H2    S    
C24   O6    D    
C4    C12   S    
N1    N2    A    
C15   C30   S    
H13   N5    S    
C30   N1    A    
N3    N4    A    
C18   O19   D    
C27   C32   S    
C1    C7    S    
H15   N6    S    
N6    Zn2   S    
C3    C5    D    
C11   O17   A    
C19   H10   S    
C6    C7    D    
C5    C19   S    
C6    C20   S    
C30   N4    A    
C17   C25   S    
C32   C33   A    
C14   C22   S    
C5    C10   S    
C27   O9    D    
C11   O18   A    
C1    O1    A    
C9    C21   S    
C9    N6    D    
C4    O14   A    
O18   Zn2   S    
C12   C13   A    
C2    C23   S    
C14   C15   A    
O14   Zn2   S    
C20   H11   S    
C22   H16   S    
C10   O15   A    
