data_mof_unit_34328.cif
_audit_creation_date              2012-12-11T14:13:12-0500
_audit_creation_method            fapswitch 2.2
_symmetry_space_group_name_H-M    P1
_symmetry_Int_Tables_number       1
_space_group_crystal_system       triclinic
_cell_length_a                    8.74127
_cell_length_b                    15.45482
_cell_length_c                    17.471452
_cell_angle_alpha                 96.777345
_cell_angle_beta                  95.625675
_cell_angle_gamma                 100.356728
_cell_volume                      2288.37856691

loop_
_atom_site_label
_atom_site_type_symbol
_atom_type_description
_atom_site_fract_x
_atom_site_fract_y
_atom_site_fract_z
_atom_type_partial_charge
Ba1   Ba    Ba6+2 0.849890 0.543710 0.463630 1.935134
Ba2   Ba    Ba6+2 0.339940 0.456360 0.536380 1.977976
C1    C     C_3   0.625078 0.858102 0.266586 0.199264
C2    C     C_3   0.644364 0.770771 0.294592 0.419721
C3    C     C_3   0.384714 0.265465 0.300308 0.271659
C4    C     C_3   0.401646 0.226944 0.217775 0.631817
C5    C     C_3   0.167388 0.256524 0.735357 0.403834
C6    C     C_3   0.202814 0.229192 0.817787 0.703581
C7    C     C_3   0.594995 0.217943 0.774419 0.837761
C8    C     C_3   0.594670 0.176398 0.854037 0.658515
C9    C     C_R   0.305896 0.504663 0.277107 -0.155788
C10   C     C_R   0.142922 0.483056 0.256268 0.087536
C11   C     C_R   0.083386 0.490192 0.179054 0.104633
C12   C     C_3   0.179582 0.829219 0.275894 0.703122
C13   C     C_R   0.184304 0.513605 0.122811 0.035782
C14   C     C_R   0.346068 0.537856 0.146951 0.016085
C15   C     C_R   0.406234 0.536761 0.224434 0.082831
C16   C     C_R   0.109989 0.538229 0.833139 -0.118322
C17   C     C_R   0.049630 0.529182 0.753525 -0.022026
C18   C     C_R   0.789177 0.463160 0.787027 -0.064459
C19   C     C_R   0.849530 0.474943 0.867244 0.338729
C20   C     C_R   0.010951 0.512583 0.890613 0.023872
C21   C     C_1   0.075240 0.516510 0.972839 0.239889
C22   C     C_1   0.123825 0.515990 0.041197 0.108969
C23   C     C_3   0.145643 0.891463 0.216223 0.241790
C24   C     C_R   0.885519 0.501987 0.736439 0.088123
C25   C     C_R   0.773303 0.228554 0.510900 0.246591
C26   C     C_R   0.862663 0.171222 0.541869 0.067164
C27   C     C_R   0.795613 0.080483 0.539484 -0.019057
C28   C     C_R   0.635854 0.046023 0.509398 0.105278
C29   C     C_R   0.544311 0.110256 0.489143 -0.017944
C30   C     C_R   0.611491 0.201439 0.492439 0.118195
C31   C     C_R   0.408337 0.912419 0.465667 -0.152937
C32   C     C_R   0.341646 0.821499 0.454459 0.031953
C33   C     C_R   0.585127 0.788366 0.514751 -0.100884
C34   C     C_3   0.179837 0.740227 0.647159 0.409255
C35   C     C_R   0.651357 0.880824 0.525390 -0.159940
C36   C     C_R   0.565321 0.945507 0.500265 0.086174
C37   C     C_R   0.430275 0.759942 0.477679 0.180414
C38   C     C_3   0.114929 0.815248 0.692432 0.343974
C39   C     C_3   0.850016 0.267530 0.255939 0.537579
C40   C     C_3   0.862333 0.169131 0.240811 0.313024
C41   C     C_3   0.582654 0.736197 0.694327 0.294797
C42   C     C_3   0.584661 0.830897 0.729124 -0.305928
H1    H     H_    0.761908 0.779358 0.328236 0.066375
H2    H     H_    0.200662 0.878623 0.696539 0.016269
H3    H     H_    0.005464 0.824965 0.659927 0.016017
H4    H     H_    0.753714 0.273509 0.291479 0.015451
H5    H     H_    0.754816 0.129042 0.205840 0.097569
H6    H     H_    0.962871 0.162826 0.208172 0.130792
H7    H     H_    0.573407 0.694349 0.741749 0.124655
H8    H     H_    0.479007 0.711182 0.651158 0.029925
H9    H     H_    0.727103 0.883904 0.237619 0.148757
H10   H     H_    0.680009 0.850160 0.778067 0.187856
H11   H     H_    0.471872 0.836020 0.751514 0.166288
H12   H     H_    0.604618 0.876196 0.684866 0.113960
H13   H     H_    0.553866 0.754724 0.333633 0.008828
H14   H     H_    0.267417 0.236719 0.315322 0.117564
H15   H     H_    0.401694 0.339104 0.305729 -0.078031
H16   H     H_    0.525265 0.243745 0.212026 0.049750
H17   H     H_    0.518417 0.847407 0.223929 0.133121
H18   H     H_    0.254175 0.911553 0.189358 0.104898
H19   H     H_    0.277837 0.290408 0.717613 0.037949
H20   H     H_    0.096019 0.307387 0.734638 -0.019956
H21   H     H_    0.310065 0.208909 0.811904 -0.056558
H22   H     H_    0.485048 0.180561 0.877993 0.043532
H23   H     H_    0.233064 0.565861 0.850494 0.144001
H24   H     H_    0.424473 0.562348 0.106621 0.094397
H25   H     H_    0.959219 0.478633 0.162386 0.170738
H26   H     H_    0.354375 0.501496 0.335890 0.010344
H27   H     H_    0.334017 0.955626 0.445680 0.077386
H28   H     H_    0.870757 0.038219 0.560861 0.081247
H29   H     H_    0.768503 0.900804 0.555387 0.092889
H30   H     H_    0.294611 0.861498 0.308878 -0.154536
H31   H     H_    0.421590 0.091513 0.467957 0.087864
H32   H     H_    0.119880 0.951935 0.248154 0.115492
H33   H     H_    0.277513 0.772948 0.618335 -0.260779
H34   H     H_    0.097869 0.702842 0.598170 0.097978
O1    O     O_2   0.849470 0.455720 0.314640 -0.455767
O2    O     O_3   0.723116 0.731501 0.663365 -0.541568
O3    O     O_3   0.063011 0.819587 0.326471 -0.621975
O4    O     O_2   0.340240 0.544310 0.685400 -0.432976
O5    O     O_3   0.079710 0.546180 0.591070 -0.444027
O6    O     O_3   0.542640 0.381210 0.637190 -0.361545
O7    O     O_3   0.239154 0.687010 0.698099 -0.618973
O8    O     O_3   0.602990 0.392320 0.460230 -0.385651
O9    O     O_3   0.114850 0.335810 0.598580 -0.522118
O10   O     O_2   0.181161 0.179509 0.538984 -0.414095
O11   O     O_3   0.103964 0.182765 0.678895 -0.516154
O12   O     O_3   0.110000 0.453900 0.408940 -0.475873
O13   O     O_3   0.586730 0.607760 0.539780 -0.388698
O14   O     O_2   0.329480 0.280220 0.460820 -0.457861
O15   O     O_3   0.504062 0.241555 0.346903 -0.653108
O16   O     O_2   0.474639 0.450949 0.770834 -0.429781
O17   O     O_3   0.528501 0.296498 0.786330 -0.688515
O18   O     O_3   0.647080 0.618870 0.362820 -0.551688
O19   O     O_2   0.736377 0.558327 0.227998 -0.387855
O20   O     O_3   0.992572 0.312721 0.301146 -0.626558
O21   O     O_3   0.628395 0.704289 0.230228 -0.549858
O22   O     O_2   0.860230 0.719810 0.539220 -0.455304
O23   O     O_3   0.074870 0.664270 0.401430 -0.376233
O24   O     O_2   0.032078 0.819048 0.471882 -0.519035
P1    P     P_3+3 0.017890 0.428700 0.326140 1.109966
P2    P     P_3+3 0.687140 0.705880 0.561850 1.133259
P3    P     P_3+3 0.131925 0.781569 0.412780 1.079542
P4    P     P_3+3 0.171830 0.571380 0.673870 1.115409
P5    P     P_3+3 0.065832 0.218278 0.588243 1.141227
P6    P     P_3+3 0.604837 0.599719 0.261857 1.099326
P7    P     P_3+3 0.505618 0.278963 0.444358 1.116906
P8    P     P_3+3 0.590501 0.393395 0.742311 1.159784
S1    S     S_3+6 0.079295 0.798761 0.790126 -0.006642
O25   O     O_2   0.969818 0.712192 0.790556 -0.290917
O26   O     O_2   0.231739 0.799331 0.838346 -0.233495
O27   O     O_3   0.997535 0.880884 0.829790 -0.495942
H35   H     H_    0.987274 0.869269 0.883792 0.404290
S2    S     S_3+6 0.796511 0.299983 0.160362 -0.088521
O28   O     O_2   0.676168 0.226056 0.113360 -0.315153
O29   O     O_2   0.721403 0.379662 0.171316 -0.277927
O30   O     O_3   0.938733 0.320312 0.103425 -0.442903
H36   H     H_    0.937447 0.262854 0.071268 0.423723
S3    S     S_3+6 0.886602 0.121595 0.327902 -0.107535
O31   O     O_2   0.017177 0.177960 0.384240 -0.335157
O32   O     O_2   0.735160 0.114589 0.361794 -0.350351
O33   O     O_3   0.926506 0.019853 0.308754 -0.528675
H37   H     H_    0.941407 0.999268 0.360085 0.371426
O34   O     O_3   0.614139 0.919875 0.329988 -0.741162
H38   H     H_    0.563898 0.965823 0.308463 0.379758
S4    S     S_3+6 0.302449 0.276954 0.147057 -0.025149
O35   O     O_2   0.411535 0.353718 0.124662 -0.281095
O36   O     O_2   0.176045 0.310953 0.185127 -0.358544
O37   O     O_3   0.225135 0.205362 0.066875 -0.386221
H39   H     H_    0.316284 0.186188 0.045394 0.403882
S5    S     S_3+6 0.347512 0.108444 0.201539 -0.066772
O38   O     O_2   0.448006 0.071754 0.145709 -0.265693
O39   O     O_2   0.372333 0.071739 0.276706 -0.339282
O40   O     O_3   0.158413 0.077424 0.164340 -0.506214
H40   H     H_    0.159320 0.048228 0.110841 0.411005
S6    S     S_3+6 0.250348 0.318058 0.898064 -0.048400
O41   O     O_2   0.123028 0.314909 0.950071 -0.164175
O42   O     O_2   0.275122 0.405468 0.867998 -0.406152
O43   O     O_3   0.416569 0.310113 0.951380 -0.490148
H41   H     H_    0.455130 0.369860 0.981365 0.401885
S7    S     S_3+6 0.097107 0.128861 0.845236 0.111784
O44   O     O_2   0.205830 0.093336 0.900219 -0.242813
O45   O     O_2   0.962462 0.147071 0.887204 -0.124094
O46   O     O_3   0.032772 0.050998 0.767425 -0.425345
H42   H     H_    0.107700 0.010160 0.767655 0.394782
S8    S     S_3+6 0.789271 0.239682 0.749874 -0.072289
O47   O     O_2   0.837449 0.153285 0.728090 -0.180536
O48   O     O_2   0.802802 0.290418 0.682003 -0.488571
O49   O     O_3   0.905218 0.295632 0.828404 -0.473512
H43   H     H_    0.960642 0.349988 0.812260 0.301779
S9    S     S_3+6 0.479563 0.141341 0.694407 -0.061954
O50   O     O_2   0.325958 0.096584 0.714958 -0.337377
O51   O     O_2   0.449922 0.192820 0.629020 -0.335004
O52   O     O_3   0.573079 0.060013 0.664669 -0.478446
H44   H     H_    0.490955 0.005584 0.651348 0.346080
S10   S     S_3+6 0.595262 0.059150 0.853300 0.055207
O53   O     O_2   0.632522 0.043181 0.935773 -0.217080
O54   O     O_2   0.435802 0.005165 0.822784 -0.235497
O55   O     O_3   0.726232 0.023088 0.800148 -0.411552
H45   H     H_    0.786286 0.991534 0.834798 0.396578
S11   S     S_3+6 0.198591 0.723959 0.229460 -0.107422
O56   O     O_2   0.286458 0.682370 0.287970 -0.438560
O57   O     O_2   0.039010 0.667151 0.205325 -0.275066
O58   O     O_3   0.298165 0.734449 0.152282 -0.538702
H46   H     H_    0.229256 0.697415 0.107620 0.368635
O59   O     O_3   0.712359 0.226665 0.910642 -0.599505
H47   H     H_    0.683184 0.215182 0.962510 0.377489
O60   O     O_3   0.759047 0.445855 0.923067 -0.647406
H48   H     H_    0.648184 0.429576 0.900194 0.340683
S12   S     S_3+6 0.791669 0.535133 0.657769 -0.025121
O61   O     O_2   0.632707 0.551072 0.671906 -0.280527
O62   O     O_2   0.885463 0.620314 0.645084 -0.316944
O63   O     O_3   0.783175 0.455377 0.583639 -0.435151
H49   H     H_    0.858024 0.418777 0.601074 0.319651
O64   O     O_3   0.359048 0.672134 0.468486 -0.725645
H50   H     H_    0.420161 0.640223 0.434115 0.299612
O65   O     O_3   0.843156 0.308540 0.490682 -0.732842
H51   H     H_    0.946670 0.303119 0.474490 0.321519
S13   S     S_3+6 0.990202 0.848885 0.137820 0.024268
O66   O     O_2   0.057262 0.808106 0.069563 -0.204700
O67   O     O_2   0.866487 0.780016 0.160998 -0.226317
O68   O     O_3   0.905979 0.931310 0.109277 -0.439641
H52   H     H_    0.878778 0.962705 0.157202 0.355845

loop_
_geom_bond_atom_site_label_1
_geom_bond_atom_site_label_2
_ccdc_geom_bond_type
C38   H3    S    
O34   H38   S    
S7    O46   S    
C39   C40   S    
Ba2   O6    S    
S1    O25   D    
S8    O49   S    
O13   P2    S    
S4    O35   D    
O27   H35   S    
C1    O34   S    
C5    C6    S    
C24   S12   S    
S13   O66   D    
O68   H52   S    
C38   H2    S    
O21   P6    S    
Ba1   O12   S    
C11   H25   S    
C3    H14   S    
O2    P2    S    
C12   H30   S    
C26   C27   A    
S11   O57   D    
C35   C36   A    
S8    O48   D    
Ba1   Ba2   S    
C4    S5    S    
C34   H33   S    
C28   C29   A    
O14   P7    D    
O60   H48   S    
C1    H17   S    
O20   P1    S    
C5    O11   S    
O22   P2    D    
S2    O28   D    
C28   C36   S    
O24   P3    D    
C6    S6    S    
C16   C17   A    
C12   S11   S    
Ba2   O12   S    
C17   C24   A    
S3    O33   S    
C35   H29   S    
S10   O55   S    
O19   P6    D    
C9    C15   A    
S11   O56   D    
C23   S13   S    
C14   C15   A    
C2    H13   S    
S5    O40   S    
C21   C22   T    
C14   H24   S    
S9    O51   D    
C7    C8    S    
Ba1   P1    S    
S12   O63   S    
C27   H28   S    
C8    H22   S    
O18   P6    S    
C7    S9    S    
C6    H21   S    
Ba1   O13   S    
C19   C20   A    
S10   O54   D    
O1    P1    D    
Ba2   O5    S    
Ba2   O13   S    
Ba1   O22   S    
C37   O64   S    
S12   O62   D    
O55   H45   S    
C38   S1    S    
C2    H1    S    
S13   O67   D    
O23   P3    S    
O12   P1    S    
O3    P3    S    
C9    H26   S    
C30   P7    S    
C3    H15   S    
C32   C37   A    
C4    H16   S    
C34   C38   S    
S11   O58   S    
S8    O47   D    
C10   P1    S    
C33   P2    S    
C15   P6    S    
O10   P5    D    
C41   O2    S    
O16   P8    D    
O6    P8    S    
O65   H51   S    
C33   C37   A    
C41   C42   S    
C27   C28   A    
S5    O38   D    
C42   H12   S    
C29   H31   S    
C29   C30   A    
O49   H43   S    
O8    P7    S    
C31   C32   A    
Ba2   O9    S    
S1    O26   D    
C13   C22   S    
C10   C11   A    
S9    O52   S    
Ba2   O14   S    
Ba1   P2    S    
C5    H19   S    
S3    O31   D    
S6    O42   D    
C40   H6    S    
C18   P8    S    
O59   H47   S    
C11   C13   A    
S10   O53   D    
Ba1   O1    S    
Ba2   O4    S    
C39   S2    S    
C1    C2    S    
S6    O43   S    
S4    O37   S    
Ba1   O23   S    
S12   O61   D    
O46   H42   S    
S13   O68   S    
Ba1   O8    S    
S7    O45   D    
C7    O17   S    
O52   H44   S    
C33   C35   A    
C25   C30   A    
C16   C20   A    
C32   P3    S    
O7    P4    S    
C25   O65   S    
O40   H40   S    
C6    S7    S    
O17   P8    S    
S4    O36   D    
C3    O15   S    
O30   H36   S    
O5    P4    S    
C34   O7    S    
Ba1   O5    S    
C7    S8    S    
C31   C36   A    
S2    O30   S    
C23   H32   S    
S7    O44   D    
C16   H23   S    
C4    S4    S    
O63   H49   S    
C34   H34   S    
O43   H41   S    
C1    H9    S    
C42   H11   S    
C41   H7    S    
C3    C4    S    
O58   H46   S    
C18   C24   A    
Ba1   O18   S    
C13   C14   A    
C39   H4    S    
S2    O29   D    
Ba2   O8    S    
S1    O27   S    
C23   H18   S    
O4    P4    D    
C12   C23   S    
O37   H39   S    
C41   H8    S    
C5    H20   S    
S3    O32   D    
S6    O41   D    
C31   H27   S    
C40   H5    S    
Ba2   P4    S    
O11   P5    S    
C17   P4    S    
C42   H10   S    
C8    S10   S    
O9    P5    S    
C18   C19   A    
C40   S3    S    
C8    O59   S    
O64   H50   S    
C2    O21   S    
C25   C26   A    
S5    O39   D    
C20   C21   S    
C26   P5    S    
C12   O3    S    
S9    O50   D    
C39   O20   S    
C19   O60   S    
C9    C10   A    
O15   P7    S    
O33   H37   S    
