data_mof_unit_61769.cif
_audit_creation_date              2012-12-10T19:53:42-0500
_audit_creation_method            fapswitch 2.2
_symmetry_space_group_name_H-M    P1
_symmetry_Int_Tables_number       1
_space_group_crystal_system       triclinic
_cell_length_a                    18.254524
_cell_length_b                    18.254579
_cell_length_c                    47.175623
_cell_angle_alpha                 89.999957
_cell_angle_beta                  89.999889
_cell_angle_gamma                 90.000546
_cell_volume                      15720.2691864

loop_
_atom_site_label
_atom_site_type_symbol
_atom_type_description
_atom_site_fract_x
_atom_site_fract_y
_atom_site_fract_z
_atom_type_partial_charge
C1    C     C_R   1.000000 0.859017 0.000000 0.923530
C2    C     C_R   0.140983 0.000000 1.000000 0.923531
C3    C     C_R   0.000000 0.140983 0.000000 0.923529
C4    C     C_R   0.859017 0.000000 0.000000 0.923531
C5    C     C_R   0.500000 0.359017 0.500000 0.923526
C6    C     C_R   0.640983 0.500000 0.500000 0.923528
C7    C     C_R   0.500000 0.640983 0.500000 0.923526
C8    C     C_R   0.359017 0.500000 0.500000 0.923528
C9    C     C_R   0.481629 0.936161 0.868972 -0.093953
C10   C     C_R   0.063942 0.481995 0.868967 -0.094015
C11   C     C_R   0.518362 0.063841 0.868972 -0.093960
C12   C     C_R   0.936058 0.518008 0.868967 -0.094016
C13   C     C_R   0.481943 0.063927 0.131031 -0.094007
C14   C     C_R   0.063935 0.518034 0.131032 -0.094013
C15   C     C_R   0.518057 0.936072 0.131031 -0.094005
C16   C     C_R   0.936065 0.481968 0.131032 -0.094013
C17   C     C_R   0.981818 0.436108 0.368969 -0.093991
C18   C     C_R   0.563915 0.981898 0.368969 -0.093992
C19   C     C_R   0.018180 0.563894 0.368969 -0.093992
C20   C     C_R   0.436084 0.018102 0.368969 -0.093993
C21   C     C_R   0.981805 0.563887 0.631031 -0.093997
C22   C     C_R   0.563993 0.017825 0.631034 -0.094049
C23   C     C_R   0.018201 0.436111 0.631030 -0.093991
C24   C     C_R   0.436007 0.982177 0.631034 -0.094048
C25   C     C_R   0.482082 0.935975 0.898479 -0.210626
C26   C     C_R   0.064124 0.482436 0.898474 -0.210584
C27   C     C_R   0.517914 0.064027 0.898479 -0.210623
C28   C     C_R   0.935876 0.517565 0.898475 -0.210583
C29   C     C_R   0.482387 0.064110 0.101525 -0.210593
C30   C     C_R   0.064117 0.517591 0.101525 -0.210583
C31   C     C_R   0.517613 0.935889 0.101524 -0.210594
C32   C     C_R   0.935883 0.482411 0.101525 -0.210585
C33   C     C_R   0.982264 0.435924 0.398476 -0.210599
C34   C     C_R   0.564098 0.982343 0.398476 -0.210607
C35   C     C_R   0.017735 0.564077 0.398476 -0.210598
C36   C     C_R   0.435902 0.017657 0.398476 -0.210605
C37   C     C_R   0.982248 0.564071 0.601524 -0.210595
C38   C     C_R   0.564173 0.017386 0.601527 -0.210567
C39   C     C_R   0.017755 0.435928 0.601523 -0.210595
C40   C     C_R   0.435828 0.982615 0.601527 -0.210568
C41   C     C_R   0.499999 0.000001 0.913433 -0.044142
C42   C     C_R   1.000000 0.500000 0.913430 -0.044239
C43   C     C_R   0.500000 1.000000 0.086569 -0.044217
C44   C     C_R   1.000000 0.500000 0.086570 -0.044225
C45   C     C_R   1.000000 0.500000 0.413431 -0.044191
C46   C     C_R   0.500000 1.000000 0.413431 -0.044210
C47   C     C_R   0.000001 0.500000 0.586569 -0.044179
C48   C     C_R   0.500000 0.000000 0.586571 -0.044279
C49   C     C_R   0.499995 0.000001 0.854100 0.302199
C50   C     C_R   1.000000 0.500001 0.854096 0.302328
C51   C     C_R   0.500000 0.999999 0.145902 0.302311
C52   C     C_R   1.000000 0.500001 0.145903 0.302333
C53   C     C_R   0.999999 0.500001 0.354098 0.302285
C54   C     C_R   0.499999 1.000000 0.354098 0.302269
C55   C     C_R   0.000004 0.499999 0.645901 0.302304
C56   C     C_R   0.500000 0.000001 0.645904 0.302406
C57   C     C_1   0.782530 0.000000 0.000000 -0.173163
C58   C     C_1   0.000000 0.782530 0.000000 -0.173153
C59   C     C_1   0.217470 1.000000 1.000000 -0.173163
C60   C     C_1   1.000000 0.217470 1.000000 -0.173153
C61   C     C_1   0.282530 0.500000 0.500000 -0.173158
C62   C     C_1   0.500000 0.282530 0.500000 -0.173148
C63   C     C_1   0.717470 0.500000 0.500000 -0.173159
C64   C     C_1   0.500000 0.717470 0.500000 -0.173148
C65   C     C_1   0.717725 0.000000 0.000000 -0.183242
C66   C     C_1   0.000000 0.717725 0.000000 -0.183235
C67   C     C_1   0.282275 1.000000 1.000000 -0.183242
C68   C     C_1   1.000000 0.282275 1.000000 -0.183235
C69   C     C_1   0.217725 0.500000 0.500000 -0.183241
C70   C     C_1   0.500000 0.217725 0.500000 -0.183232
C71   C     C_1   0.782275 0.500000 0.500000 -0.183241
C72   C     C_1   0.499999 0.782275 0.500000 -0.183233
C73   C     C_R   0.500000 1.000000 0.944493 0.877055
C74   C     C_R   1.000000 0.500000 0.944492 0.877112
C75   C     C_R   0.500000 1.000000 0.055508 0.877107
C76   C     C_R   1.000000 0.500000 0.055508 0.877109
C77   C     C_R   1.000000 0.500000 0.444492 0.877084
C78   C     C_R   0.500000 1.000000 0.444492 0.877101
C79   C     C_R   0.000000 0.500000 0.555508 0.877079
C80   C     C_R   0.500000 0.000000 0.555509 0.877143
C81   C     C_R   0.641240 0.000000 1.000000 0.940017
C82   C     C_R   0.000000 0.641240 0.000000 0.940046
C83   C     C_R   0.358760 1.000000 0.000000 0.940017
C84   C     C_R   1.000000 0.358760 1.000000 0.940047
C85   C     C_R   0.141240 0.500000 0.500000 0.940022
C86   C     C_R   0.500000 0.141240 0.500000 0.940055
C87   C     C_R   0.858760 0.500000 0.500000 0.940023
C88   C     C_R   0.500000 0.858760 0.500000 0.940056
C89   C     C_R   0.045440 0.452835 0.190479 0.505093
C90   C     C_R   0.452865 0.954525 0.190478 0.505093
C91   C     C_R   0.954560 0.547168 0.190479 0.505093
C92   C     C_R   0.547134 0.045474 0.190478 0.505092
C93   C     C_R   0.045424 0.547184 0.809521 0.505095
C94   C     C_R   0.453130 0.045753 0.809523 0.505091
C95   C     C_R   0.954577 0.452817 0.809521 0.505096
C96   C     C_R   0.546857 0.954249 0.809523 0.505088
C97   C     C_R   0.545251 0.952654 0.690479 0.505100
C98   C     C_R   0.952969 0.454421 0.690477 0.505091
C99   C     C_R   0.454747 0.047348 0.690479 0.505099
C100  C     C_R   0.047040 0.545575 0.690477 0.505090
C101  C     C_R   0.545529 0.047081 0.309521 0.505091
C102  C     C_R   0.952959 0.545572 0.309522 0.505092
C103  C     C_R   0.454469 0.952920 0.309522 0.505092
C104  C     C_R   0.047040 0.454431 0.309522 0.505092
C105  C     C_R   0.953104 0.547636 0.220164 -0.015509
C106  C     C_R   0.547596 0.046934 0.220164 -0.015507
C107  C     C_R   0.046896 0.452368 0.220164 -0.015509
C108  C     C_R   0.452402 0.953067 0.220164 -0.015507
C109  C     C_R   0.953120 0.452352 0.779835 -0.015508
C110  C     C_R   0.547309 0.952784 0.779837 -0.015501
C111  C     C_R   0.046884 0.547648 0.779835 -0.015507
C112  C     C_R   0.452680 0.047217 0.779837 -0.015503
C113  C     C_R   0.453291 0.047820 0.720165 -0.015520
C114  C     C_R   0.047495 0.547039 0.720163 -0.015508
C115  C     C_R   0.546703 0.952181 0.720165 -0.015523
C116  C     C_R   0.952512 0.452958 0.720163 -0.015507
C117  C     C_R   0.453008 0.952460 0.279836 -0.015501
C118  C     C_R   0.047500 0.452971 0.279836 -0.015504
C119  C     C_R   0.546989 0.047541 0.279836 -0.015501
C120  C     C_R   0.952499 0.547033 0.279836 -0.015504
C121  C     C_R   0.000000 0.500002 0.235063 -0.020188
C122  C     C_R   0.499999 0.000000 0.235063 -0.020183
C123  C     C_R   0.000002 0.500000 0.764936 -0.020187
C124  C     C_R   0.499995 0.000000 0.764938 -0.020178
C125  C     C_R   0.499996 0.000000 0.735064 -0.020174
C126  C     C_R   0.000003 0.500000 0.735062 -0.020185
C127  C     C_R   0.499999 0.000000 0.264937 -0.020186
C128  C     C_R   1.000000 0.500002 0.264937 -0.020188
C129  C     C_R   0.906187 0.594580 0.235227 -0.155254
C130  C     C_R   0.594500 0.093891 0.235226 -0.155258
C131  C     C_R   0.093813 0.405424 0.235227 -0.155253
C132  C     C_R   0.405497 0.906110 0.235226 -0.155258
C133  C     C_R   0.906216 0.405394 0.764773 -0.155255
C134  C     C_R   0.593929 0.905547 0.764775 -0.155256
C135  C     C_R   0.093791 0.594603 0.764773 -0.155254
C136  C     C_R   0.406060 0.094453 0.764774 -0.155259
C137  C     C_R   0.406562 0.094948 0.735227 -0.155265
C138  C     C_R   0.094293 0.594103 0.735225 -0.155253
C139  C     C_R   0.593431 0.905053 0.735228 -0.155268
C140  C     C_R   0.905716 0.405892 0.735225 -0.155253
C141  C     C_R   0.405995 0.905612 0.264774 -0.155258
C142  C     C_R   0.094309 0.405919 0.264774 -0.155254
C143  C     C_R   0.594002 0.094389 0.264773 -0.155257
C144  C     C_R   0.905690 0.594085 0.264774 -0.155253
H1    H     H_    0.466909 0.886738 0.857626 0.151760
H2    H     H_    0.113449 0.467559 0.857620 0.151684
H3    H     H_    0.533082 0.113264 0.857626 0.151759
H4    H     H_    0.886551 0.532443 0.857621 0.151684
H5    H     H_    0.467467 0.113422 0.142378 0.151692
H6    H     H_    0.113435 0.532491 0.142379 0.151676
H7    H     H_    0.532532 0.886577 0.142378 0.151693
H8    H     H_    0.886564 0.467512 0.142379 0.151676
H9    H     H_    0.967244 0.386642 0.357623 0.151704
H10   H     H_    0.613399 0.967386 0.357622 0.151723
H11   H     H_    0.032753 0.613360 0.357623 0.151704
H12   H     H_    0.386600 0.032614 0.357623 0.151723
H13   H     H_    0.967218 0.613348 0.642378 0.151684
H14   H     H_    0.613539 0.032117 0.642381 0.151635
H15   H     H_    0.032789 0.386650 0.642377 0.151686
H16   H     H_    0.386461 0.967886 0.642382 0.151634
N1    N     N_R   1.000000 0.500002 0.176286 -0.356087
N2    N     N_R   0.499999 1.000000 0.176286 -0.356082
N3    N     N_R   0.000000 0.500001 0.823713 -0.356085
N4    N     N_R   0.499994 0.000001 0.823716 -0.356062
N5    N     N_R   0.499999 0.000001 0.676287 -0.356097
N6    N     N_R   0.000004 0.499998 0.676285 -0.356083
N7    N     N_R   0.499999 0.000000 0.323714 -0.356073
N8    N     N_R   0.999999 0.500001 0.323715 -0.356079
O1    O     O_R   0.999960 0.892740 0.023680 -0.616195
O2    O     O_R   0.107260 0.999960 0.023680 -0.616193
O3    O     O_R   0.000040 0.107260 0.023680 -0.616195
O4    O     O_R   0.892740 0.000040 0.023680 -0.616193
O5    O     O_R   0.999960 0.107260 0.976320 -0.616203
O6    O     O_R   0.107260 0.000040 0.976320 -0.616212
O7    O     O_R   0.000040 0.892740 0.976320 -0.616203
O8    O     O_R   0.892740 0.999960 0.976320 -0.616211
O9    O     O_R   0.499960 0.392740 0.523680 -0.616188
O10   O     O_R   0.607260 0.499960 0.523680 -0.616195
O11   O     O_R   0.500040 0.607260 0.523680 -0.616188
O12   O     O_R   0.392740 0.500040 0.523680 -0.616196
O13   O     O_R   0.499960 0.607260 0.476320 -0.616206
O14   O     O_R   0.607260 0.500040 0.476320 -0.616205
O15   O     O_R   0.500040 0.392740 0.476320 -0.616206
O16   O     O_R   0.392740 0.499960 0.476320 -0.616205
O17   O     O_R   0.500020 0.060670 0.958090 -0.623155
O18   O     O_R   0.939330 0.500020 0.958090 -0.623201
O19   O     O_R   0.499980 0.939330 0.958090 -0.623155
O20   O     O_R   0.060670 0.499980 0.958090 -0.623201
O21   O     O_R   0.500020 0.939330 0.041910 -0.623197
O22   O     O_R   0.939330 0.499980 0.041910 -0.623199
O23   O     O_R   0.499980 0.060670 0.041910 -0.623197
O24   O     O_R   0.060670 0.500020 0.041910 -0.623200
O25   O     O_R   0.000020 0.560670 0.458090 -0.623179
O26   O     O_R   0.439330 0.000020 0.458090 -0.623191
O27   O     O_R   0.999980 0.439330 0.458090 -0.623179
O28   O     O_R   0.560670 0.999980 0.458090 -0.623191
O29   O     O_R   0.000020 0.439330 0.541910 -0.623178
O30   O     O_R   0.439330 0.999980 0.541910 -0.623227
O31   O     O_R   0.999980 0.560670 0.541910 -0.623178
O32   O     O_R   0.560670 0.000020 0.541910 -0.623227
O33   O     O_R   0.607320 0.060650 0.000010 -0.616537
O34   O     O_R   0.939350 0.607320 0.000010 -0.616511
O35   O     O_R   0.392680 0.939350 0.000010 -0.616537
O36   O     O_R   0.060650 0.392680 0.000010 -0.616511
O37   O     O_R   0.607320 0.939350 0.999990 -0.616501
O38   O     O_R   0.939350 0.392680 0.999990 -0.616520
O39   O     O_R   0.392680 0.060650 0.999990 -0.616501
O40   O     O_R   0.060650 0.607320 0.999990 -0.616520
O41   O     O_R   0.107320 0.560650 0.500010 -0.616516
O42   O     O_R   0.439350 0.107320 0.500010 -0.616531
O43   O     O_R   0.892680 0.439350 0.500010 -0.616515
O44   O     O_R   0.560650 0.892680 0.500010 -0.616531
O45   O     O_R   0.107320 0.439350 0.499990 -0.616522
O46   O     O_R   0.439350 0.892680 0.499990 -0.616499
O47   O     O_R   0.892680 0.560650 0.499990 -0.616522
O48   O     O_R   0.560650 0.107320 0.499990 -0.616499
O49   O     O_2   0.088568 0.406097 0.175886 -0.556633
O50   O     O_2   0.406154 0.911367 0.175886 -0.556643
O51   O     O_2   0.911432 0.593906 0.175886 -0.556633
O52   O     O_2   0.593846 0.088631 0.175886 -0.556642
O53   O     O_2   0.088533 0.593941 0.824113 -0.556640
O54   O     O_2   0.406671 0.089184 0.824114 -0.556672
O55   O     O_2   0.911468 0.406061 0.824113 -0.556640
O56   O     O_2   0.593315 0.910818 0.824114 -0.556674
O57   O     O_2   0.588192 0.905746 0.675887 -0.556616
O58   O     O_2   0.906350 0.411163 0.675885 -0.556634
O59   O     O_2   0.411808 0.094257 0.675886 -0.556617
O60   O     O_2   0.093661 0.588831 0.675885 -0.556633
O61   O     O_2   0.588741 0.093742 0.324113 -0.556660
O62   O     O_2   0.906336 0.588826 0.324114 -0.556647
O63   O     O_2   0.411257 0.906258 0.324113 -0.556661
O64   O     O_2   0.093662 0.411177 0.324114 -0.556647
Zn1   Zn    Zn3+2 0.000000 1.000000 0.031620 0.997109
Zn2   Zn    Zn3+2 0.000000 1.000000 0.968380 0.997054
Zn3   Zn    Zn3+2 0.500000 0.500000 0.531620 0.997126
Zn4   Zn    Zn3+2 0.500000 0.500000 0.468380 0.997069
Zn5   Zn    Zn3+2 0.500000 0.080980 0.000000 0.978040
Zn6   Zn    Zn3+2 0.919020 0.500000 0.000000 0.978020
Zn7   Zn    Zn3+2 0.500000 0.919020 0.000000 0.978040
Zn8   Zn    Zn3+2 0.080980 0.500000 0.000000 0.978020
Zn9   Zn    Zn3+2 0.000000 0.580980 0.500000 0.978033
Zn10  Zn    Zn3+2 0.419020 1.000000 0.500000 0.978008
Zn11  Zn    Zn3+2 1.000000 0.419020 0.500000 0.978033
Zn12  Zn    Zn3+2 0.580980 1.000000 0.500000 0.978008
H17   H     H_    0.869568 0.631665 0.224253 0.193777
H18   H     H_    0.631555 0.130540 0.224253 0.193779
H19   H     H_    0.130433 0.368339 0.224253 0.193777
H20   H     H_    0.368442 0.869461 0.224253 0.193779
H21   H     H_    0.869609 0.368296 0.775746 0.193775
H22   H     H_    0.630761 0.868677 0.775748 0.193782
H23   H     H_    0.130401 0.631698 0.775746 0.193774
H24   H     H_    0.369227 0.131324 0.775747 0.193781
H25   H     H_    0.370093 0.132178 0.724253 0.193781
H26   H     H_    0.131266 0.630836 0.724252 0.193777
H27   H     H_    0.629901 0.867823 0.724254 0.193782
H28   H     H_    0.868747 0.369156 0.724252 0.193778
H29   H     H_    0.369301 0.868601 0.275747 0.193779
H30   H     H_    0.131288 0.369193 0.275747 0.193776
H31   H     H_    0.630696 0.131400 0.275747 0.193778
H32   H     H_    0.868712 0.630811 0.275747 0.193776
H33   H     H_    0.467705 0.886055 0.909569 0.165962
H34   H     H_    0.114126 0.468339 0.909562 0.166031
H35   H     H_    0.532292 0.113946 0.909569 0.165961
H36   H     H_    0.885874 0.531663 0.909563 0.166031
H37   H     H_    0.468251 0.114100 0.090436 0.166018
H38   H     H_    0.114113 0.531709 0.090437 0.166020
H39   H     H_    0.531749 0.885899 0.090436 0.166018
H40   H     H_    0.885886 0.468292 0.090437 0.166020
H41   H     H_    0.968030 0.385962 0.409565 0.165994
H42   H     H_    0.614078 0.968172 0.409565 0.166013
H43   H     H_    0.031969 0.614039 0.409566 0.165995
H44   H     H_    0.385922 0.031829 0.409565 0.166013
H45   H     H_    0.967999 0.614028 0.590435 0.165984
H46   H     H_    0.614215 0.031342 0.590440 0.166062
H47   H     H_    0.032004 0.385972 0.590434 0.165984
H48   H     H_    0.385786 0.968659 0.590440 0.166062

loop_
_geom_bond_atom_site_label_1
_geom_bond_atom_site_label_2
_ccdc_geom_bond_type
O48   Zn12  S    
C135  C138  A    
C97   O57   S    
O23   Zn5   S    
C139  H27   S    
C79   O29   A    
C94   N4    A    
C16   C32   A    
C19   H11   S    
C91   C105  A    
C75   O23   A    
O22   Zn6   S    
C47   C79   S    
C54   N7    S    
O36   Zn8   S    
C64   C72   T    
C111  C135  A    
O40   Zn8   S    
C15   C31   A    
C15   H7    S    
C131  H19   S    
C130  H18   S    
C9    C25   A    
O9    Zn3   S    
C129  C144  A    
C129  H17   S    
O4    Zn1   S    
O30   Zn10  S    
C41   C73   S    
C67   C83   S    
C76   O24   A    
O31   Zn9   S    
O1    Zn1   S    
O28   Zn12  S    
O20   Zn8   S    
C101  O61   S    
C13   C29   A    
C120  C144  A    
C75   O21   A    
C112  C136  A    
O19   Zn7   S    
C112  C124  A    
C92   C106  A    
C95   N3    A    
C119  C127  A    
C142  H30   S    
O10   Zn3   S    
C114  C126  A    
C97   N5    A    
C8    O12   A    
C104  O64   S    
C104  N8    A    
C93   N3    A    
C92   N2    A    
C22   C38   A    
C80   O30   A    
C5    O15   A    
C119  C143  A    
C20   H12   S    
C62   C70   T    
C51   N2    S    
C100  N6    A    
C78   O26   A    
C1    O1    A    
C122  C127  A    
C101  N7    A    
C77   O25   A    
C29   H37   S    
O16   Zn4   S    
C49   N4    S    
C83   O39   A    
C59   C67   T    
O18   Zn6   S    
C98   C116  A    
C58   C66   T    
O17   Zn5   S    
O12   Zn3   S    
C12   C50   A    
C96   O56   S    
C94   O54   S    
C23   H15   S    
C4    C57   S    
C21   H13   S    
C100  C114  A    
C36   C46   A    
C14   H6    S    
C140  H28   S    
C15   C51   A    
C97   C115  A    
C4    O4    A    
O32   Zn12  S    
O35   Zn7   S    
C37   C47   A    
C90   O50   S    
O14   Zn4   S    
O15   Zn4   S    
C37   H45   S    
C3    C60   S    
C8    O16   A    
O11   Zn3   S    
C86   O42   A    
C17   H9    S    
C13   C51   A    
C34   C46   A    
C6    O10   A    
C103  O63   S    
C28   C42   A    
C110  C124  A    
C30   C44   A    
C103  C117  A    
C141  H29   S    
C87   O43   A    
C14   C30   A    
O6    Zn2   S    
C89   N1    A    
C72   C88   S    
C3    O5    A    
C16   H8    S    
C104  C118  A    
C18   C34   A    
C43   C75   S    
O2    Zn1   S    
O8    Zn2   S    
C42   C74   S    
O47   Zn9   S    
C7    O13   A    
C109  C133  A    
C101  C119  A    
O43   Zn11  S    
O45   Zn11  S    
C9    C49   A    
O42   Zn10  S    
C121  C128  A    
C83   O35   A    
C95   C109  A    
C135  H23   S    
C134  C139  A    
C82   O34   A    
C18   C54   A    
C2    C59   S    
C38   H46   S    
C123  C126  A    
C22   C56   A    
C22   H14   S    
C100  O60   S    
C17   C33   A    
C73   O19   A    
C28   H36   S    
C39   C47   A    
C31   H39   S    
C46   C78   S    
C11   H3    S    
C95   O55   S    
C96   N4    A    
C85   O41   A    
C68   C84   S    
C6    C63   S    
C56   N5    S    
C117  C141  A    
C14   C52   A    
C99   C113  A    
C33   C45   A    
C11   C49   A    
C85   O45   A    
C66   C82   S    
C25   H33   S    
C27   C41   A    
C53   N8    S    
C65   C81   S    
C76   O22   A    
C11   C27   A    
C115  C139  A    
C27   H35   S    
C106  C122  A    
C120  C128  A    
C10   C26   A    
C36   H44   S    
C143  H31   S    
O38   Zn6   S    
C78   O28   A    
C103  N7    A    
O33   Zn5   S    
C130  C143  A    
C117  C127  A    
C5    O9    A    
C98   N6    A    
C131  C142  A    
C31   C43   A    
C99   N5    A    
C10   H2    S    
C70   C86   S    
C30   H38   S    
C29   C43   A    
C114  C138  A    
C20   C54   A    
C6    O14   A    
C84   O38   A    
C3    O3    A    
C74   O20   A    
C105  C129  A    
O7    Zn2   S    
C71   C87   S    
C90   N2    A    
C90   C108  A    
O37   Zn7   S    
C134  H22   S    
C133  H21   S    
O41   Zn9   S    
C35   C45   A    
C17   C53   A    
C138  H26   S    
C69   C85   S    
O5    Zn2   S    
C26   C42   A    
C86   O48   A    
C81   O37   A    
C12   C28   A    
O3    Zn1   S    
C61   C69   T    
C132  C141  A    
C106  C130  A    
C110  C134  A    
O27   Zn11  S    
C40   C48   A    
C1    O7    A    
C21   C55   A    
C102  N8    A    
O26   Zn10  S    
C79   O31   A    
C33   H41   S    
C50   N3    S    
C2    O2    A    
C38   C48   A    
C132  H20   S    
C82   O40   A    
C16   C52   A    
C108  C122  A    
C136  C137  A    
C118  C142  A    
C18   H10   S    
C21   C37   A    
O34   Zn6   S    
C73   O17   A    
C111  C123  A    
C24   H16   S    
C23   C55   A    
C34   H42   S    
C26   H34   S    
C116  C140  A    
C24   C56   A    
C52   N1    S    
C115  C125  A    
C87   O47   A    
O46   Zn10  S    
C7    O11   A    
C102  C120  A    
C109  C123  A    
C12   H4    S    
C107  C131  A    
C77   O27   A    
C13   H5    S    
C93   C111  A    
C19   C35   A    
C48   C80   S    
C2    O6    A    
C35   H43   S    
O13   Zn4   S    
C19   C53   A    
C88   O46   A    
C96   C110  A    
C88   O44   A    
C91   N1    A    
C23   C39   A    
C9    H1    S    
C24   C40   A    
O29   Zn11  S    
C5    C62   S    
C32   H40   S    
C113  C137  A    
O21   Zn7   S    
C57   C65   T    
C40   H48   S    
C91   O51   S    
C144  H32   S    
C8    C61   S    
C99   O59   S    
C7    C64   S    
C108  C132  A    
C93   O53   S    
O24   Zn8   S    
C60   C68   T    
O39   Zn5   S    
C89   O49   S    
C89   C107  A    
C20   C36   A    
O25   Zn9   S    
C1    C58   S    
C113  C125  A    
C32   C44   A    
C133  C140  A    
O44   Zn12  S    
C25   C41   A    
C4    O8    A    
C80   O32   A    
C105  C121  A    
C116  C126  A    
C102  O62   S    
C98   O58   S    
C107  C121  A    
C136  H24   S    
C45   C77   S    
C55   N6    S    
C44   C76   S    
C84   O36   A    
C92   O52   S    
C63   C71   T    
C118  C128  A    
C94   C112  A    
C137  H25   S    
C81   O33   A    
C39   H47   S    
C124  C125  A    
C74   O18   A    
C10   C50   A    
