data_mof_unit_35453.cif
_audit_creation_date              2013-03-05T15:58:46-0500
_audit_creation_method            fapswitch 2.2
_symmetry_space_group_name_H-M    P1
_symmetry_Int_Tables_number       1
_space_group_crystal_system       triclinic
_cell_length_a                    6.929912
_cell_length_b                    14.350037
_cell_length_c                    15.963877
_cell_angle_alpha                 90.322298
_cell_angle_beta                  90.021778
_cell_angle_gamma                 90.042001
_cell_volume                      1587.49400412

loop_
_atom_site_label
_atom_site_type_symbol
_atom_site_description
_atom_site_fract_x
_atom_site_fract_y
_atom_site_fract_z
_atom_type_partial_charge
O1    O     O_R   0.494320 0.415010 0.412140 -0.557404
O2    O     O_R   0.824010 0.404260 0.587250 -0.588645
O3    O     O_R   0.994320 0.584990 0.587860 -0.599831
C1    C     C_R   0.654853 0.380032 0.614670 0.997336
O4    O     O_R   0.824040 0.403870 0.412760 -0.597764
O5    O     O_R   0.994350 0.584590 0.412130 -0.606611
C2    C     C_R   0.655011 0.380764 0.384106 0.890970
O6    O     O_R   0.494300 0.415410 0.587870 -0.612086
O7    O     O_3   0.660800 0.559290 0.500000 -0.268129
V1    V     V_3+5 0.935650 0.489000 0.500000 1.173785
O8    O     O_R   0.324060 0.595740 0.412750 -0.555959
C3    C     C_R   0.154938 0.618396 0.383675 0.926809
O9    O     O_R   0.324040 0.596130 0.587240 -0.590960
C4    C     C_R   0.155307 0.618417 0.616332 0.928232
V2    V     V_3+5 0.435660 0.511000 0.500000 1.196722
O10   O     O_3   0.160640 0.440710 0.500000 -0.267215
C5    C     C_3   0.059169 0.667346 0.773912 -0.147143
C6    C     C_3   0.232929 0.717544 0.815577 -0.148554
H1    H     H_    0.315056 0.691704 0.870451 0.129342
H2    H     H_    0.998193 0.599335 0.793608 0.130346
C7    C     C_3   0.121333 0.810194 0.811978 -0.133307
C8    C     C_3   0.947385 0.760774 0.771113 -0.050730
C9    C     C_3   0.033388 0.780962 0.683467 -0.086560
C10   C     C_3   0.207101 0.831144 0.725119 -0.051550
C11   C     C_3   0.318949 0.737741 0.727926 -0.091077
C12   C     C_3   0.145006 0.688339 0.687044 -0.136672
H3    H     H_    0.794037 0.770462 0.789238 0.130846
H4    H     H_    0.951245 0.806852 0.628618 0.143216
H5    H     H_    0.267436 0.899200 0.705399 0.185184
H6    H     H_    0.472311 0.728132 0.709788 0.129706
C13   C     C_3   0.212729 0.857332 0.265877 -0.486615
H7    H     H_    0.358177 0.885251 0.250317 0.167807
H8    H     H_    0.123628 0.918083 0.285691 0.128804
C14   C     C_3   0.225803 0.786239 0.339525 0.432198
H9    H     H_    0.134967 0.813164 0.391799 0.078245
H10   H     H_    0.396985 0.748985 0.147727 0.158151
H11   H     H_    0.406396 0.636356 0.249492 0.154778
C15   C     C_3   0.247407 0.725834 0.162209 -0.372202
C16   C     C_3   0.917855 0.774778 0.211605 -0.357939
C17   C     C_3   0.121507 0.811241 0.186957 0.099081
H12   H     H_    0.848873 0.740019 0.156733 0.162251
H13   H     H_    0.823568 0.834122 0.230321 0.154702
C18   C     C_3   0.143624 0.688984 0.312506 -0.022306
C19   C     C_3   0.253978 0.653082 0.233931 -0.360023
C20   C     C_3   0.930377 0.704884 0.284890 -0.440440
H14   H     H_    0.844997 0.731998 0.338748 0.175715
H15   H     H_    0.863526 0.637657 0.265202 0.176805
H16   H     H_    0.188466 0.692550 0.104494 0.145757
H17   H     H_    0.186760 0.587029 0.211655 0.156581
C21   C     C_3   0.430976 0.287133 0.708306 -0.431910
H18   H     H_    0.359456 0.351508 0.732001 0.222144
H19   H     H_    0.349568 0.263798 0.651890 0.192565
C22   C     C_3   0.418568 0.210282 0.775729 -0.439928
H20   H     H_    0.348525 0.147302 0.749460 0.249267
H21   H     H_    0.319434 0.234124 0.826163 0.253019
H22   H     H_    0.706057 0.421355 0.774362 0.186170
C23   C     C_3   0.747626 0.347482 0.764499 -0.468332
C24   C     C_3   0.737468 0.213031 0.658439 0.178881
C25   C     C_3   0.645108 0.308652 0.684685 -0.201525
H23   H     H_    0.637721 0.182479 0.611197 0.151789
C26   C     C_3   0.623406 0.187779 0.811531 -0.415616
C27   C     C_3   0.706765 0.285331 0.843492 0.754972
C28   C     C_3   0.750518 0.146140 0.736715 0.697364
H24   H     H_    0.905455 0.351853 0.753346 0.156917
C29   C     C_3   0.560231 0.356044 0.232400 0.406673
H25   H     H_    0.656389 0.415219 0.214690 0.010670
C30   C     C_3   0.554557 0.284228 0.158960 -0.392240
H26   H     H_    0.650802 0.309491 0.108238 0.166062
H27   H     H_    0.405962 0.278949 0.132844 0.209997
H28   H     H_    0.366614 0.250503 0.354571 0.192393
H29   H     H_    0.343289 0.150600 0.242755 0.165212
C31   C     C_3   0.513414 0.226048 0.336818 -0.296530
C32   C     C_3   0.847120 0.270716 0.291191 -0.451906
C33   C     C_3   0.643762 0.310103 0.312927 0.026641
H30   H     H_    0.912600 0.238000 0.347510 0.195552
H31   H     H_    0.944541 0.328343 0.271591 0.192735
C34   C     C_3   0.623863 0.186854 0.187668 0.034121
C35   C     C_3   0.496880 0.155795 0.262698 -0.365453
C36   C     C_3   0.834924 0.197599 0.219967 -0.357730
H32   H     H_    0.931614 0.219382 0.167930 0.176700
H33   H     H_    0.888775 0.129380 0.243195 0.161738
H34   H     H_    0.574737 0.190204 0.392435 0.143436
H35   H     H_    0.542025 0.085352 0.283897 0.143150
O11   O     O_R   0.771990 0.083520 0.910980 -0.549494
O12   O     O_R   0.442180 0.095020 0.086060 -0.588025
O13   O     O_R   0.271950 0.914280 0.086680 -0.606200
C37   C     C_R   0.611443 0.116803 0.115895 0.911064
O14   O     O_R   0.442270 0.094630 0.911580 -0.568565
O15   O     O_R   0.272040 0.913890 0.910940 -0.596906
C38   C     C_R   0.611207 0.117106 0.882580 1.073165
O16   O     O_R   0.771900 0.083910 0.086710 -0.613012
O17   O     O_3   0.605520 0.939610 0.998840 -0.290528
V3    V     V_3+5 0.330640 0.009880 0.998810 1.206090
O18   O     O_R   0.942330 0.902710 0.911540 -0.576850
C39   C     C_R   0.111079 0.880319 0.882548 0.982756
O19   O     O_R   0.942240 0.903100 0.086030 -0.611241
C40   C     C_R   0.110982 0.880880 0.115331 0.859814
V4    V     V_3+5 0.830640 0.987830 0.998780 1.194864
O20   O     O_3   0.105630 0.058150 0.998800 -0.251842
O21   O     O_3   0.415450 0.779895 0.370611 -0.750575
H36   H     H_    0.502222 0.765561 0.322927 0.315970
N1    N     N_R   0.566506 0.331495 0.900728 0.220223
O22   O     O_R   0.497219 0.414150 0.886066 -0.427706
O23   O     O_R   0.504217 0.287680 0.966445 -0.487889
O24   O     O_3   0.915167 0.220480 0.615890 -0.723540
H37   H     H_    0.997678 0.266521 0.645114 0.323959
N2    N     N_R   0.681572 0.051908 0.713000 0.222909
O25   O     O_R   0.781716 0.978802 0.733608 -0.385054
O26   O     O_R   0.525939 0.039539 0.668621 -0.473886
O27   O     O_3   0.944120 0.136049 0.763205 -0.700796
H38   H     H_    0.006367 0.197724 0.766770 0.326642
O28   O     O_3   0.882911 0.273873 0.886677 -0.774573
H39   H     H_    0.855398 0.252557 0.944454 0.329813
O29   O     O_3   0.373663 0.390636 0.247738 -0.767141
H40   H     H_    0.341670 0.432361 0.200348 0.305908

loop_
_geom_bond_atom_site_label_1
_geom_bond_atom_site_label_2
_geom_bond_distance
_ccdc_geom_bond_type
C19   H17   1.112352 S    
C37   O16   1.294218 A    
C6    C7    1.539924 S    
C32   H30   1.113278 S    
C32   C33   1.557297 S    
C30   C34   1.549591 S    
C1    O6    1.296762 A    
O29   H40   0.992556 S    
O17   V4    1.706173 S    
C23   C27   1.574278 S    
C16   H12   1.113125 S    
C34   C35   1.553664 S    
C13   C17   1.553618 S    
C5    C12   1.540363 S    
C14   H9    1.113132 S    
C3    C18   1.528394 S    
O5    C3    1.297005 A    
C23   C25   1.558650 S    
O18   V4    2.003428 S    
C24   H23   1.110962 S    
V2    O10   2.155667 S    
C11   H6    1.110120 S    
C5    H2    1.110343 S    
H22   C23   1.109125 S    
C6    H1    1.110115 S    
C29   O29   1.406331 S    
C9    C12   1.539653 S    
C26   C28   1.597808 S    
O13   C40   1.298201 A    
C10   H5    1.109353 S    
O21   H36   0.991030 S    
C31   C35   1.554301 S    
O27   H38   0.985623 S    
O12   V3    2.002212 S    
C35   H35   1.112875 S    
C29   C30   1.557041 S    
O19   V4    2.009008 S    
C14   O21   1.407820 S    
N2    O25   1.301995 A    
C13   H8    1.113170 S    
O1    V2    2.002352 S    
C2    C33   1.520624 S    
O7    V1    2.155934 S    
V3    O20   1.706691 S    
C15   H16   1.112808 S    
C16   C20   1.547713 S    
C22   H21   1.111266 S    
O9    C4    1.297892 A    
O15   V3    2.001754 S    
N2    O26   1.301671 A    
C26   C27   1.595063 S    
C6    C11   1.549913 S    
O11   C38   1.296983 A    
O28   H39   0.991885 S    
C21   H18   1.113097 S    
C16   H13   1.113336 S    
C20   H15   1.113508 S    
C21   C22   1.547695 S    
O12   C37   1.302993 A    
C30   H26   1.111436 S    
C34   C36   1.557930 S    
C10   C11   1.549659 S    
C31   C33   1.555687 S    
C17   C40   1.524561 S    
C36   H33   1.113370 S    
C7    C39   1.508065 S    
C11   C12   1.540927 S    
C22   H20   1.105984 S    
C29   C33   1.559422 S    
C30   H27   1.113174 S    
O15   C39   1.295413 A    
O2    C1    1.299280 A    
C18   C19   1.554905 S    
C15   C19   1.554477 S    
O13   V3    2.009076 S    
C21   H19   1.112408 S    
C13   H7    1.113045 S    
C9    C10   1.550035 S    
O19   C40   1.299883 A    
C5    C6    1.550482 S    
C32   C36   1.545060 S    
C13   C14   1.563597 S    
O18   C39   1.297792 A    
C9    H4    1.110112 S    
C4    C12   1.507846 S    
N1    O23   1.299846 A    
C18   C20   1.559291 S    
O3    C4    1.295252 A    
O14   C38   1.300182 A    
C29   H25   1.116719 S    
O6    V2    2.009098 S    
O8    V2    2.009098 S    
C8    H3    1.110118 S    
O9    V2    2.003329 S    
C32   H31   1.113451 S    
C21   C25   1.562254 S    
C22   C26   1.564631 S    
O2    V1    2.008922 S    
C16   C17   1.556282 S    
C26   C38   1.528070 S    
C23   H24   1.109991 S    
O4    C2    1.299445 A    
C24   C28   1.582588 S    
O14   V3    2.008762 S    
O1    C2    1.296358 A    
C14   C18   1.565235 S    
O5    V1    2.008992 S    
O8    C3    1.302524 A    
O24   H37   0.988373 S    
C5    C8    1.549745 S    
C24   O24   1.410845 S    
O11   V4    2.009316 S    
H11   C19   1.111665 S    
H10   C15   1.113025 S    
C24   C25   1.569414 S    
O4    V1    2.002202 S    
O3    V1    2.001740 S    
V1    O10   1.706682 S    
C15   C17   1.554270 S    
C28   O27   1.414339 S    
C1    C25   1.521808 S    
O17   V3    2.155985 S    
O16   V4    2.004128 S    
O7    V2    1.706704 S    
N1    O22   1.302332 A    
C36   H32   1.113462 S    
C20   H14   1.112509 S    
C27   O28   1.411848 S    
C34   C37   1.522348 S    
V4    O20   2.155684 S    
C7    C10   1.539928 S    
C8    C9    1.549751 S    
H28   C31   1.112659 S    
C7    C8    1.540962 S    
C28   N2    1.480975 S    
H29   C35   1.113174 S    
C31   H34   1.112932 S    
C27   N1    1.487713 S    
