data_mof_unit_41266.cif
_audit_creation_date              2012-12-11T14:24:53-0500
_audit_creation_method            fapswitch 2.2
_symmetry_space_group_name_H-M    P1
_symmetry_Int_Tables_number       1
_space_group_crystal_system       triclinic
_cell_length_a                    19.049408
_cell_length_b                    11.130047
_cell_length_c                    18.716609
_cell_angle_alpha                 90.853993
_cell_angle_beta                  90.982309
_cell_angle_gamma                 89.883089
_cell_volume                      3967.28028679

loop_
_atom_site_label
_atom_site_type_symbol
_atom_type_description
_atom_site_fract_x
_atom_site_fract_y
_atom_site_fract_z
_atom_type_partial_charge
C1    C     C_R   0.730867 0.375417 0.146453 0.528818
C2    C     C_R   0.250907 0.910899 0.074079 -0.010756
C3    C     C_R   0.640016 0.549813 0.436636 -0.099604
C4    C     C_R   0.869145 0.156867 0.578995 -0.152678
C5    C     C_R   0.077552 0.063491 0.471494 -0.187035
C6    C     C_R   0.369145 0.656867 0.578995 -0.152679
C7    C     C_R   0.577552 0.563491 0.471493 -0.187034
C8    C     C_R   0.898158 0.128205 0.513821 -0.118414
C9    C     C_R   0.067964 0.015734 0.538788 -0.119354
C10   C     C_R   0.398158 0.628204 0.513821 -0.118414
C11   C     C_R   0.567964 0.515735 0.538788 -0.119354
C12   C     C_R   0.863469 0.056790 0.462628 0.252543
C13   C     C_R   0.257569 0.398623 0.930733 0.002396
C14   C     C_R   0.121197 0.949246 0.570581 0.259036
C15   C     C_R   0.363469 0.556790 0.462628 0.252543
C16   C     C_R   0.621197 0.449247 0.570581 0.259035
C17   C     C_R   0.753611 0.936685 0.431842 0.025436
C18   C     C_R   0.249602 0.917983 0.573046 0.019189
C19   C     C_R   0.253611 0.436685 0.431842 0.025437
C20   C     C_R   0.749602 0.417983 0.573046 0.019189
C21   C     C_R   0.731253 0.382269 0.353493 0.537080
C22   C     C_R   0.267083 0.379940 0.647118 0.537802
C23   C     C_R   0.231253 0.882269 0.353493 0.537080
C24   C     C_R   0.750907 0.410899 0.074079 -0.010756
C25   C     C_R   0.767083 0.879940 0.647118 0.537802
C26   C     C_R   0.530593 0.157993 0.351967 0.550510
C27   C     C_R   0.466529 0.156554 0.646249 0.579330
C28   C     C_R   0.030593 0.657993 0.351967 0.550510
C29   C     C_R   0.966529 0.656554 0.646249 0.579330
C30   C     C_R   0.742889 0.973747 0.357690 0.568569
C31   C     C_R   0.257741 0.969083 0.644128 0.589072
C32   C     C_R   0.242889 0.473747 0.357690 0.568570
C33   C     C_R   0.757741 0.469083 0.644128 0.589072
C34   C     C_3   0.497245 0.277593 0.978411 -0.117493
C35   C     C_R   0.696655 0.858202 0.965887 0.016401
C36   C     C_3   0.448946 0.221130 0.034653 -0.141135
C37   C     C_3   0.997245 0.777593 0.978411 -0.117493
C38   C     C_3   0.948946 0.721130 0.034653 -0.141135
C39   C     C_3   0.561882 0.216607 0.013695 -0.111422
C40   C     C_3   0.439098 0.108858 0.986065 -0.111763
C41   C     C_3   0.061882 0.716607 0.013695 -0.111422
C42   C     C_3   0.939098 0.608858 0.986065 -0.111763
C43   C     C_3   0.512869 0.160204 0.068474 0.049366
C44   C     C_3   0.488141 0.164730 0.931034 0.053242
C45   C     C_3   0.012869 0.660204 0.068474 0.049366
C46   C     C_R   0.301587 0.846513 0.033106 0.020586
C47   C     C_3   0.988141 0.664730 0.931034 0.053242
C48   C     C_R   0.196655 0.358202 0.965887 0.016401
C49   C     C_R   0.801587 0.346513 0.033106 0.020586
C50   C     C_R   0.698162 0.852149 0.041498 0.031232
C51   C     C_R   0.296052 0.847843 0.957312 0.014601
C52   C     C_R   0.198162 0.352149 0.041498 0.031232
C53   C     C_R   0.270865 0.373484 0.854980 0.529102
C54   C     C_R   0.796052 0.347844 0.957312 0.014601
C55   C     C_R   0.814057 0.941424 0.044936 -0.159598
C56   C     C_R   0.202287 0.995511 0.966394 -0.154686
C57   C     C_R   0.314057 0.441424 0.044936 -0.159598
C58   C     C_R   0.702287 0.495511 0.966394 -0.154686
C59   C     C_R   0.816349 0.934701 0.971889 -0.141031
C60   C     C_R   0.203894 0.987730 0.039401 -0.165520
C61   C     C_R   0.316348 0.434701 0.971889 -0.141031
C62   C     C_R   0.703894 0.487730 0.039401 -0.165520
C63   C     C_R   0.634825 0.821749 0.928755 -0.104058
C64   C     C_R   0.230867 0.875417 0.146453 0.528818
C65   C     C_R   0.357048 0.779786 0.064467 -0.081543
C66   C     C_R   0.134825 0.321749 0.928755 -0.104058
C67   C     C_R   0.857048 0.279786 0.064467 -0.081543
C68   C     C_R   0.080880 0.264970 0.964407 -0.141229
C69   C     C_R   0.899007 0.204913 0.022957 -0.137210
C70   C     C_R   0.580880 0.764970 0.964407 -0.141229
C71   C     C_R   0.399007 0.704913 0.022957 -0.137210
C72   C     C_R   0.587160 0.744860 0.037369 -0.150191
C73   C     C_R   0.389156 0.698481 0.949398 -0.130074
C74   C     C_R   0.087160 0.244860 0.037369 -0.150191
C75   C     C_R   0.770865 0.873484 0.854980 0.529102
C76   C     C_R   0.889156 0.198482 0.949398 -0.130074
C77   C     C_R   0.644605 0.789233 0.075893 -0.089685
C78   C     C_R   0.337991 0.768566 0.916644 -0.080203
C79   C     C_R   0.144605 0.289233 0.075893 -0.089685
C80   C     C_R   0.837991 0.268566 0.916644 -0.080203
C81   C     C_R   0.534203 0.154456 0.143695 0.547903
C82   C     C_R   0.466483 0.155914 0.855939 0.557398
C83   C     C_R   0.034203 0.654455 0.143695 0.547903
C84   C     C_R   0.966483 0.655914 0.855939 0.557398
C85   C     C_R   0.753707 0.908491 0.080330 -0.007058
C86   C     C_3   0.503429 0.047917 0.020821 -0.097988
C87   C     C_R   0.248665 0.928495 0.924363 -0.006732
C88   C     C_R   0.253707 0.408491 0.080330 -0.007058
C89   C     C_R   0.748665 0.428495 0.924363 -0.006732
C90   C     C_R   0.491426 0.163287 0.572438 0.028985
C91   C     C_R   0.496294 0.165395 0.422208 -0.001099
C92   C     C_R   0.991426 0.663287 0.572438 0.028985
C93   C     C_R   0.996294 0.665395 0.422208 -0.001099
C94   C     C_R   0.502594 0.056930 0.532755 0.026997
C95   C     C_R   0.486802 0.058162 0.459402 0.030461
C96   C     C_R   0.002594 0.556930 0.532755 0.026997
C97   C     C_3   0.552039 0.104053 0.965192 -0.118536
C98   C     C_R   0.986802 0.558162 0.459402 0.030461
C99   C     C_R   0.495010 0.272940 0.461382 -0.127018
C100  C     C_R   0.483302 0.270919 0.534823 -0.117125
C101  C     C_R   0.995010 0.772940 0.461382 -0.127018
C102  C     C_R   0.983302 0.770919 0.534823 -0.117126
C103  C     C_R   0.527058 0.949077 0.562746 -0.082465
C104  C     C_R   0.472542 0.949705 0.423990 -0.082881
C105  C     C_R   0.027059 0.449077 0.562746 -0.082465
C106  C     C_R   0.972542 0.449705 0.423990 -0.082882
C107  C     C_R   0.026567 0.344116 0.521575 -0.148426
C108  C     C_3   0.003429 0.547917 0.020821 -0.097988
C109  C     C_R   0.996999 0.344648 0.452602 -0.133923
C110  C     C_R   0.526567 0.844116 0.521575 -0.148426
C111  C     C_R   0.496999 0.844648 0.452602 -0.133923
C112  C     C_R   0.739844 0.925611 0.579441 -0.000867
C113  C     C_R   0.247932 0.928106 0.424996 -0.004046
C114  C     C_R   0.239844 0.425611 0.579441 -0.000867
C115  C     C_R   0.747932 0.428106 0.424996 -0.004046
C116  C     C_R   0.775510 0.020796 0.550261 -0.002059
C117  C     C_R   0.192506 0.976383 0.465689 0.006066
C118  C     C_R   0.275510 0.520797 0.550261 -0.002060
C119  C     C_3   0.052039 0.604054 0.965192 -0.118536
C120  C     C_R   0.692506 0.476383 0.465689 0.006066
C121  C     C_R   0.797230 0.006927 0.479220 0.052940
C122  C     C_R   0.186734 0.940588 0.536490 0.043656
C123  C     C_R   0.297230 0.506928 0.479220 0.052940
C124  C     C_R   0.686735 0.440589 0.536490 0.043656
C125  C     C_R   0.704380 0.858709 0.460901 -0.151325
C126  C     C_R   0.310967 0.894536 0.534053 -0.152055
C127  C     C_R   0.204379 0.358709 0.460901 -0.151325
C128  C     C_R   0.810967 0.394537 0.534053 -0.152055
C129  C     C_R   0.742578 0.966001 0.150109 0.542033
C130  C     C_R   0.757569 0.898623 0.930733 0.002396
C131  C     C_R   0.257917 0.970268 0.851264 0.549211
C132  C     C_R   0.242578 0.466001 0.150109 0.542033
C133  C     C_R   0.757917 0.470268 0.851264 0.549211
C134  C     C_R   0.701150 0.847124 0.534469 -0.144498
C135  C     C_R   0.307445 0.885724 0.460378 -0.152465
C136  C     C_R   0.201150 0.347124 0.534469 -0.144498
C137  C     C_R   0.807445 0.385724 0.460378 -0.152465
C138  C     C_R   0.805010 0.109554 0.595537 -0.079966
C139  C     C_R   0.140015 0.049813 0.436636 -0.099604
C140  C     C_R   0.305009 0.609554 0.595537 -0.079966
Cl1   Cl    Cl    0.914569 0.010901 0.389262 -0.688849
Cl2   Cl    Cl    0.103160 0.873210 0.650552 -0.638175
Cl3   Cl    Cl    0.414569 0.510900 0.389262 -0.688848
Cl4   Cl    Cl    0.603160 0.373210 0.650551 -0.638175
Cr1   Cr    Cr6+3 0.772820 0.169820 0.252640 1.052884
Cr2   Cr    Cr6+3 0.383280 0.011130 0.749340 1.002716
Cr3   Cr    Cr6+3 0.116720 0.511130 0.250660 1.009888
Cr4   Cr    Cr6+3 0.883280 0.511130 0.749340 1.002716
Cr5   Cr    Cr6+3 0.227180 0.169820 0.747360 1.037296
Cr6   Cr    Cr6+3 0.272820 0.669820 0.252640 1.052884
Cr7   Cr    Cr6+3 0.727180 0.669820 0.747360 1.037296
Cr8   Cr    Cr6+3 0.615040 0.323610 0.249150 1.043227
Cr9   Cr    Cr6+3 0.384960 0.323610 0.750850 1.044879
Cr10  Cr    Cr6+3 0.115040 0.823610 0.249150 1.043227
Cr11  Cr    Cr6+3 0.884960 0.823610 0.750850 1.044879
Cr12  Cr    Cr6+3 0.616720 0.011130 0.250660 1.009888
H1    H     H_    0.612764 0.260918 0.026777 0.133710
H2    H     H_    0.448752 0.947097 0.370940 0.130103
H3    H     H_    0.048712 0.446035 0.616526 0.140774
H4    H     H_    0.948752 0.447097 0.370940 0.130103
H5    H     H_    0.046621 0.262729 0.544735 0.110254
H6    H     H_    0.992338 0.266453 0.418884 0.129152
H7    H     H_    0.546621 0.762729 0.544735 0.110254
H8    H     H_    0.492336 0.766453 0.418884 0.129153
H9    H     H_    0.670178 0.804615 0.426755 0.132246
H10   H     H_    0.361852 0.886428 0.559906 0.157439
H11   H     H_    0.170178 0.304615 0.426755 0.132246
H12   H     H_    0.388149 0.064617 0.973236 0.133335
H13   H     H_    0.861852 0.386428 0.559906 0.157439
H14   H     H_    0.784504 0.126621 0.648423 0.136305
H15   H     H_    0.145623 0.092540 0.385442 0.142813
H16   H     H_    0.284504 0.626621 0.648424 0.136305
H17   H     H_    0.645623 0.592540 0.385442 0.142813
H18   H     H_    0.671883 0.772946 0.555812 0.147618
H19   H     H_    0.350251 0.846260 0.431235 0.148033
H20   H     H_    0.171883 0.272946 0.555812 0.147618
H21   H     H_    0.850252 0.346260 0.431235 0.148033
H22   H     H_    0.897770 0.211826 0.617768 0.119105
H23   H     H_    0.112764 0.760918 0.026777 0.133710
H24   H     H_    0.035879 0.104311 0.442971 0.161532
H25   H     H_    0.397771 0.711826 0.617769 0.119105
H26   H     H_    0.535879 0.604312 0.442971 0.161531
H27   H     H_    0.949497 0.157383 0.505187 0.117600
H28   H     H_    0.019235 0.029062 0.566195 0.133639
H29   H     H_    0.449497 0.657382 0.505187 0.117600
H30   H     H_    0.519235 0.529062 0.566195 0.133639
H31   H     H_    0.495374 0.371658 0.959544 0.112956
H32   H     H_    0.407265 0.265100 0.066149 0.117403
H33   H     H_    0.995374 0.871658 0.959544 0.112956
H34   H     H_    0.888149 0.564617 0.973236 0.133335
H35   H     H_    0.907265 0.765100 0.066149 0.117403
H36   H     H_    0.504057 0.953938 0.039592 0.148642
H37   H     H_    0.594583 0.059375 0.935085 0.121290
H38   H     H_    0.004057 0.453938 0.039592 0.148642
H39   H     H_    0.094583 0.559375 0.935085 0.121290
H40   H     H_    0.859415 0.976773 0.073801 0.140449
H41   H     H_    0.165189 0.057989 0.943102 0.165622
H42   H     H_    0.359415 0.476773 0.073801 0.140449
H43   H     H_    0.665189 0.557989 0.943102 0.165622
H44   H     H_    0.626571 0.838267 0.872546 0.136996
H45   H     H_    0.504712 0.356640 0.435718 0.209977
H46   H     H_    0.370471 0.786236 0.120576 0.142863
H47   H     H_    0.126572 0.338267 0.872546 0.136996
H48   H     H_    0.870471 0.286236 0.120576 0.142863
H49   H     H_    0.865939 0.955963 0.948001 0.144485
H50   H     H_    0.165093 0.038425 0.068719 0.150615
H51   H     H_    0.365939 0.455962 0.948001 0.144485
H52   H     H_    0.665093 0.538425 0.068719 0.150615
H53   H     H_    0.034974 0.234305 0.934888 0.120683
H54   H     H_    0.937819 0.148513 0.048343 0.095142
H55   H     H_    0.534974 0.734305 0.934888 0.120683
H56   H     H_    0.469134 0.352698 0.562466 0.170868
H57   H     H_    0.437819 0.648513 0.048343 0.095142
H58   H     H_    0.047776 0.195194 0.064922 0.104748
H59   H     H_    0.921064 0.138454 0.917506 0.102817
H60   H     H_    0.547776 0.695194 0.064922 0.104748
H61   H     H_    0.421064 0.638454 0.917506 0.102817
H62   H     H_    0.648087 0.768953 0.132170 0.129639
H63   H     H_    0.330439 0.757302 0.859562 0.132717
H64   H     H_    0.148087 0.268953 0.132170 0.129639
H65   H     H_    0.830439 0.257302 0.859562 0.132717
H66   H     H_    0.004712 0.856640 0.435718 0.209977
H67   H     H_    0.969134 0.852698 0.562466 0.170868
H68   H     H_    0.548712 0.946035 0.616525 0.140774
O1    O     O_R   0.788190 0.043000 0.172520 -0.510416
O2    O     O_R   0.454170 0.051610 0.669840 -0.541857
O3    O     O_R   0.045830 0.551610 0.330160 -0.524307
O4    O     O_R   0.954170 0.551610 0.669840 -0.541857
O5    O     O_R   0.681920 0.959720 0.327070 -0.515695
O6    O     O_R   0.318080 0.959720 0.672930 -0.526129
O7    O     O_R   0.181920 0.459720 0.327070 -0.515696
O8    O     O_R   0.818080 0.459720 0.672930 -0.526129
O9    O     O_3   0.668190 0.168190 0.250820 -0.261466
O10   O     O_3   0.331810 0.168190 0.749180 -0.265673
O11   O     O_3   0.168190 0.668190 0.250820 -0.261466
O12   O     O_R   0.211810 0.043000 0.827480 -0.503669
O13   O     O_3   0.831810 0.668190 0.749180 -0.265673
O14   O     O_R   0.766240 0.292300 0.176860 -0.516797
O15   O     O_R   0.233760 0.292300 0.823140 -0.515576
O16   O     O_R   0.266240 0.792300 0.176860 -0.516797
O17   O     O_R   0.733760 0.792300 0.823140 -0.515576
O18   O     O_R   0.670310 0.409160 0.168720 -0.528745
O19   O     O_R   0.329690 0.409160 0.831280 -0.531342
O20   O     O_R   0.170310 0.909160 0.168720 -0.528744
O21   O     O_R   0.829690 0.909160 0.831280 -0.531342
O22   O     O_R   0.556160 0.251900 0.173380 -0.499706
O23   O     O_R   0.288190 0.543000 0.172520 -0.510416
O24   O     O_R   0.443840 0.251900 0.826620 -0.495050
O25   O     O_R   0.056160 0.751900 0.173380 -0.499706
O26   O     O_R   0.943840 0.751900 0.826620 -0.495050
O27   O     O_R   0.545410 0.050140 0.168240 -0.526663
O28   O     O_R   0.454590 0.050140 0.831760 -0.521430
O29   O     O_R   0.045410 0.550140 0.168240 -0.526663
O30   O     O_R   0.954590 0.550140 0.831760 -0.521430
O31   O     O_R   0.681530 0.958350 0.176970 -0.513343
O32   O     O_R   0.318470 0.958350 0.823030 -0.515372
O33   O     O_R   0.181530 0.458350 0.176970 -0.513343
O34   O     O_R   0.711810 0.543000 0.827480 -0.503669
O35   O     O_R   0.818470 0.458350 0.823030 -0.515372
O36   O     O_R   0.788610 0.044480 0.334450 -0.442683
O37   O     O_R   0.211390 0.044480 0.665550 -0.469664
O38   O     O_R   0.288610 0.544480 0.334450 -0.442684
O39   O     O_R   0.711390 0.544480 0.665550 -0.469664
O40   O     O_R   0.766630 0.293670 0.326970 -0.499590
O41   O     O_R   0.233370 0.293670 0.673030 -0.516391
O42   O     O_R   0.266630 0.793670 0.326970 -0.499590
O43   O     O_R   0.733370 0.793670 0.673030 -0.516391
O44   O     O_R   0.670730 0.410640 0.330640 -0.519985
O45   O     O_R   0.556550 0.253260 0.323480 -0.478005
O46   O     O_R   0.329270 0.410640 0.669360 -0.513796
O47   O     O_R   0.170730 0.910640 0.330640 -0.519985
O48   O     O_R   0.829270 0.910640 0.669360 -0.513796
O49   O     O_R   0.443450 0.253260 0.676520 -0.466838
O50   O     O_R   0.056550 0.753260 0.323480 -0.478005
O51   O     O_R   0.943450 0.753260 0.676520 -0.466838
O52   O     O_R   0.545830 0.051610 0.330160 -0.524307

loop_
_geom_bond_atom_site_label_1
_geom_bond_atom_site_label_2
_ccdc_geom_bond_type
C125  C134  A    
C58   C62   A    
C37   H33   S    
C96   C105  A    
C136  H20   S    
C59   C130  A    
C29   O51   A    
C101  C102  A    
C17   C30   S    
C55   C59   A    
C57   H42   S    
C138  H14   S    
C11   H30   S    
C53   O19   A    
C66   C68   A    
Cr9   O46   S    
Cr4   O4    S    
C117  C122  A    
Cr5   O41   S    
C4    C8    A    
C17   C125  A    
C53   O15   A    
C14   Cl2   S    
Cr11  O48   S    
Cr12  O27   S    
C45   C83   S    
Cr8   O44   S    
C7    C11   A    
C105  C107  A    
C23   O47   A    
C5    C9    A    
C72   C77   A    
C15   C123  A    
C83   O29   A    
C103  C110  A    
C30   O36   A    
C30   O5    A    
C82   O28   A    
C16   Cl4   S    
C20   C128  A    
C44   C82   S    
C10   C15   A    
C78   H63   S    
C2    C60   A    
C77   H62   S    
C39   C97   S    
Cr7   O17   S    
C68   H53   S    
C68   C74   A    
Cr6   O11   S    
C31   O6    A    
C92   C96   A    
C10   H29   S    
C12   Cl1   S    
C27   C90   S    
C44   C97   S    
C87   C131  S    
Cr10  O50   S    
C86   C97   S    
C48   C66   A    
C110  C111  A    
C38   C45   S    
C67   H48   S    
C50   C85   A    
C85   C129  S    
C80   H65   S    
C58   C89   A    
Cr3   O7    S    
Cr12  O5    S    
C3    H17   S    
C65   H46   S    
C115  C137  A    
C65   C71   A    
C96   C98   A    
Cr10  O11   S    
C73   C78   A    
C5    C139  A    
Cr4   O8    S    
C4    H22   S    
C37   C47   S    
C33   O8    A    
C49   C67   A    
Cr6   O42   S    
Cr1   O40   S    
C54   C80   A    
C25   C112  S    
C45   C108  S    
C92   C102  A    
C27   O49   A    
Cr5   O10   S    
Cr9   O49   S    
C83   O25   A    
C59   H49   S    
C23   O42   A    
C47   C119  S    
C55   H40   S    
Cr9   O24   S    
C32   O7    A    
C128  H13   S    
C140  H16   S    
C114  C136  A    
C39   H1    S    
Cr1   O36   S    
Cr5   O15   S    
C70   H55   S    
C107  C109  A    
C108  C119  S    
C117  C139  A    
C81   O27   A    
C118  C140  A    
C19   C32   S    
C28   O3    A    
C90   C100  A    
C42   C47   S    
C25   O43   A    
Cr11  O26   S    
C2    C64   S    
C102  H67   S    
C90   C94   A    
C13   C53   S    
Cr11  O21   S    
C69   H54   S    
Cr6   O23   S    
Cr7   O13   S    
Cr10  O20   S    
C58   H43   S    
Cr5   O12   S    
C89   C133  S    
C116  C121  A    
C12   C121  A    
C6    H25   S    
C84   O26   A    
C34   C39   S    
C51   C87   A    
C36   C40   S    
C34   C44   S    
C127  C136  A    
C46   C65   A    
Cr11  O51   S    
C3    C120  A    
C40   C86   S    
C71   C73   A    
C76   H59   S    
Cr3   O3    S    
C131  O32   A    
C56   C87   A    
C39   C43   S    
Cr8   O9    S    
Cr2   O2    S    
C62   H52   S    
C71   H57   S    
Cr1   O1    S    
C46   C51   A    
Cr3   O29   S    
C2    C46   A    
C129  O1    A    
C56   C60   A    
Cr2   O28   S    
C28   C93   S    
C67   C69   A    
C104  C111  A    
C135  H19   S    
C55   C85   A    
C125  H9    S    
C9    C14   A    
C101  H66   S    
C5    H24   S    
Cr8   O18   S    
C37   C38   S    
C75   O17   A    
C103  H68   S    
C23   C113  S    
C26   O45   A    
C11   C16   A    
C42   H34   S    
C21   O40   A    
C28   O50   A    
C99   C100  A    
C63   C70   A    
C48   C52   A    
Cr8   O45   S    
C8    C12   A    
C19   C123  A    
Cr1   O14   S    
C35   C50   A    
C31   O37   A    
C73   H61   S    
C132  O23   A    
C47   C84   S    
C41   C119  S    
C32   O38   A    
C35   C130  A    
Cr6   O38   S    
C63   H44   S    
C114  C118  A    
C14   C122  A    
C54   C89   A    
C128  C137  A    
C113  C117  A    
C20   C33   S    
C8    H27   S    
Cr7   O43   S    
C133  O34   A    
C72   H60   S    
C18   C122  A    
C126  C135  A    
C115  C120  A    
Cr6   O16   S    
C74   C79   A    
Cr9   O19   S    
C6    C140  A    
C84   O30   A    
C43   C81   S    
C40   H12   S    
C15   Cl3   S    
Cr3   O33   S    
C9    H28   S    
C66   H47   S    
Cr4   O35   S    
C93   C101  A    
Cr10  O47   S    
C52   C79   A    
C50   C77   A    
C107  H5    S    
C112  C116  A    
Cr12  O52   S    
C95   C104  A    
C56   H41   S    
Cr2   O6    S    
C133  O35   A    
C17   C121  A    
C24   C49   A    
C41   H23   S    
C24   C62   A    
C134  H18   S    
C7    H26   S    
Cr2   O32   S    
Cr1   O9    S    
C43   C86   S    
Cr8   O22   S    
C81   O22   A    
Cr5   O37   S    
C111  H8    S    
C76   C80   A    
C104  H2    S    
C126  H10   S    
C75   O21   A    
C74   H58   S    
C6    C10   A    
C13   C48   A    
C35   C63   A    
Cr4   O13   S    
C75   C130  S    
C27   O2    A    
C57   C61   A    
C132  O33   A    
C64   O20   A    
Cr10  O25   S    
Cr7   O39   S    
C131  O12   A    
C94   C103  A    
C33   O39   A    
C22   C114  S    
C3    C7    A    
C21   C115  S    
C98   C106  A    
C57   C88   A    
C82   O24   A    
C109  H6    S    
C21   O44   A    
C139  H15   S    
C26   C91   S    
C51   C78   A    
C1    O14   A    
C41   C45   S    
Cr4   O30   S    
C18   C126  A    
C110  H7    S    
C26   O52   A    
C1    C24   S    
C22   O41   A    
C60   H50   S    
C79   H64   S    
C105  H3    S    
C34   H31   S    
C42   C108  S    
C129  O31   A    
C106  H4    S    
C112  C134  A    
C22   O46   A    
C34   C36   S    
C100  H56   S    
Cr9   O10   S    
C119  H39   S    
C118  C123  A    
C37   C41   S    
C94   C95   A    
C52   C88   A    
C86   H36   S    
C64   O16   A    
C25   O48   A    
Cr12  O9    S    
C1    O18   A    
C116  C138  A    
C4    C138  A    
C38   C42   S    
C120  C124  A    
C40   C44   S    
C137  H21   S    
C69   C76   A    
Cr11  O13   S    
C91   C95   A    
C127  H11   S    
C38   H35   S    
C113  C135  A    
C97   H37   S    
C13   C61   A    
Cr2   O10   S    
C88   C132  S    
C36   C43   S    
C70   C72   A    
C18   C31   S    
C19   C127  A    
C29   O4    A    
C36   H32   S    
C91   C99   A    
C16   C124  A    
C61   H51   S    
C108  H38   S    
C93   C98   A    
C106  C109  A    
C29   C92   S    
C99   H45   S    
C49   C54   A    
Cr7   O34   S    
C20   C124  A    
Cr12  O31   S    
Cr3   O11   S    
