data_mof_unit_63423.cif
_audit_creation_date              2012-12-10T18:18:16-0500
_audit_creation_method            fapswitch 2.2
_symmetry_space_group_name_H-M    P1
_symmetry_Int_Tables_number       1
_space_group_crystal_system       triclinic
_cell_length_a                    29.163122
_cell_length_b                    29.16315
_cell_length_c                    55.883657
_cell_angle_alpha                 90.000029
_cell_angle_beta                  90.000022
_cell_angle_gamma                 90.015577
_cell_volume                      47528.4059356

loop_
_atom_site_label
_atom_site_type_symbol
_atom_type_description
_atom_site_fract_x
_atom_site_fract_y
_atom_site_fract_z
_atom_type_partial_charge
C1    C     C_R   0.086738 0.500005 0.500000 0.899572
C2    C     C_R   0.414298 0.499999 0.500000 0.877704
C3    C     C_1   0.499996 0.678569 0.500000 0.013191
C4    C     C_1   0.821431 0.000004 1.000000 0.013190
C5    C     C_1   0.000004 0.821431 1.000000 0.013191
C6    C     C_1   0.178568 0.999996 0.000000 0.013190
C7    C     C_1   0.999996 0.178568 0.000000 0.013191
C8    C     C_R   0.000000 0.500000 0.452408 0.992525
C9    C     C_R   0.500000 1.000000 0.452408 0.992485
C10   C     C_R   1.000000 0.500000 0.547592 0.992510
C11   C     C_R   0.500000 0.000000 0.547592 0.992527
C12   C     C_R   0.500000 1.000000 0.952408 0.992523
C13   C     C_R   0.499999 0.414298 0.500000 0.877704
C14   C     C_R   0.000000 0.500000 0.952408 0.992484
C15   C     C_R   0.500000 0.000000 0.047592 0.992504
C16   C     C_R   1.000000 0.500000 0.047592 0.992527
C17   C     C_1   0.363636 0.500002 0.500000 -0.191972
C18   C     C_1   0.500002 0.363636 0.500000 -0.191972
C19   C     C_1   0.636364 0.499998 0.500000 -0.191972
C20   C     C_1   0.499998 0.636364 0.500000 -0.191972
C21   C     C_1   0.863636 0.000002 1.000000 -0.191972
C22   C     C_1   0.000002 0.863636 1.000000 -0.191972
C23   C     C_1   0.136364 0.999998 0.000000 -0.191972
C24   C     C_R   0.585702 0.500000 0.500000 0.877705
C25   C     C_1   0.999998 0.136364 0.000000 -0.191972
C26   C     C_R   0.030761 0.529148 0.262681 0.044012
C27   C     C_R   0.529144 0.030765 0.262681 0.044012
C28   C     C_R   0.969239 0.470851 0.262681 0.044012
C29   C     C_R   0.470857 0.969233 0.262681 0.044012
C30   C     C_R   0.030753 0.529158 0.737319 0.044011
C31   C     C_R   0.470851 0.969238 0.737319 0.044012
C32   C     C_R   0.969247 0.470842 0.737318 0.044011
C33   C     C_R   0.529148 0.030761 0.737319 0.044012
C34   C     C_R   0.530762 0.029148 0.762681 0.044012
C35   C     C_R   0.000000 0.085702 0.000000 0.877704
C36   C     C_R   0.970861 0.469230 0.762681 0.044011
C37   C     C_R   0.469237 0.970852 0.762681 0.044011
C38   C     C_R   0.029139 0.530770 0.762681 0.044011
C39   C     C_R   0.469244 0.970845 0.237318 0.044012
C40   C     C_R   0.970853 0.469237 0.237319 0.044012
C41   C     C_R   0.530758 0.029152 0.237319 0.044011
C42   C     C_R   0.029148 0.530762 0.237319 0.044012
C43   C     C_R   0.000000 0.499999 0.275222 0.075195
C44   C     C_R   0.500001 0.999999 0.275222 0.075195
C45   C     C_R   0.000000 0.500000 0.724777 0.075195
C46   C     C_R   0.914298 0.999999 0.000000 0.877704
C47   C     C_R   0.500000 0.000000 0.724777 0.075195
C48   C     C_R   0.500000 0.000000 0.775222 0.075195
C49   C     C_R   1.000000 0.500000 0.775222 0.075195
C50   C     C_R   0.500001 0.999999 0.224777 0.075195
C51   C     C_R   0.000000 0.499999 0.224777 0.075195
C52   C     C_R   0.062454 0.555504 0.276056 -0.208726
C53   C     C_R   0.555496 0.062461 0.276056 -0.208725
C54   C     C_R   0.937547 0.444494 0.276056 -0.208726
C55   C     C_R   0.444506 0.937536 0.276056 -0.208726
C56   C     C_R   0.062436 0.555524 0.723944 -0.208725
C57   C     C_R   0.999999 0.914298 0.000000 0.877704
C58   C     C_R   0.444496 0.937546 0.723944 -0.208726
C59   C     C_R   0.937564 0.444476 0.723944 -0.208725
C60   C     C_R   0.555504 0.062454 0.723944 -0.208726
C61   C     C_R   0.562455 0.055503 0.776056 -0.208727
C62   C     C_R   0.944513 0.437530 0.776056 -0.208724
C63   C     C_R   0.437544 0.944497 0.776056 -0.208727
C64   C     C_R   0.055487 0.562469 0.776056 -0.208724
C65   C     C_R   0.437556 0.944484 0.223944 -0.208725
C66   C     C_R   0.944498 0.437544 0.223944 -0.208727
C67   C     C_R   0.562445 0.055514 0.223944 -0.208725
C68   C     C_R   0.085702 0.000000 0.000000 0.877705
C69   C     C_R   0.055503 0.562455 0.223944 -0.208726
C70   C     C_R   0.062569 0.554711 0.300875 -0.132306
C71   C     C_R   0.554703 0.062576 0.300875 -0.132306
C72   C     C_R   0.937431 0.445288 0.300875 -0.132305
C73   C     C_R   0.445298 0.937421 0.300875 -0.132306
C74   C     C_R   0.062552 0.554732 0.699125 -0.132307
C75   C     C_R   0.445289 0.937430 0.699125 -0.132304
C76   C     C_R   0.937448 0.445269 0.699125 -0.132307
C77   C     C_R   0.554711 0.062570 0.699125 -0.132305
C78   C     C_R   0.562571 0.054709 0.800875 -0.132305
C79   C     C_R   0.014484 0.461131 0.388338 -0.217897
C80   C     C_R   0.945306 0.437415 0.800875 -0.132307
C81   C     C_R   0.437429 0.945291 0.800875 -0.132304
C82   C     C_R   0.054694 0.562584 0.800875 -0.132307
C83   C     C_R   0.437441 0.945277 0.199125 -0.132306
C84   C     C_R   0.945291 0.437428 0.199125 -0.132305
C85   C     C_R   0.562560 0.054721 0.199125 -0.132306
C86   C     C_R   0.054709 0.562571 0.199125 -0.132305
C87   C     C_R   0.031294 0.527523 0.313348 -0.032421
C88   C     C_R   0.527519 0.031297 0.313348 -0.032423
C89   C     C_R   0.968706 0.472477 0.313348 -0.032422
C90   C     C_R   0.538868 0.985512 0.388337 -0.217912
C91   C     C_R   0.472482 0.968700 0.313347 -0.032422
C92   C     C_R   0.031286 0.527533 0.686652 -0.032423
C93   C     C_R   0.472477 0.968705 0.686652 -0.032422
C94   C     C_R   0.968715 0.472467 0.686652 -0.032423
C95   C     C_R   0.527523 0.031295 0.686652 -0.032421
C96   C     C_R   0.531295 0.027522 0.813348 -0.032421
C97   C     C_R   0.972486 0.468698 0.813348 -0.032424
C98   C     C_R   0.468704 0.972478 0.813348 -0.032421
C99   C     C_R   0.027514 0.531301 0.813348 -0.032424
C100  C     C_R   0.468711 0.972471 0.186652 -0.032422
C101  C     C_R   0.985516 0.538869 0.388337 -0.217898
C102  C     C_R   0.972478 0.468704 0.186652 -0.032421
C103  C     C_R   0.531290 0.027528 0.186652 -0.032423
C104  C     C_R   0.027522 0.531295 0.186652 -0.032422
C105  C     C_R   0.000000 0.500000 0.300618 -0.050174
C106  C     C_R   0.500000 0.999999 0.300618 -0.050174
C107  C     C_R   0.000000 0.500000 0.699382 -0.050172
C108  C     C_R   0.500000 1.000000 0.699382 -0.050174
C109  C     C_R   0.500000 0.000000 0.800618 -0.050174
C110  C     C_R   1.000000 0.500000 0.800618 -0.050172
C111  C     C_R   0.500000 0.999999 0.199382 -0.050173
C112  C     C_R   0.500005 0.086738 0.500000 0.899564
C113  C     C_R   0.461132 0.014486 0.388337 -0.217913
C114  C     C_R   0.000000 0.499999 0.199382 -0.050174
C115  C     C_R   0.030829 0.526883 0.338414 0.522798
C116  C     C_R   0.526879 0.030831 0.338414 0.522799
C117  C     C_R   0.969172 0.473117 0.338414 0.522797
C118  C     C_R   0.473122 0.969166 0.338414 0.522799
C119  C     C_R   0.030820 0.526893 0.661586 0.522799
C120  C     C_R   0.473117 0.969171 0.661586 0.522800
C121  C     C_R   0.969181 0.473107 0.661586 0.522799
C122  C     C_R   0.526883 0.030829 0.661586 0.522797
C123  C     C_R   0.530829 0.026882 0.838414 0.522798
C124  C     C_R   0.985497 0.538862 0.611662 -0.217908
C125  C     C_R   0.973125 0.469164 0.838414 0.522800
C126  C     C_R   0.469170 0.973118 0.838414 0.522798
C127  C     C_R   0.026875 0.530835 0.838414 0.522801
C128  C     C_R   0.469177 0.973111 0.161586 0.522799
C129  C     C_R   0.973118 0.469170 0.161586 0.522797
C130  C     C_R   0.530824 0.026888 0.161586 0.522799
C131  C     C_R   0.026882 0.530829 0.161586 0.522797
C132  C     C_R   0.538869 0.985516 0.611662 -0.217898
C133  C     C_R   0.014503 0.461138 0.611662 -0.217907
C134  C     C_R   0.461131 0.014484 0.611662 -0.217898
C135  C     C_R   0.514483 0.961131 0.888337 -0.217897
C136  C     C_R   0.038868 0.485513 0.888337 -0.217914
C137  C     C_R   0.485517 0.038869 0.888337 -0.217898
C138  C     C_R   0.961132 0.514486 0.888337 -0.217914
C139  C     C_R   0.485502 0.038863 0.111663 -0.217909
C140  C     C_R   0.913262 0.499995 0.500000 0.899573
C141  C     C_R   0.038869 0.485516 0.111662 -0.217898
C142  C     C_R   0.514498 0.961136 0.111663 -0.217910
C143  C     C_R   0.961131 0.514483 0.111663 -0.217897
C144  C     C_R   0.014697 0.460642 0.413418 0.357053
C145  C     C_R   0.539357 0.985300 0.413418 0.357062
C146  C     C_R   0.985303 0.539358 0.413418 0.357052
C147  C     C_R   0.460643 0.014699 0.413417 0.357061
C148  C     C_R   0.985285 0.539351 0.586582 0.357056
C149  C     C_R   0.539358 0.985303 0.586582 0.357053
C150  C     C_R   0.014715 0.460649 0.586582 0.357056
C151  C     C_R   0.499995 0.913262 0.500000 0.899565
C152  C     C_R   0.460642 0.014696 0.586582 0.357053
C153  C     C_R   0.514695 0.960641 0.913418 0.357054
C154  C     C_R   0.039357 0.485301 0.913417 0.357065
C155  C     C_R   0.485305 0.039359 0.913418 0.357053
C156  C     C_R   0.960642 0.514699 0.913417 0.357066
C157  C     C_R   0.485289 0.039353 0.086582 0.357056
C158  C     C_R   0.039358 0.485304 0.086582 0.357053
C159  C     C_R   0.514711 0.960647 0.086582 0.357057
C160  C     C_R   0.960642 0.514696 0.086582 0.357054
C161  C     C_R   0.000000 0.500000 0.426056 -0.166004
C162  C     C_R   0.586738 0.000005 0.000000 0.899570
C163  C     C_R   0.500000 1.000000 0.426055 -0.166025
C164  C     C_R   0.000000 0.500000 0.573944 -0.166017
C165  C     C_R   0.500000 1.000000 0.573944 -0.166003
C166  C     C_R   0.500000 1.000000 0.926056 -0.166005
C167  C     C_R   1.000000 0.500000 0.926055 -0.166027
C168  C     C_R   0.500000 0.000000 0.073944 -0.166017
C169  C     C_R   1.000000 0.500000 0.073944 -0.166003
C170  C     C_R   0.000000 0.500000 0.375928 0.236286
C171  C     C_R   0.500000 0.999999 0.375928 0.236302
C172  C     C_R   0.000000 0.500000 0.624071 0.236298
C173  C     C_R   0.000005 0.586738 0.000000 0.899564
C174  C     C_R   0.500000 1.000000 0.624071 0.236286
C175  C     C_R   0.500000 1.000000 0.875928 0.236287
C176  C     C_R   1.000000 0.500000 0.875928 0.236308
C177  C     C_R   0.500000 1.000000 0.124072 0.236301
C178  C     C_R   0.000000 0.499999 0.124072 0.236288
C179  C     C_1   0.137398 0.500012 0.500000 -0.186755
C180  C     C_1   0.500012 0.137398 0.500000 -0.186757
C181  C     C_1   0.862602 0.499988 0.500000 -0.186755
C182  C     C_1   0.499988 0.862602 0.500000 -0.186757
C183  C     C_1   0.637398 0.000012 1.000000 -0.186755
C184  C     C_R   0.413262 0.999995 0.000000 0.899570
C185  C     C_1   0.000012 0.637398 0.000000 -0.186757
C186  C     C_1   0.362602 0.999988 0.000000 -0.186755
C187  C     C_1   0.999988 0.362602 0.000000 -0.186757
C188  C     C_1   0.179602 0.500012 0.500000 0.018035
C189  C     C_1   0.500012 0.179602 0.500000 0.018035
C190  C     C_1   0.820398 0.499988 0.500000 0.018035
C191  C     C_1   0.499988 0.820398 0.500000 0.018035
C192  C     C_1   0.679602 0.000012 1.000000 0.018035
C193  C     C_1   0.000012 0.679602 0.000000 0.018035
C194  C     C_1   0.320398 0.999988 0.000000 0.018035
C195  C     C_R   0.999995 0.413262 0.000000 0.899565
C196  C     C_1   0.999988 0.320398 0.000000 0.018035
C197  C     C_1   0.229415 0.500010 0.500000 0.020790
C198  C     C_1   0.500010 0.229415 0.500000 0.020790
C199  C     C_1   0.770585 0.499990 0.500000 0.020790
C200  C     C_1   0.499990 0.770585 0.500000 0.020790
C201  C     C_1   0.729415 0.000010 1.000000 0.020790
C202  C     C_1   0.000010 0.729415 0.000000 0.020791
C203  C     C_1   0.270585 0.999990 0.000000 0.020790
C204  C     C_1   0.999990 0.270585 0.000000 0.020791
C205  C     C_1   0.271618 0.500007 0.500000 0.018324
C206  C     C_R   0.500000 0.585702 0.500000 0.877704
C207  C     C_1   0.500007 0.271618 0.500000 0.018324
C208  C     C_1   0.728382 0.499993 0.500000 0.018324
C209  C     C_1   0.499993 0.728382 0.500000 0.018324
C210  C     C_1   0.771618 0.000007 1.000000 0.018324
C211  C     C_1   0.000007 0.771618 0.000000 0.018324
C212  C     C_1   0.228382 0.999993 0.000000 0.018324
C213  C     C_1   0.999993 0.228382 0.000000 0.018324
C214  C     C_1   0.321431 0.500004 0.500000 0.013190
C215  C     C_1   0.500004 0.321431 0.500000 0.013191
C216  C     C_1   0.678568 0.499996 0.500000 0.013190
H1    H     H_    0.088466 0.576558 0.267928 0.145190
H2    H     H_    0.923467 0.411511 0.767928 0.145189
H3    H     H_    0.411531 0.923445 0.767928 0.145190
H4    H     H_    0.076533 0.588488 0.767928 0.145189
H5    H     H_    0.411547 0.923426 0.232071 0.145189
H6    H     H_    0.923445 0.411530 0.232072 0.145190
H7    H     H_    0.588455 0.076572 0.232072 0.145189
H8    H     H_    0.076555 0.588469 0.232072 0.145190
H9    H     H_    0.087469 0.575615 0.310265 0.191857
H10   H     H_    0.575603 0.087479 0.310265 0.191857
H11   H     H_    0.912531 0.424384 0.310265 0.191857
H12   H     H_    0.576545 0.088477 0.267928 0.145189
H13   H     H_    0.424398 0.912518 0.310265 0.191856
H14   H     H_    0.087445 0.575643 0.689735 0.191857
H15   H     H_    0.424386 0.912530 0.689735 0.191857
H16   H     H_    0.912555 0.424357 0.689735 0.191857
H17   H     H_    0.575614 0.087470 0.689735 0.191857
H18   H     H_    0.587472 0.075612 0.810265 0.191857
H19   H     H_    0.924409 0.412510 0.810265 0.191857
H20   H     H_    0.412528 0.924388 0.810265 0.191857
H21   H     H_    0.075591 0.587490 0.810265 0.191857
H22   H     H_    0.412544 0.924369 0.189735 0.191857
H23   H     H_    0.911534 0.423441 0.267928 0.145190
H24   H     H_    0.924388 0.412527 0.189735 0.191857
H25   H     H_    0.587457 0.075630 0.189735 0.191857
H26   H     H_    0.075612 0.587471 0.189735 0.191857
H27   H     H_    0.025843 0.431398 0.378342 0.152670
H28   H     H_    0.568599 0.974151 0.378341 0.152663
H29   H     H_    0.974157 0.568601 0.378342 0.152670
H30   H     H_    0.431401 0.025846 0.378341 0.152663
H31   H     H_    0.974125 0.568589 0.621658 0.152666
H32   H     H_    0.568602 0.974157 0.621658 0.152670
H33   H     H_    0.025876 0.431411 0.621658 0.152666
H34   H     H_    0.423456 0.911520 0.267928 0.145189
H35   H     H_    0.431398 0.025843 0.621658 0.152670
H36   H     H_    0.525841 0.931398 0.878342 0.152670
H37   H     H_    0.068600 0.474153 0.878341 0.152659
H38   H     H_    0.474159 0.068602 0.878342 0.152670
H39   H     H_    0.931400 0.525846 0.878341 0.152659
H40   H     H_    0.474132 0.068592 0.121658 0.152665
H41   H     H_    0.068602 0.474157 0.121658 0.152670
H42   H     H_    0.525868 0.931408 0.121658 0.152664
H43   H     H_    0.931398 0.525842 0.121658 0.152670
H44   H     H_    0.038851 0.398338 0.414284 0.340653
H45   H     H_    0.088442 0.576586 0.732072 0.145189
H46   H     H_    0.601659 0.961142 0.414284 0.340650
H47   H     H_    0.961149 0.601661 0.414284 0.340652
H48   H     H_    0.398340 0.038855 0.414283 0.340650
H49   H     H_    0.961101 0.601643 0.585716 0.340651
H50   H     H_    0.601662 0.961150 0.585716 0.340653
H51   H     H_    0.038899 0.398357 0.585716 0.340652
H52   H     H_    0.398338 0.038850 0.585716 0.340653
H53   H     H_    0.538847 0.898337 0.914284 0.340653
H54   H     H_    0.101659 0.461144 0.914283 0.340649
H55   H     H_    0.461153 0.101663 0.914284 0.340652
H56   H     H_    0.423442 0.911533 0.732072 0.145190
H57   H     H_    0.898340 0.538856 0.914283 0.340649
H58   H     H_    0.461112 0.101647 0.085716 0.340651
H59   H     H_    0.101662 0.461151 0.085716 0.340654
H60   H     H_    0.538888 0.898353 0.085716 0.340651
H61   H     H_    0.898338 0.538849 0.085716 0.340653
H62   H     H_    0.911558 0.423414 0.732071 0.145189
H63   H     H_    0.576558 0.088467 0.732072 0.145190
H64   H     H_    0.588469 0.076555 0.767928 0.145190
N1    N     N_R   0.000000 0.500000 0.350349 -0.334904
N2    N     N_R   0.500000 0.999999 0.350349 -0.334906
N3    N     N_R   0.000000 0.500000 0.649650 -0.334905
N4    N     N_R   0.500000 1.000000 0.649651 -0.334905
N5    N     N_R   0.500000 1.000000 0.850349 -0.334904
N6    N     N_R   1.000000 0.500000 0.850349 -0.334907
N7    N     N_R   0.500000 1.000000 0.149650 -0.334905
N8    N     N_R   0.000000 0.499999 0.149651 -0.334904
O1    O     O_R   0.063110 0.464380 0.500020 -0.590344
O2    O     O_R   0.035620 0.563110 0.000020 -0.609655
O3    O     O_R   0.436890 0.035620 0.000020 -0.590346
O4    O     O_R   0.964380 0.436890 0.000020 -0.609655
O5    O     O_R   0.563110 0.035620 0.999980 -0.609659
O6    O     O_R   0.035620 0.436890 0.999980 -0.590349
O7    O     O_R   0.436890 0.964380 0.999980 -0.609659
O8    O     O_R   0.964380 0.563110 0.999980 -0.590350
O9    O     O_R   0.999990 0.464380 0.464400 -0.572057
O10   O     O_R   0.535620 0.999990 0.464400 -0.572049
O11   O     O_R   0.000010 0.535620 0.464400 -0.572056
O12   O     O_R   0.535620 0.063110 0.500020 -0.609655
O13   O     O_R   0.464380 0.000010 0.464400 -0.572049
O14   O     O_R   0.999990 0.535620 0.535600 -0.572063
O15   O     O_R   0.535620 0.000010 0.535600 -0.572058
O16   O     O_R   0.000010 0.464380 0.535600 -0.572062
O17   O     O_R   0.464380 0.999990 0.535600 -0.572057
O18   O     O_R   0.499990 0.964380 0.964400 -0.572056
O19   O     O_R   0.035620 0.499990 0.964400 -0.572049
O20   O     O_R   0.500010 0.035620 0.964400 -0.572055
O21   O     O_R   0.964380 0.500010 0.964400 -0.572048
O22   O     O_R   0.499990 0.035620 0.035600 -0.572060
O23   O     O_R   0.936890 0.535620 0.500020 -0.590344
O24   O     O_R   0.035620 0.500010 0.035600 -0.572057
O25   O     O_R   0.500010 0.964380 0.035600 -0.572059
O26   O     O_R   0.964380 0.499990 0.035600 -0.572057
O27   O     O_2   0.061085 0.552663 0.350797 -0.552489
O28   O     O_2   0.552655 0.061091 0.350797 -0.552489
O29   O     O_2   0.938915 0.447336 0.350797 -0.552489
O30   O     O_2   0.447345 0.938907 0.350797 -0.552488
O31   O     O_2   0.061067 0.552684 0.649203 -0.552489
O32   O     O_2   0.447338 0.938914 0.649203 -0.552490
O33   O     O_2   0.938933 0.447316 0.649203 -0.552490
O34   O     O_R   0.464380 0.936890 0.500020 -0.609655
O35   O     O_2   0.552662 0.061086 0.649203 -0.552488
O36   O     O_2   0.561087 0.052661 0.850797 -0.552489
O37   O     O_2   0.947352 0.438902 0.850797 -0.552487
O38   O     O_2   0.438913 0.947339 0.850797 -0.552490
O39   O     O_2   0.052648 0.561097 0.850797 -0.552487
O40   O     O_2   0.438925 0.947325 0.149203 -0.552489
O41   O     O_2   0.947339 0.438912 0.149203 -0.552489
O42   O     O_2   0.561075 0.052675 0.149203 -0.552489
O43   O     O_2   0.052661 0.561086 0.149203 -0.552489
O44   O     O_R   0.500000 0.563170 0.479920 -0.590215
O45   O     O_R   0.063110 0.535620 0.499980 -0.609660
O46   O     O_R   0.436830 0.500000 0.479920 -0.590215
O47   O     O_R   0.500000 0.436830 0.479920 -0.590215
O48   O     O_R   0.563170 0.500000 0.479920 -0.590215
O49   O     O_R   0.500000 0.436830 0.520080 -0.590216
O50   O     O_R   0.436830 0.500000 0.520080 -0.590216
O51   O     O_R   0.500000 0.563170 0.520080 -0.590216
O52   O     O_R   0.563170 0.500000 0.520080 -0.590216
O53   O     O_R   1.000000 0.063170 0.979920 -0.590215
O54   O     O_R   0.936830 0.000000 0.979920 -0.590215
O55   O     O_R   0.000000 0.936830 0.979920 -0.590215
O56   O     O_R   0.535620 0.936890 0.499980 -0.590349
O57   O     O_R   0.063170 0.000000 0.979920 -0.590215
O58   O     O_R   1.000000 0.936830 0.020080 -0.590216
O59   O     O_R   0.936830 0.000000 0.020080 -0.590216
O60   O     O_R   1.000000 0.063170 0.020080 -0.590216
O61   O     O_R   0.063170 0.000000 0.020080 -0.590216
O62   O     O_3   0.029822 0.422539 0.425829 -0.735354
O63   O     O_3   0.577459 0.970172 0.425828 -0.735319
O64   O     O_3   0.970178 0.577461 0.425829 -0.735353
O65   O     O_3   0.422540 0.029826 0.425828 -0.735319
O66   O     O_3   0.970141 0.577447 0.574171 -0.735327
O67   O     O_R   0.936890 0.464380 0.499980 -0.609660
O68   O     O_3   0.577461 0.970178 0.574171 -0.735354
O69   O     O_3   0.029859 0.422553 0.574171 -0.735328
O70   O     O_3   0.422538 0.029821 0.574171 -0.735353
O71   O     O_3   0.529819 0.922538 0.925828 -0.735353
O72   O     O_3   0.077460 0.470174 0.925828 -0.735318
O73   O     O_3   0.470181 0.077462 0.925829 -0.735352
O74   O     O_3   0.922540 0.529826 0.925828 -0.735318
O75   O     O_3   0.470150 0.077450 0.074172 -0.735325
O76   O     O_3   0.077462 0.470179 0.074171 -0.735354
O77   O     O_3   0.529850 0.922550 0.074172 -0.735325
O78   O     O_R   0.464380 0.063110 0.499980 -0.590349
O79   O     O_3   0.922538 0.529821 0.074172 -0.735355
O80   O     O_R   0.563110 0.964380 0.000020 -0.590346
Zn1   Zn    Zn3+2 0.000000 0.452430 0.500000 1.058906
Zn2   Zn    Zn3+2 0.500000 0.500000 0.526830 0.987503
Zn3   Zn    Zn3+2 0.000000 1.000000 0.973170 0.987505
Zn4   Zn    Zn3+2 0.000000 0.000000 0.026830 0.987503
Zn5   Zn    Zn3+2 0.547570 0.000000 0.500000 1.058909
Zn6   Zn    Zn3+2 0.000000 0.547570 0.500000 1.058906
Zn7   Zn    Zn3+2 0.452430 0.000000 0.500000 1.058909
Zn8   Zn    Zn3+2 0.500000 0.952430 0.000000 1.058907
Zn9   Zn    Zn3+2 0.047570 0.500000 0.000000 1.058909
Zn10  Zn    Zn3+2 0.500000 0.047570 0.000000 1.058907
Zn11  Zn    Zn3+2 0.952430 0.500000 0.000000 1.058909
Zn12  Zn    Zn3+2 0.500000 0.500000 0.473170 0.987505

loop_
_geom_bond_atom_site_label_1
_geom_bond_atom_site_label_2
_ccdc_geom_bond_type
C153  C166  A    
C32   C45   A    
C30   C45   A    
C91   C106  A    
C135  H36   S    
C66   H6    S    
C68   O57   A    
C41   C67   A    
O26   Zn11  S    
C13   C18   S    
C11   O17   A    
C92   C119  A    
C118  N2    A    
C10   O16   A    
C144  C161  A    
C2    O50   A    
C142  C177  A    
C28   C40   A    
C58   H56   S    
C30   C38   A    
C142  H42   S    
C143  C178  A    
C74   C92   A    
C76   C94   A    
C116  N2    A    
C78   C96   A    
C26   C43   A    
C12   O18   A    
C93   C120  A    
C79   H27   S    
C196  C204  S    
C87   C115  A    
C85   C103  A    
O13   Zn7   S    
C147  O65   S    
C98   C109  A    
C39   C65   A    
C36   C62   A    
C157  C168  A    
C37   C63   A    
C190  C199  S    
C152  C165  A    
C38   C64   A    
C60   C77   A    
C146  C161  A    
C67   C85   A    
C141  C178  A    
O53   Zn3   S    
C170  N1    S    
O50   Zn2   S    
C28   C54   A    
C140  O67   A    
C119  N3    A    
C179  C188  T    
C29   C55   A    
C154  O72   S    
C99   C110  A    
C30   C56   A    
C34   C61   A    
C31   C37   A    
H52   O70   S    
C102  C114  A    
C131  O43   S    
C181  C190  T    
H54   O72   S    
C124  C172  A    
C86   H26   S    
C80   H19   S    
C91   C118  A    
C149  C165  A    
C101  C170  A    
C67   H7    S    
C9    O10   A    
C195  O4    A    
H44   O62   S    
C195  O6    A    
C205  C214  S    
C83   C100  A    
C29   C44   A    
C33   C47   A    
C61   H64   S    
C154  C167  A    
C34   C48   A    
C138  H39   S    
C53   C71   A    
C13   O49   A    
C75   C93   A    
C151  C182  S    
O8    Zn11  S    
C134  C174  A    
C24   O48   A    
C10   O14   A    
C27   C53   A    
C96   C109  A    
C200  C209  T    
O24   Zn9   S    
C56   H45   S    
C162  C183  S    
C116  O28   S    
C12   O20   A    
C206  O44   A    
C103  C130  A    
C95   C108  A    
H60   O77   S    
O15   Zn5   S    
C139  C157  A    
C100  C111  A    
C59   H62   S    
C11   C165  S    
C32   C59   A    
O56   Zn5   S    
C173  O2    A    
C136  C176  A    
C90   H28   S    
C80   C97   A    
C84   C102  A    
C144  O62   S    
C14   O19   A    
C202  C211  T    
C86   C104  A    
C73   H13   S    
C143  C160  A    
C118  O30   S    
C173  C185  S    
C52   H1    S    
C32   C36   A    
C79   C170  A    
C62   C80   A    
C133  C172  A    
C137  C175  A    
C180  C189  T    
C140  O23   A    
C63   H3    S    
O7    Zn8   S    
C148  O66   S    
C137  C155  A    
C175  N5    S    
H58   O75   S    
C157  O75   S    
C16   C169  S    
C72   H11   S    
C90   C171  A    
C76   H16   S    
C160  O79   S    
O58   Zn4   S    
H53   O71   S    
C162  O80   A    
O55   Zn3   S    
C68   O61   A    
C78   H18   S    
C122  O35   S    
C112  C180  S    
C24   O52   A    
C2    C17   S    
O51   Zn2   S    
C29   C39   A    
C70   C87   A    
C184  O7    A    
C94   C107  A    
C51   C114  A    
C148  C164  A    
C136  H37   S    
C143  H43   S    
C191  C200  S    
O21   Zn11  S    
O80   Zn8   S    
C177  N7    S    
C145  C163  A    
C178  N8    S    
C206  O51   A    
C71   C88   A    
C115  O27   S    
H48   O65   S    
C15   O22   A    
C139  C177  A    
C1    O45   A    
C87   C105  A    
C98   C126  A    
C192  C201  S    
C125  O37   S    
C132  C174  A    
C121  O33   S    
C89   C117  A    
O2    Zn9   S    
C17   C214  T    
C171  N2    S    
C133  H33   S    
C26   C42   A    
C96   C123  A    
C198  C207  T    
C100  C128  A    
C186  C194  T    
C133  C150  A    
O9    Zn1   S    
C40   C51   A    
C174  N4    S    
C147  C163  A    
C15   O25   A    
O12   Zn5   S    
C199  C208  T    
C151  O56   A    
O22   Zn10  S    
C15   C168  S    
O6    Zn9   S    
C55   C73   A    
C47   C108  A    
C89   C105  A    
C141  H41   S    
C31   C47   A    
C121  N3    A    
C158  O76   S    
C122  N4    A    
C59   C76   A    
C45   C107  A    
C49   C110  A    
C3    C209  S    
O57   Zn3   S    
C2    O46   A    
C187  C196  T    
C82   C99   A    
C197  C205  T    
C142  C159  A    
C101  H29   S    
C183  C192  T    
C65   H5    S    
C38   C49   A    
C16   O26   A    
C115  N1    A    
C124  C148  A    
C112  O12   A    
C54   H23   S    
C90   C145  A    
C93   C108  A    
C131  N8    A    
C81   C98   A    
C82   H21   S    
O59   Zn4   S    
C151  O34   A    
C103  C111  A    
C9    C163  S    
C172  N3    S    
O20   Zn10  S    
O49   Zn2   S    
C160  C169  A    
C70   H9    S    
C162  O5    A    
C137  H38   S    
H59   O76   S    
C83   H22   S    
C40   C66   A    
C132  C149  A    
C150  O69   S    
C134  H35   S    
C173  O8    A    
C5    C211  S    
C123  O36   S    
C56   C74   A    
C155  O73   S    
C104  C131  A    
C97   C125  A    
C132  H32   S    
C99   C127  A    
C193  C202  S    
C46   O54   A    
C127  O39   S    
C13   O47   A    
C145  O63   S    
C136  C154  A    
C130  O42   S    
C134  C152  A    
O4    Zn11  S    
C207  C215  S    
C55   H34   S    
C3    C20   T    
H51   O69   S    
O60   Zn4   S    
C184  O3    A    
C25   C35   S    
O25   Zn8   S    
C33   C60   A    
O34   Zn7   S    
O19   Zn9   S    
C71   H10   S    
C182  C191  T    
C41   C50   A    
C150  C164  A    
C60   H63   S    
C149  O68   S    
C125  N6    A    
O52   Zn2   S    
O3    Zn10  S    
C128  N7    A    
C130  N7    A    
O10   Zn5   S    
C44   C106  A    
O47   Zn12  S    
C28   C43   A    
C7    C25   T    
C113  C147  A    
C19   C24   S    
C159  O77   S    
O17   Zn7   S    
C188  C197  S    
C184  C186  S    
C117  N1    A    
C57   O58   A    
O11   Zn6   S    
C94   C121  A    
C141  C158  A    
C120  N4    A    
C8    O9    A    
H46   O63   S    
C46   O59   A    
C14   C167  S    
C36   C49   A    
C189  C198  S    
C16   O24   A    
H49   O66   S    
C97   C110  A    
C18   C215  T    
C102  C129  A    
C20   C206  S    
C14   O21   A    
C74   H14   S    
C129  O41   S    
C22   C57   S    
C113  C171  A    
H47   O64   S    
C63   C81   A    
O18   Zn8   S    
C62   H2    S    
C31   C58   A    
C152  O70   S    
C8    C161  S    
C53   H12   S    
C12   C166  S    
C65   C83   A    
C6    C212  S    
C6    C23   T    
C155  C166  A    
C113  H30   S    
C4    C210  S    
C159  C168  A    
O14   Zn6   S    
C19   C216  T    
C43   C105  A    
C50   C111  A    
C123  N5    A    
C5    C22   T    
C128  O40   S    
C146  O64   S    
C139  H40   S    
C42   C51   A    
C48   C109  A    
C208  C216  S    
C35   O53   A    
C127  N6    A    
C84   H24   S    
C27   C44   A    
C85   H25   S    
H61   O79   S    
C58   C75   A    
C101  C146  A    
C64   H4    S    
C1    O1    A    
O44   Zn12  S    
C73   C91   A    
O45   Zn6   S    
C156  C167  A    
C204  C213  T    
C77   C95   A    
C42   C69   A    
C156  O74   S    
O54   Zn3   S    
O61   Zn4   S    
C135  C175  A    
C23   C68   S    
C88   C116  A    
H50   O68   S    
C9    O13   A    
C26   C52   A    
C88   C106  A    
C27   C41   A    
C92   C107  A    
C11   O15   A    
C79   C144  A    
C8    O11   A    
C61   C78   A    
C126  O38   S    
C77   H17   S    
C33   C34   A    
C81   H20   S    
C37   C48   A    
C75   H15   S    
C64   C82   A    
C7    C213  S    
C104  C114  A    
C138  C176  A    
C203  C212  T    
C201  C210  T    
O46   Zn12  S    
C95   C122  A    
C21   C46   S    
O48   Zn12  S    
C138  C156  A    
C153  O71   S    
C10   C164  S    
C187  C195  S    
C129  N8    A    
C185  C193  T    
O78   Zn7   S    
O67   Zn1   S    
C158  C169  A    
O1    Zn1   S    
C140  C181  S    
C135  C153  A    
C69   H8    S    
C35   O60   A    
H55   O73   S    
C124  H31   S    
H57   O74   S    
C4    C21   T    
C1    C179  S    
C117  O29   S    
C194  C203  S    
C119  O31   S    
C112  O78   A    
C120  O32   S    
C52   C70   A    
C66   C84   A    
O5    Zn10  S    
C39   C50   A    
C54   C72   A    
C126  N5    A    
C72   C89   A    
C176  N6    S    
C69   C86   A    
C57   O55   A    
O16   Zn1   S    
O23   Zn6   S    
