data_mof_unit_40906.cif
_audit_creation_date              2013-03-05T15:40:10-0500
_audit_creation_method            fapswitch 2.2
_symmetry_space_group_name_H-M    P1
_symmetry_Int_Tables_number       1
_space_group_crystal_system       triclinic
_cell_length_a                    7.52527
_cell_length_b                    8.728195
_cell_length_c                    12.938662
_cell_angle_alpha                 87.111292
_cell_angle_beta                  78.935816
_cell_angle_gamma                 102.938708
_cell_volume                      808.983377692

loop_
_atom_site_label
_atom_site_type_symbol
_atom_site_description
_atom_site_fract_x
_atom_site_fract_y
_atom_site_fract_z
_atom_type_partial_charge
O1    O     O_R   0.621060 0.286250 0.492350 -0.548041
O2    O     O_R   0.378940 0.713750 0.507650 -0.547960
O3    O     O_R   0.306310 0.256580 0.512240 -0.539636
O4    O     O_R   0.693690 0.743420 0.487760 -0.539679
C1    C     C_R   0.453537 0.200293 0.504569 0.831508
C2    C     C_R   0.546463 0.799706 0.495431 0.831544
O5    O     O_R   0.631800 0.512400 0.642670 -0.575121
O6    O     O_R   0.368200 0.487600 0.357330 -0.575133
O7    O     O_R   0.317060 0.482730 0.662570 -0.548033
O8    O     O_R   0.682940 0.517270 0.337430 -0.547997
C3    C     C_R   0.465925 0.495677 0.701196 0.821393
C4    C     C_R   0.534075 0.504330 0.298804 0.821430
Cu1   Cu    Cu3+1 0.686350 0.517570 0.488220 1.177217
Cu2   Cu    Cu3+1 0.313650 0.482430 0.511780 1.177245
N1    N     N_2   0.033570 0.455950 0.529530 0.039374
N2    N     N_2   0.966430 0.544050 0.470470 0.039352
C5    C     C_R   0.554519 0.511594 0.184887 -0.124502
C6    C     C_R   0.445476 0.488430 0.815112 -0.124500
C7    C     C_R   0.257702 0.398234 0.990154 0.414911
C8    C     C_R   0.742286 0.601806 0.009846 0.414903
C9    C     C_R   0.275061 0.412422 0.881166 -0.122143
C10   C     C_R   0.724932 0.587607 0.118833 -0.122121
C11   C     C_R   0.598585 0.554304 0.857615 -0.112791
C12   C     C_R   0.401402 0.445737 0.142385 -0.112816
C13   C     C_R   0.586234 0.539676 0.966434 0.006165
C14   C     C_R   0.413752 0.460368 0.033567 0.006172
H1    H     H_    0.273216 0.382606 0.194958 0.241667
H2    H     H_    0.726767 0.617444 0.805043 0.241678
H3    H     H_    0.844116 0.638533 0.151935 0.228894
H4    H     H_    0.155879 0.361490 0.848064 0.228881
C15   C     C_2   0.430234 0.033416 0.521081 0.138314
C16   C     C_2   0.569767 0.966584 0.478920 0.138324
Cl1   Cl    Cl    0.038052 0.301269 0.068304 -0.500595
Cl2   Cl    Cl    0.961935 0.698774 0.931696 -0.500597
N3    N     N_R   0.916994 0.384488 0.623884 0.261255
O9    O     O_R   0.937985 0.448087 0.710795 -0.328550
O10   O     O_R   0.836767 0.235003 0.630498 -0.301453
N4    N     N_R   0.082992 0.615457 0.376096 0.261267
O11   O     O_R   0.061827 0.551925 0.289181 -0.328528
O12   O     O_R   0.163559 0.764873 0.369498 -0.301549
Cl3   Cl    Cl    0.224624 0.932059 0.612915 -0.459863
Cl4   Cl    Cl    0.775377 0.067941 0.387087 -0.459886

loop_
_geom_bond_atom_site_label_1
_geom_bond_atom_site_label_2
_geom_bond_distance
_ccdc_geom_bond_type
C4    C5    1.448908 S    
C2    C16   1.427508 S    
O7    Cu2   1.956234 S    
C3    C6    1.448909 S    
C10   H3    1.083288 S    
C6    C9    1.398692 A    
C9    H4    1.083291 S    
C5    C10   1.398690 A    
C12   H1    1.081295 S    
O6    C4    1.302811 A    
C8    Cl2   1.765408 S    
Cu1   Cu2   2.707465 S    
O5    C3    1.302819 A    
O7    C3    1.296679 A    
O2    C2    1.290397 A    
O3    Cu2   1.959311 S    
O8    C4    1.296687 A    
O1    C1    1.290396 A    
N1    N2    1.301323 D    
N1    N3    1.384259 S    
N4    O12   1.300182 A    
C12   C14   1.390558 A    
C11   C13   1.390558 A    
N4    O11   1.299837 A    
O2    Cu2   1.963533 S    
C1    C15   1.427509 S    
C5    C12   1.392464 A    
O1    Cu1   1.963533 S    
C8    C13   1.409726 A    
C6    C11   1.392460 A    
O5    Cu1   1.957503 S    
N3    O10   1.300119 A    
O4    C2    1.298133 A    
C7    Cl1   1.765407 S    
Cu1   N2    2.034498 S    
N2    N4    1.384283 S    
O4    Cu1   1.959310 S    
C7    C14   1.409726 A    
C16   Cl4   1.778746 S    
Cu2   N1    2.034499 S    
O6    Cu2   1.957502 S    
C15   Cl3   1.778746 S    
C7    C9    1.387579 A    
C13   C14   1.422216 A    
C11   H2    1.081292 S    
C15   C16   1.351628 D    
N3    O9    1.299787 A    
C8    C10   1.387579 A    
O3    C1    1.298133 A    
O8    Cu1   1.956232 S    
