data_mof_unit_41959.cif
_audit_creation_date              2012-12-10T18:10:25-0500
_audit_creation_method            fapswitch 2.2
_symmetry_space_group_name_H-M    P1
_symmetry_Int_Tables_number       1
_space_group_crystal_system       triclinic
_cell_length_a                    10.883845
_cell_length_b                    9.539997
_cell_length_c                    15.832987
_cell_angle_alpha                 89.82575
_cell_angle_beta                  88.901253
_cell_angle_gamma                 88.40373
_cell_volume                      1643.02301033

loop_
_atom_site_label
_atom_site_type_symbol
_atom_type_description
_atom_site_fract_x
_atom_site_fract_y
_atom_site_fract_z
_atom_type_partial_charge
C1    C     C_R   0.260852 0.501676 0.497599 0.849070
C2    C     C_3   0.624495 0.433186 0.947732 0.984505
C3    C     C_3   0.622630 0.413689 0.047881 0.787482
C4    C     C_1   0.497706 0.500230 0.824617 0.191840
C5    C     C_1   0.500293 0.498398 0.175124 0.184735
C6    C     C_1   0.497308 0.499419 0.250800 -0.228294
C7    C     C_3   0.070385 0.650564 0.474315 -0.442102
C8    C     C_3   0.070751 0.453660 0.579245 -0.473337
C9    C     C_3   0.929711 0.654402 0.490425 0.885313
C10   C     C_3   0.933453 0.415393 0.568477 0.923613
C11   C     C_3   0.082827 0.403908 0.423356 -0.431244
C12   C     C_3   0.124393 0.503396 0.493861 -0.182699
C13   C     C_3   0.881508 0.498022 0.488690 -0.215805
C14   C     C_R   0.496548 0.500087 0.340613 0.744832
C15   C     C_3   0.941374 0.425693 0.405353 0.776865
C16   C     C_3   0.598343 0.081108 0.557404 0.239522
C17   C     C_3   0.599801 0.913552 0.556173 0.266930
C18   C     C_3   0.377649 0.087453 0.531999 0.871668
C19   C     C_3   0.379098 0.917009 0.535182 0.852454
C20   C     C_3   0.524743 0.083433 0.414987 0.203415
C21   C     C_3   0.521210 0.915563 0.414674 0.207176
C22   C     C_R   0.740712 0.498723 0.494440 0.845925
C23   C     C_R   0.498733 0.499943 0.659466 0.789637
C24   C     C_3   0.502812 0.650676 0.048798 0.265164
C25   C     C_3   0.385517 0.427600 0.050611 0.325739
C26   C     C_3   0.390117 0.414519 0.952718 0.150723
C27   C     C_3   0.485735 0.652807 0.951315 0.191878
C28   C     C_1   0.497658 0.500055 0.749045 -0.155604
C29   C     C_3   0.504341 0.496807 0.082484 -0.191997
C30   C     C_3   0.500014 0.499527 0.917013 -0.191869
Cu1   Cu    Cu3+1 0.499860 0.642410 0.500040 1.061895
Cu2   Cu    Cu3+1 0.499860 0.357590 0.500040 1.056164
H1    H     H_    0.389253 0.689206 0.938216 0.003730
H2    H     H_    0.304032 0.464952 0.927659 0.039661
H3    H     H_    0.138011 0.421078 0.364414 0.176460
H4    H     H_    0.103825 0.294823 0.444360 0.253871
H5    H     H_    0.689811 0.114074 0.532543 0.165020
H6    H     H_    0.689560 0.878503 0.527742 0.163537
H7    H     H_    0.448425 0.121182 0.374322 0.147967
H8    H     H_    0.442031 0.885169 0.375508 0.144844
H9    H     H_    0.424651 0.711180 0.078730 0.064294
H10   H     H_    0.304452 0.495450 0.068914 0.034720
H11   H     H_    0.093638 0.677001 0.407467 0.214576
H12   H     H_    0.128397 0.367575 0.605609 0.193771
H13   H     H_    0.109746 0.732470 0.513147 0.232542
H14   H     H_    0.076285 0.539179 0.626464 0.201036
N1    N     N_3   0.500250 0.143650 0.501830 -0.284079
N2    N     N_3   0.500250 0.856350 0.501830 -0.277618
O1    O     O_R   0.317570 0.620260 0.500050 -0.531631
O2    O     O_R   0.317570 0.379740 0.500050 -0.501152
O3    O     O_R   0.499890 0.620310 0.379470 -0.562130
O4    O     O_R   0.499890 0.379690 0.379470 -0.564839
O5    O     O_R   0.682190 0.620260 0.500020 -0.526401
O6    O     O_R   0.682190 0.379740 0.500020 -0.535435
O7    O     O_R   0.499870 0.620210 0.620600 -0.503339
O8    O     O_R   0.499870 0.379790 0.620600 -0.524651
O9    O     O_3   0.870436 0.740518 0.428805 -0.549942
C31   C     C_3   0.906745 0.882021 0.433324 -0.183788
H15   H     H_    0.900410 0.924944 0.498365 0.178141
H16   H     H_    0.000874 0.894661 0.406841 0.153114
H17   H     H_    0.844975 0.947694 0.394022 0.223770
O10   O     O_3   0.918933 0.268909 0.554425 -0.575989
C32   C     C_3   0.971895 0.181681 0.617106 -0.366532
H18   H     H_    0.068528 0.153701 0.599505 0.211897
H19   H     H_    0.924170 0.080861 0.618001 0.162047
H20   H     H_    0.965204 0.227928 0.681511 0.197989
O11   O     O_3   0.934580 0.518438 0.334245 -0.620224
C33   C     C_3   0.822729 0.515371 0.291074 -0.144982
H21   H     H_    0.742047 0.516584 0.334149 0.133144
H22   H     H_    0.821924 0.423979 0.248292 0.167107
H23   H     H_    0.815651 0.610230 0.250716 0.198715
O12   O     O_3   0.885995 0.294474 0.388349 -0.542295
C34   C     C_3   0.953109 0.214319 0.326468 -0.304582
H24   H     H_    0.021705 0.143794 0.357098 0.186156
H25   H     H_    0.999389 0.279113 0.277448 0.171326
H26   H     H_    0.890471 0.145619 0.293293 0.160581
O13   O     O_3   0.578037 0.128673 0.641446 -0.561508
C35   C     C_3   0.682787 0.179688 0.680239 -0.169145
H27   H     H_    0.723717 0.264246 0.642507 0.241804
H28   H     H_    0.749516 0.094424 0.694255 0.120618
H29   H     H_    0.653872 0.226135 0.741801 0.227306
O14   O     O_3   0.587088 0.863008 0.640554 -0.526198
C36   C     C_3   0.699345 0.813683 0.674474 -0.090480
H30   H     H_    0.692138 0.819929 0.744303 0.183095
H31   H     H_    0.779216 0.876053 0.654050 0.132737
H32   H     H_    0.715838 0.701980 0.657847 0.245312
O15   O     O_3   0.327957 0.168627 0.601624 -0.541787
C37   C     C_3   0.337393 0.124784 0.686610 -0.234114
H33   H     H_    0.404229 0.039644 0.700292 0.247352
H34   H     H_    0.244957 0.098824 0.711437 0.109462
H35   H     H_    0.366013 0.215755 0.724111 0.198798
O16   O     O_3   0.357713 0.860579 0.617377 -0.561116
C38   C     C_3   0.232894 0.842113 0.639589 -0.215995
H36   H     H_    0.209998 0.731379 0.630119 0.180291
H37   H     H_    0.168448 0.915685 0.606848 0.178442
H38   H     H_    0.220761 0.859584 0.708466 0.127995
O17   O     O_3   0.639950 0.130191 0.382856 -0.526879
C39   C     C_3   0.637243 0.170017 0.296238 -0.123291
H39   H     H_    0.546607 0.167541 0.265145 0.147761
H40   H     H_    0.701422 0.102625 0.258998 0.108491
H41   H     H_    0.671384 0.277215 0.289862 0.179546
O18   O     O_3   0.632116 0.856049 0.379563 -0.519830
C40   C     C_3   0.630039 0.844272 0.290264 -0.139160
H42   H     H_    0.721879 0.870120 0.264179 0.158582
H43   H     H_    0.559025 0.911660 0.259223 0.115865
H44   H     H_    0.616501 0.735097 0.271413 0.178991
F1    F     F_    0.293011 0.120139 0.469724 -0.686217
F2    F     F_    0.288040 0.873720 0.481108 -0.695321
F3    F     F_    0.367647 0.298443 0.088933 -0.593838
F4    F     F_    0.609588 0.716953 0.070525 -0.598107
O19   O     O_3   0.403784 0.271743 0.927886 -0.459318
C41   C     C_3   0.288274 0.214653 0.911859 -0.202671
H45   H     H_    0.245220 0.266237 0.856280 0.108554
H46   H     H_    0.225493 0.223597 0.967957 0.189451
H47   H     H_    0.301906 0.101686 0.897047 0.145701
O20   O     O_3   0.572615 0.741010 0.911218 -0.464910
C42   C     C_3   0.524614 0.879508 0.904341 -0.106254
H48   H     H_    0.491648 0.921113 0.966601 0.184056
H49   H     H_    0.449407 0.884848 0.857765 0.116740
H50   H     H_    0.598698 0.947991 0.880933 0.195987
O21   O     O_3   0.724803 0.470037 0.091821 -0.591492
C43   C     C_3   0.843132 0.453122 0.053628 -0.223959
H51   H     H_    0.873326 0.556129 0.029412 0.242654
H52   H     H_    0.850196 0.375142 0.001992 0.171172
H53   H     H_    0.909176 0.419288 0.102637 0.131281
O22   O     O_3   0.603003 0.270135 0.070225 -0.522306
C44   C     C_3   0.709638 0.183708 0.076472 -0.219343
H54   H     H_    0.769973 0.218828 0.127501 0.129255
H55   H     H_    0.759333 0.172646 0.015048 0.189978
H56   H     H_    0.680603 0.076917 0.094341 0.192943
F5    F     F_    0.716820 0.520197 0.919847 -0.632351
F6    F     F_    0.645613 0.304592 0.908670 -0.672710
F7    F     F_    0.906194 0.708782 0.570390 -0.732276
F8    F     F_    0.867909 0.456394 0.640909 -0.693649

loop_
_geom_bond_atom_site_label_1
_geom_bond_atom_site_label_2
_ccdc_geom_bond_type
O15   C37   S    
C32   H19   S    
C38   H36   S    
C34   H24   S    
O19   C41   S    
C17   N2    S    
C18   N1    S    
C41   H46   S    
O17   C39   S    
C3    O22   S    
C23   O8    A    
C22   O6    A    
O13   C35   S    
C27   H1    S    
C15   O12   S    
O22   C44   S    
C7    H13   S    
C11   H4    S    
C18   C19   S    
C37   H33   S    
C42   H49   S    
C5    C6    T    
C35   H28   S    
C31   H16   S    
O20   C42   S    
C17   O14   S    
C3    C29   S    
C9    C13   S    
C24   C29   S    
Cu2   O4    S    
C19   O16   S    
C18   F1    S    
C11   C15   S    
C26   H2    S    
C14   O4    A    
C20   O17   S    
C36   H30   S    
C33   H21   S    
C2    F6    S    
C24   C27   S    
C7    H11   S    
C1    O2    A    
C25   F3    S    
C16   H5    S    
C21   N2    S    
C27   O20   S    
C31   H17   S    
C32   H20   S    
C38   H37   S    
C27   C30   S    
C24   H9    S    
C34   H25   S    
C10   O10   S    
C1    C12   S    
Cu1   O1    S    
C16   N1    S    
Cu2   O6    S    
C41   H45   S    
C4    C28   T    
C22   O5    A    
C5    C29   S    
C25   C29   S    
C7    C12   S    
O11   C33   S    
C8    H12   S    
C24   F4    S    
C42   H50   S    
C20   H7    S    
C35   H27   S    
C16   C17   S    
C31   H15   S    
C44   H55   S    
O10   C32   S    
C6    C14   S    
C14   O3    A    
C37   H35   S    
C8    C12   S    
C15   O11   S    
C2    F5    S    
C40   H43   S    
C23   C28   S    
Cu1   O5    S    
Cu2   O2    S    
O21   C43   S    
C21   O18   S    
C8    C10   S    
C36   H31   S    
C37   H34   S    
C39   H39   S    
C38   H38   S    
C39   H40   S    
Cu1   N2    S    
C13   C15   S    
C34   H26   S    
C43   H52   S    
C44   H54   S    
C7    C9    S    
C19   N2    S    
Cu1   Cu2   S    
C10   F8    S    
Cu1   O3    S    
O12   C34   S    
C10   C13   S    
C25   H10   S    
C11   C12   S    
C23   O7    A    
C39   H41   S    
C18   O15   S    
C2    C30   S    
C43   H53   S    
C11   H3    S    
C2    C3    S    
C25   C26   S    
C44   H56   S    
C42   H48   S    
C19   F2    S    
C35   H29   S    
O9    C31   S    
C21   H8    S    
C33   H23   S    
O16   C38   S    
Cu2   N1    S    
C13   C22   S    
C40   H44   S    
C9    O9    S    
C17   H6    S    
O18   C40   S    
C8    H14   S    
C20   N1    S    
C32   H18   S    
C36   H32   S    
C20   C21   S    
C33   H22   S    
O14   C36   S    
C40   H42   S    
C16   O13   S    
Cu1   O7    S    
C43   H51   S    
C1    O1    A    
C26   O19   S    
Cu2   O8    S    
C41   H47   S    
C4    C30   S    
C3    O21   S    
C26   C30   S    
C9    F7    S    
