data_mof_unit_61649.cif
_audit_creation_date              2012-12-10T18:01:18-0500
_audit_creation_method            fapswitch 2.2
_symmetry_space_group_name_H-M    P1
_symmetry_Int_Tables_number       1
_space_group_crystal_system       triclinic
_cell_length_a                    18.282041
_cell_length_b                    18.294542
_cell_length_c                    25.862924
_cell_angle_alpha                 90.004463
_cell_angle_beta                  89.994433
_cell_angle_gamma                 90.004409
_cell_volume                      8650.1539935

loop_
_atom_site_label
_atom_site_type_symbol
_atom_type_description
_atom_site_fract_x
_atom_site_fract_y
_atom_site_fract_z
_atom_type_partial_charge
C1    C     C_R   0.859867 0.140155 0.749979 0.850829
C2    C     C_R   0.196266 0.196498 0.250044 -0.106797
C3    C     C_R   0.273969 0.721358 0.202717 0.147933
C4    C     C_R   0.196312 0.196449 0.749962 -0.109627
C5    C     C_R   0.803658 0.196424 0.749988 -0.107579
C6    C     C_R   0.303630 0.696403 0.750058 -0.114783
C7    C     C_R   0.696263 0.696495 0.750033 -0.106218
C8    C     C_R   0.696312 0.696456 0.249972 -0.109656
C9    C     C_R   0.303657 0.696412 0.249973 -0.107298
C10   C     C_R   0.823570 0.270911 0.247090 0.142780
C11   C     C_R   0.220353 0.227076 0.202812 0.149008
C12   C     C_R   0.221079 0.226328 0.797220 0.145714
C13   C     C_R   0.140127 0.140158 0.749972 0.849153
C14   C     C_R   0.778963 0.226379 0.797243 0.146083
C15   C     C_R   0.323566 0.770919 0.746852 0.142877
C16   C     C_R   0.720912 0.726486 0.702777 0.148590
C17   C     C_R   0.721104 0.726305 0.297236 0.145709
C18   C     C_R   0.278763 0.726165 0.297234 0.145945
C19   C     C_R   0.269349 0.824051 0.745887 -0.195008
C20   C     C_R   0.773736 0.781011 0.703299 -0.193639
C21   C     C_R   0.773888 0.780872 0.296713 -0.189367
C22   C     C_R   0.225960 0.780710 0.296719 -0.195245
C23   C     C_R   0.769359 0.324053 0.246139 -0.194598
C24   C     C_R   0.140108 0.140177 0.250037 0.855160
C25   C     C_R   0.273157 0.281604 0.203355 -0.194076
C26   C     C_R   0.273849 0.280906 0.796690 -0.189491
C27   C     C_R   0.726163 0.280926 0.796721 -0.195171
C28   C     C_R   0.195932 0.804112 0.749971 -0.063998
C29   C     C_R   0.804009 0.804162 0.750009 -0.061551
C30   C     C_R   0.803989 0.804189 0.249985 -0.058505
C31   C     C_R   0.195966 0.804129 0.249989 -0.060831
C32   C     C_R   0.695928 0.304104 0.249964 -0.063795
C33   C     C_R   0.304002 0.304174 0.250026 -0.061857
C34   C     C_R   0.303973 0.304198 0.749966 -0.058397
C35   C     C_R   0.859862 0.140149 0.250032 0.845360
C36   C     C_R   0.695945 0.304119 0.750008 -0.061208
C37   C     C_R   0.997311 0.933603 0.973339 -0.174987
C38   C     C_R   0.997344 0.933599 0.026647 -0.174568
C39   C     C_R   0.497308 0.433603 0.473339 -0.174956
C40   C     C_R   0.497341 0.433599 0.526647 -0.174547
C41   C     C_R   0.000259 0.000038 0.053389 -0.001888
C42   C     C_R   0.000188 0.000046 0.946603 -0.002008
C43   C     C_R   0.500262 0.500037 0.553389 -0.001837
C44   C     C_R   0.500190 0.500046 0.446603 -0.001973
C45   C     C_R   0.003300 0.066494 0.026656 -0.156334
C46   C     C_R   0.359870 0.640153 0.249975 0.851218
C47   C     C_R   0.003236 0.066501 0.973337 -0.144309
C48   C     C_R   0.503311 0.566493 0.526656 -0.156304
C49   C     C_R   0.503247 0.566499 0.473337 -0.144294
C50   C     C_R   0.139986 0.860023 0.749968 0.811658
C51   C     C_R   0.860005 0.860031 0.749980 0.811120
C52   C     C_R   0.859989 0.860048 0.250009 0.818716
C53   C     C_R   0.139996 0.860028 0.250016 0.811655
C54   C     C_R   0.639985 0.360021 0.249967 0.811407
C55   C     C_R   0.359999 0.360039 0.249989 0.811586
C56   C     C_R   0.359979 0.360055 0.749999 0.818770
C57   C     C_R   0.640128 0.640159 0.249974 0.848951
C58   C     C_R   0.639986 0.360021 0.750025 0.811823
C59   C     C_R   0.000038 0.000012 0.890938 0.815526
C60   C     C_R   0.000084 0.000007 0.109059 0.807649
C61   C     C_R   0.500038 0.500012 0.390938 0.815611
C62   C     C_R   0.500085 0.500007 0.609059 0.807768
C63   C     C_R   0.000101 0.000177 0.608602 0.764046
C64   C     C_R   0.000100 0.000168 0.391401 0.755694
C65   C     C_R   0.499910 0.500176 0.108602 0.764402
C66   C     C_R   0.499908 0.500157 0.891401 0.755557
C67   C     C_3   0.961517 0.931055 0.529909 -0.388728
C68   C     C_R   0.640106 0.640176 0.750036 0.855307
C69   C     C_3   0.080042 0.001119 0.529707 -0.365024
C70   C     C_3   0.080047 0.001016 0.470288 -0.364207
C71   C     C_3   0.961441 0.931099 0.470103 -0.386410
C72   C     C_3   0.419997 0.501273 0.029722 -0.364000
C73   C     C_3   0.538371 0.430949 0.029906 -0.388273
C74   C     C_3   0.538365 0.430934 0.970095 -0.387021
C75   C     C_3   0.420000 0.501256 0.970309 -0.370362
C76   C     C_3   0.960227 0.068841 0.529929 -0.366326
C77   C     C_3   0.960354 0.068916 0.470099 -0.383053
C78   C     C_3   0.539982 0.568756 0.029922 -0.367827
C79   C     C_R   0.359864 0.640154 0.750035 0.845399
C80   C     C_3   0.540012 0.568731 0.970094 -0.370729
C81   C     C_3   0.000460 0.000309 0.550859 0.153163
C82   C     C_3   0.000464 0.000307 0.449150 0.160877
C83   C     C_3   0.499581 0.500300 0.050860 0.152079
C84   C     C_3   0.499584 0.500284 0.949152 0.157033
C85   C     C_R   0.175921 0.730769 0.754115 -0.199305
C86   C     C_R   0.780740 0.774036 0.796740 -0.189870
C87   C     C_R   0.780598 0.774187 0.203242 -0.185920
C88   C     C_R   0.219413 0.774168 0.203246 -0.189990
C89   C     C_R   0.675905 0.230746 0.253847 -0.199164
C90   C     C_R   0.803626 0.196394 0.250049 -0.114502
C91   C     C_R   0.281319 0.273459 0.296720 -0.190288
C92   C     C_R   0.280622 0.274148 0.703229 -0.186165
C93   C     C_R   0.719196 0.273966 0.703284 -0.189866
C94   C     C_R   0.729037 0.176533 0.252999 0.143398
C95   C     C_R   0.226702 0.220723 0.297275 0.150863
C96   C     C_R   0.226065 0.221336 0.702699 0.147904
C97   C     C_R   0.773788 0.221205 0.702745 0.148314
C98   C     C_R   0.229043 0.676551 0.753259 0.143395
C99   C     C_R   0.726116 0.721300 0.797279 0.150915
C100  C     C_R   0.726029 0.721394 0.202711 0.148213
H1    H     H_    0.904123 0.929008 0.544188 0.194058
H2    H     H_    0.110468 0.952373 0.543902 0.187918
H3    H     H_    0.110361 0.952155 0.456160 0.186576
H4    H     H_    0.989526 0.881140 0.455650 0.162862
H5    H     H_    0.389481 0.452546 0.043886 0.188025
H6    H     H_    0.510073 0.381081 0.044325 0.163710
H7    H     H_    0.510052 0.381066 0.955688 0.163482
H8    H     H_    0.389494 0.452514 0.956157 0.188899
H9    H     H_    0.284595 0.881199 0.743492 0.179361
H10   H     H_    0.792769 0.803929 0.667078 0.173145
H11   H     H_    0.793036 0.803681 0.332940 0.172754
H12   H     H_    0.109410 0.050551 0.543847 0.209780
H13   H     H_    0.206727 0.803433 0.332948 0.172670
H14   H     H_    0.784608 0.381205 0.243945 0.179206
H15   H     H_    0.291736 0.304975 0.167152 0.173425
H16   H     H_    0.292976 0.303734 0.832911 0.172583
H17   H     H_    0.707110 0.303830 0.832941 0.173113
H18   H     H_    0.994891 0.881740 0.953195 0.175567
H19   H     H_    0.994938 0.881735 0.046786 0.175178
H20   H     H_    0.494881 0.381741 0.453195 0.175550
H21   H     H_    0.494930 0.381736 0.546786 0.175164
H22   H     H_    0.005782 0.118350 0.046811 0.187880
H23   H     H_    0.109536 0.050334 0.456074 0.209730
H24   H     H_    0.005648 0.118359 0.953184 0.192367
H25   H     H_    0.505799 0.618348 0.546811 0.187746
H26   H     H_    0.505664 0.618358 0.453184 0.192291
H27   H     H_    0.902752 0.069654 0.544088 0.209004
H28   H     H_    0.987367 0.119294 0.544433 0.185711
H29   H     H_    0.987777 0.119299 0.455741 0.180455
H30   H     H_    0.902948 0.070016 0.455808 0.195759
H31   H     H_    0.512874 0.619276 0.044353 0.185127
H32   H     H_    0.597432 0.569526 0.044143 0.211504
H33   H     H_    0.597477 0.569447 0.955894 0.212208
H34   H     H_    0.904006 0.929193 0.455903 0.193353
H35   H     H_    0.512966 0.619263 0.955645 0.178713
H36   H     H_    0.118717 0.715578 0.756508 0.177551
H37   H     H_    0.803609 0.793141 0.832956 0.177119
H38   H     H_    0.803354 0.793408 0.167019 0.176846
H39   H     H_    0.196701 0.793420 0.167023 0.177003
H40   H     H_    0.618696 0.215552 0.256037 0.177304
H41   H     H_    0.304645 0.292101 0.332919 0.177476
H42   H     H_    0.303409 0.293335 0.667008 0.176765
H43   H     H_    0.696334 0.293066 0.667071 0.177278
H44   H     H_    0.390708 0.550737 0.043902 0.206921
H45   H     H_    0.595789 0.428831 0.044138 0.194601
H46   H     H_    0.595778 0.428793 0.955845 0.193299
H47   H     H_    0.390704 0.550709 0.956128 0.193122
H48   H     H_    0.989742 0.881135 0.544282 0.163654
I1    I     I_    0.690505 0.066656 0.252451 -0.298503
I2    I     I_    0.184790 0.191425 0.128517 -0.307339
I3    I     I_    0.186563 0.189385 0.871427 -0.310999
I4    I     I_    0.813676 0.189652 0.871444 -0.320519
I5    I     I_    0.433581 0.809369 0.747345 -0.283434
I6    I     I_    0.686089 0.689886 0.628564 -0.307242
I7    I     I_    0.686566 0.689364 0.371436 -0.310243
I8    I     I_    0.313168 0.689061 0.371405 -0.321696
I9    I     I_    0.190393 0.185632 0.371514 -0.328499
I10   I     I_    0.188801 0.186978 0.628528 -0.330578
I11   I     I_    0.810977 0.186877 0.628577 -0.343927
I12   I     I_    0.190432 0.566687 0.753068 -0.298752
I13   I     I_    0.688818 0.687076 0.871440 -0.330189
I14   I     I_    0.688657 0.687211 0.128546 -0.331646
I15   I     I_    0.311290 0.687043 0.128572 -0.343621
I16   I     I_    0.933575 0.309272 0.247890 -0.283560
O1    O     O_3   0.000000 0.000000 0.749970 -0.503387
O2    O     O_R   0.646190 0.585480 0.219360 -0.617288
O3    O     O_R   0.646190 0.585480 0.780640 -0.616865
O4    O     O_R   0.353810 0.585480 0.780640 -0.615696
O5    O     O_R   0.146170 0.914530 0.719320 -0.638046
O6    O     O_R   0.853830 0.914530 0.719320 -0.634751
O7    O     O_R   0.853830 0.914530 0.280680 -0.625293
O8    O     O_R   0.146170 0.914530 0.280680 -0.636095
O9    O     O_R   0.646170 0.414530 0.219320 -0.637697
O10   O     O_R   0.353830 0.414530 0.219320 -0.635204
O11   O     O_R   0.353830 0.414530 0.780680 -0.625421
O12   O     O_3   0.000000 0.000000 0.250030 -0.503117
O13   O     O_R   0.646170 0.414530 0.780680 -0.635983
O14   O     O_R   0.085450 0.146180 0.780600 -0.610919
O15   O     O_R   0.914550 0.146180 0.780600 -0.611619
O16   O     O_R   0.914550 0.146180 0.219400 -0.614021
O17   O     O_R   0.085450 0.146180 0.219400 -0.602687
O18   O     O_R   0.585450 0.646180 0.280600 -0.611011
O19   O     O_R   0.414550 0.646180 0.280600 -0.611585
O20   O     O_R   0.414550 0.646180 0.719400 -0.614101
O21   O     O_R   0.585450 0.646180 0.719400 -0.602741
O22   O     O_R   0.914560 0.853830 0.780620 -0.641150
O23   O     O_3   0.500000 0.500000 0.249970 -0.503377
O24   O     O_R   0.085440 0.853830 0.780620 -0.637711
O25   O     O_R   0.085440 0.853830 0.219380 -0.638167
O26   O     O_R   0.914560 0.853830 0.219380 -0.641173
O27   O     O_R   0.414560 0.353830 0.280620 -0.641303
O28   O     O_R   0.585440 0.353830 0.280620 -0.637668
O29   O     O_R   0.585440 0.353830 0.719380 -0.638256
O30   O     O_R   0.414560 0.353830 0.719380 -0.641177
O31   O     O_R   0.000000 0.060730 0.866830 -0.624047
O32   O     O_R   0.000000 0.060730 0.133170 -0.633310
O33   O     O_R   0.500000 0.560730 0.366830 -0.624064
O34   O     O_3   0.500000 0.500000 0.750030 -0.503097
O35   O     O_R   0.500000 0.560730 0.633170 -0.633368
O36   O     O_R   0.939250 0.000010 0.633130 -0.634113
O37   O     O_R   0.060750 0.000010 0.633130 -0.635353
O38   O     O_R   0.060750 0.000010 0.366870 -0.635821
O39   O     O_R   0.939250 0.000010 0.366870 -0.644013
O40   O     O_R   0.439250 0.500010 0.133130 -0.637238
O41   O     O_R   0.560750 0.500010 0.133130 -0.632254
O42   O     O_R   0.560750 0.500010 0.866870 -0.632544
O43   O     O_R   0.439250 0.500010 0.866870 -0.646980
O44   O     O_R   0.000000 0.939270 0.866820 -0.651415
O45   O     O_R   0.853810 0.085480 0.719360 -0.613677
O46   O     O_R   0.000000 0.939270 0.133180 -0.651547
O47   O     O_R   0.500000 0.439270 0.366820 -0.651421
O48   O     O_R   0.500000 0.439270 0.633180 -0.651538
O49   O     O_R   0.146190 0.085480 0.719360 -0.617395
O50   O     O_R   0.146190 0.085480 0.280640 -0.616892
O51   O     O_R   0.853810 0.085480 0.280640 -0.615633
O52   O     O_R   0.353810 0.585480 0.219360 -0.613779
Zn1   Zn    Zn3+2 0.086750 0.999990 0.706190 1.002987
Zn2   Zn    Zn3+2 1.000000 0.086770 0.206250 1.035960
Zn3   Zn    Zn3+2 0.500000 0.586770 0.293750 1.038976
Zn4   Zn    Zn3+2 0.500000 0.586770 0.706250 1.035891
Zn5   Zn    Zn3+2 0.000000 0.913230 0.793740 0.985355
Zn6   Zn    Zn3+2 0.000000 0.913230 0.206260 0.985520
Zn7   Zn    Zn3+2 0.500000 0.413230 0.293740 0.985360
Zn8   Zn    Zn3+2 0.500000 0.413230 0.706260 0.985562
Zn9   Zn    Zn3+2 0.913250 0.999990 0.706190 1.006916
Zn10  Zn    Zn3+2 0.913250 0.999990 0.293810 1.004825
Zn11  Zn    Zn3+2 0.086750 0.999990 0.293810 1.003745
Zn12  Zn    Zn3+2 0.586750 0.499990 0.206190 1.004265
Zn13  Zn    Zn3+2 0.413250 0.499990 0.206190 1.005651
Zn14  Zn    Zn3+2 0.413250 0.499990 0.793810 1.003583
Zn15  Zn    Zn3+2 0.586750 0.499990 0.793810 1.004950
Zn16  Zn    Zn3+2 1.000000 0.086770 0.793750 1.038971

loop_
_geom_bond_atom_site_label_1
_geom_bond_atom_site_label_2
_ccdc_geom_bond_type
C44   C49   A    
C33   C55   S    
O5    Zn1   S    
C71   H4    S    
C91   H41   S    
C34   C56   S    
O46   Zn6   S    
O21   Zn4   S    
C93   C97   A    
C73   C74   S    
O16   Zn2   S    
C3    C88   A    
C92   C96   A    
C80   C84   S    
C50   O24   A    
C22   H13   S    
C71   H34   S    
C47   H24   S    
O1    Zn5   S    
C88   H39   S    
O23   Zn3   S    
C69   H2    S    
C79   O20   A    
C94   I1    S    
C15   C19   A    
C40   H21   S    
C65   O40   A    
C60   O32   A    
C4    C13   S    
C80   H35   S    
O12   Zn6   S    
C63   C81   S    
C1    C5    S    
C97   I11   S    
C54   O9    A    
O40   Zn13  S    
C2    C95   A    
O42   Zn15  S    
C62   O35   A    
O25   Zn6   S    
C36   C58   S    
C33   C91   A    
O48   Zn8   S    
C66   O42   A    
C69   H12   S    
C78   C80   S    
C75   C84   S    
C65   C83   S    
C65   O41   A    
C11   C25   A    
C39   H20   S    
C89   C94   A    
C63   O36   A    
O41   Zn12  S    
C61   O47   A    
C13   O49   A    
C37   C42   A    
C78   H32   S    
C10   C23   A    
C64   O38   A    
C85   C98   A    
C53   O8    A    
C74   H7    S    
C99   I13   S    
C24   O50   A    
C36   C93   A    
C26   C34   A    
C40   C43   A    
C37   H18   S    
O1    Zn16  S    
C10   I16   S    
C59   O44   A    
C79   O4    A    
C4    C12   A    
C92   H42   S    
C43   C48   A    
O50   Zn11  S    
O18   Zn3   S    
C93   H43   S    
O1    Zn1   S    
O36   Zn9   S    
C71   C82   S    
O24   Zn5   S    
C45   C47   A    
C7    C68   S    
C9    C46   S    
O11   Zn14  S    
C4    C96   A    
C12   I3    S    
O45   Zn9   S    
C72   C75   S    
C2    C11   A    
C78   C83   S    
C52   O7    A    
C32   C54   S    
C57   O18   A    
C21   H11   S    
C74   H46   S    
C90   C94   A    
C26   H16   S    
C20   C29   A    
O29   Zn8   S    
C6    C15   A    
C22   C31   A    
C56   O11   A    
C1    O45   A    
C6    C98   A    
C76   C77   S    
O28   Zn7   S    
C38   C41   A    
C35   O51   A    
C61   O33   A    
C39   C40   A    
C73   H6    S    
C28   C50   S    
O34   Zn15  S    
C52   O26   A    
C57   O2    A    
O26   Zn6   S    
C59   O31   A    
O44   Zn5   S    
C66   C84   S    
C14   C27   A    
C17   C21   A    
C80   H33   S    
C12   C26   A    
C55   O27   A    
C46   O19   A    
C76   C81   S    
O34   Zn8   S    
C78   H31   S    
C68   O3    A    
C55   O10   A    
O14   Zn16  S    
C37   C38   A    
C49   H26   S    
C8    C57   S    
O49   Zn1   S    
C11   I2    S    
C32   C89   A    
O7    Zn10  S    
C16   C20   A    
C89   H40   S    
O47   Zn7   S    
C25   C33   A    
O1    Zn9   S    
O52   Zn13  S    
C29   C86   A    
C77   H29   S    
C48   H25   S    
C86   C99   A    
C64   C82   S    
C5    C14   A    
C39   C44   A    
C7    C99   A    
C56   O30   A    
C38   H19   S    
C66   O43   A    
C7    C16   A    
C3    C9    A    
O22   Zn5   S    
C98   I12   S    
C68   O21   A    
C67   C81   S    
C46   O52   A    
C19   C28   A    
C44   C61   S    
C20   H10   S    
C31   C53   S    
C96   I10   S    
C54   O28   A    
C87   H38   S    
C14   I4    S    
C17   I7    S    
O27   Zn7   S    
C28   C85   A    
C18   I8    S    
C67   H1    S    
O30   Zn8   S    
C87   C100  A    
C29   C51   S    
C27   H17   S    
C75   H8    S    
C35   O16   A    
C72   H44   S    
O12   Zn11  S    
C30   C52   S    
C48   C49   A    
O19   Zn3   S    
C31   C88   A    
C63   O37   A    
C24   O17   A    
C18   C22   A    
C64   O39   A    
C51   O6    A    
O34   Zn4   S    
O35   Zn4   S    
C41   C60   S    
C74   C84   S    
O17   Zn2   S    
O9    Zn12  S    
C42   C59   S    
O13   Zn15  S    
O32   Zn2   S    
O34   Zn14  S    
O43   Zn14  S    
O3    Zn15  S    
O38   Zn11  S    
C3    I15   S    
C45   H22   S    
C86   H37   S    
O12   Zn10  S    
C21   C30   A    
C58   O29   A    
C8    C17   A    
O2    Zn12  S    
C27   C36   A    
C75   H47   S    
C23   C32   A    
O51   Zn10  S    
C25   H15   S    
C8    C100  A    
O37   Zn1   S    
C51   O22   A    
C41   C45   A    
C23   H14   S    
C16   I6    S    
O23   Zn12  S    
C1    O15   A    
C6    C79   S    
C19   H9    S    
O23   Zn7   S    
C77   C82   S    
C76   H28   S    
O8    Zn11  S    
O4    Zn14  S    
C60   O46   A    
O31   Zn16  S    
C5    C97   A    
C58   O13   A    
C67   C71   S    
C77   H30   S    
C69   C70   S    
C70   C82   S    
O10   Zn13  S    
C34   C92   A    
C15   I5    S    
C72   C83   S    
C69   C81   S    
C50   O5    A    
C70   H23   S    
C85   H36   S    
C91   C95   A    
O23   Zn13  S    
C35   C90   S    
C9    C18   A    
O20   Zn4   S    
C42   C47   A    
C72   H5    S    
C10   C90   A    
C95   I9    S    
O6    Zn9   S    
C73   H45   S    
C67   H48   S    
C76   H27   S    
C62   O48   A    
O12   Zn2   S    
C2    C24   S    
C100  I14   S    
C30   C87   A    
O33   Zn3   S    
C53   O25   A    
C73   C83   S    
O39   Zn10  S    
C13   O14   A    
C43   C62   S    
O15   Zn16  S    
C70   H3    S    
