data_mof_unit_42753.cif
_audit_creation_date              2012-12-10T19:21:58-0500
_audit_creation_method            fapswitch 2.2
_symmetry_space_group_name_H-M    P1
_symmetry_Int_Tables_number       1
_space_group_crystal_system       triclinic
_cell_length_a                    8.716843
_cell_length_b                    17.715745
_cell_length_c                    16.4648
_cell_angle_alpha                 89.950097
_cell_angle_beta                  98.105395
_cell_angle_gamma                 90.138059
_cell_volume                      2517.17570504

loop_
_atom_site_label
_atom_site_type_symbol
_atom_type_description
_atom_site_fract_x
_atom_site_fract_y
_atom_site_fract_z
_atom_type_partial_charge
C1    C     C_R   0.502334 0.355249 0.500279 0.823578
C2    C     C_R   0.502800 0.644496 0.500104 0.805111
C3    C     C_1   0.494034 0.965569 0.497408 -0.004960
C4    C     C_1   0.496383 0.033212 0.497336 0.000364
C5    C     C_R   0.621463 0.534277 0.837460 0.145467
C6    C     C_R   0.391831 0.457372 0.162800 0.129269
C7    C     C_R   0.615183 0.535821 0.751271 -0.024634
C8    C     C_R   0.391983 0.459405 0.248797 -0.019855
C9    C     C_R   0.386175 0.462732 0.734202 0.039008
C10   C     C_R   0.609982 0.540129 0.265772 -0.003612
C11   C     C_R   0.383290 0.460582 0.820510 0.139422
C12   C     C_R   0.616951 0.539294 0.180434 0.126082
C13   C     C_R   0.503756 0.497194 0.873190 0.012177
C14   C     C_R   0.505728 0.497936 0.127418 0.059297
C15   C     C_1   0.505528 0.498193 0.963163 0.008348
C16   C     C_1   0.506103 0.498452 0.037666 0.054704
C17   C     C_R   0.203270 0.500025 0.479070 0.889633
C18   C     C_R   0.796720 0.499964 0.520936 0.870587
C19   C     C_2   0.037532 0.500208 0.467406 -0.373149
C20   C     C_2   0.962431 0.499745 0.532622 -0.382074
C21   C     C_R   0.401508 0.844333 0.545887 0.292642
C22   C     C_R   0.450749 0.154623 0.424848 0.292217
C23   C     C_R   0.410470 0.765632 0.547774 -0.309424
C24   C     C_R   0.452394 0.233531 0.427383 -0.328385
C25   C     C_R   0.505894 0.727170 0.499945 -0.136447
C26   C     C_R   0.506092 0.272153 0.500412 -0.101277
C27   C     C_R   0.598886 0.767669 0.450879 0.270627
C28   C     C_R   0.560843 0.230621 0.572140 0.253708
C29   C     C_R   0.590379 0.847026 0.450211 -0.244689
C30   C     C_R   0.555427 0.151689 0.569747 -0.290494
C31   C     C_R   0.493282 0.884805 0.497298 0.048494
C32   C     C_R   0.500849 0.113930 0.496938 0.069631
Cu1   Cu    Cu3+1 0.499990 0.499980 0.580420 0.938423
Cu2   Cu    Cu3+1 0.500010 0.500020 0.419580 0.936760
N1    N     N_R   0.499960 0.499970 0.701210 -0.199546
N2    N     N_R   0.500040 0.500030 0.298790 -0.190105
O1    O     O_R   0.499990 0.391240 0.567930 -0.546099
O2    O     O_R   0.500010 0.608760 0.432070 -0.562638
O3    O     O_R   0.500000 0.391270 0.432120 -0.590140
O4    O     O_R   0.500000 0.608730 0.567880 -0.581995
O5    O     O_R   0.274830 0.499990 0.552240 -0.587769
O6    O     O_R   0.725170 0.500010 0.447760 -0.584148
O7    O     O_R   0.274840 0.500020 0.416420 -0.592727
O8    O     O_R   0.725160 0.499980 0.583580 -0.593390
H1    H     H_    0.977147 0.500790 0.404922 0.168396
H2    H     H_    0.022783 0.499144 0.595111 0.168061
N3    N     N_2   0.301273 0.882365 0.593457 -0.428269
H3    H     H_    0.285993 0.854300 0.646683 0.247965
C33   C     C_3   0.155187 0.905395 0.547331 -0.688743
H4    H     H_    0.087047 0.855039 0.523370 0.219131
H5    H     H_    0.174491 0.942549 0.495339 0.241526
H6    H     H_    0.087293 0.937425 0.587931 0.227254
N4    N     N_2   0.395089 0.116659 0.350259 -0.429428
H7    H     H_    0.311261 0.146280 0.312745 0.244673
C34   C     C_3   0.515833 0.089480 0.305891 -0.696103
H8    H     H_    0.583221 0.137733 0.285889 0.221738
H9    H     H_    0.462841 0.057814 0.250780 0.226664
H10   H     H_    0.595230 0.050807 0.344689 0.234193
H11   H     H_    0.338910 0.734190 0.584781 0.159795
H12   H     H_    0.410828 0.264699 0.371988 0.161001
N5    N     N_2   0.701931 0.727663 0.405529 -0.415812
H13   H     H_    0.759039 0.682736 0.436026 0.243077
C35   C     C_3   0.792863 0.768065 0.352476 -0.712532
H14   H     H_    0.856205 0.726978 0.318678 0.221749
H15   H     H_    0.878961 0.805157 0.389401 0.222181
H16   H     H_    0.716101 0.801703 0.306525 0.238259
N6    N     N_2   0.622103 0.267434 0.646607 -0.408747
H17   H     H_    0.603801 0.238341 0.698718 0.242382
C36   C     C_3   0.781482 0.291852 0.650156 -0.655138
H18   H     H_    0.816194 0.324298 0.707502 0.222691
H19   H     H_    0.795647 0.329043 0.597362 0.226813
H20   H     H_    0.858961 0.242155 0.649762 0.210566
H21   H     H_    0.660825 0.880379 0.414506 0.151993
H22   H     H_    0.595772 0.119658 0.624748 0.148521
N7    N     N_2   0.746786 0.570075 0.887684 -0.416017
H23   H     H_    0.783852 0.618965 0.862351 0.245196
C37   C     C_3   0.874477 0.519948 0.914960 -0.650425
H24   H     H_    0.927709 0.499479 0.861589 0.230557
H25   H     H_    0.834196 0.470851 0.948337 0.228090
H26   H     H_    0.963997 0.550694 0.957057 0.233191
N8    N     N_2   0.275469 0.415497 0.112549 -0.431232
H27   H     H_    0.171054 0.413368 0.135222 0.245622
C38   C     C_3   0.324852 0.341566 0.089665 -0.718657
H28   H     H_    0.352274 0.305463 0.145052 0.222688
H29   H     H_    0.428551 0.345934 0.057714 0.232783
H30   H     H_    0.230352 0.314460 0.047264 0.226794
H31   H     H_    0.705028 0.564915 0.724392 0.137539
H32   H     H_    0.305574 0.427705 0.275718 0.130153
H33   H     H_    0.298046 0.434283 0.692596 0.146076
H34   H     H_    0.694943 0.572256 0.305971 0.143555
N9    N     N_2   0.260607 0.423626 0.854948 -0.422759
H35   H     H_    0.289921 0.401362 0.912890 0.273319
C39   C     C_3   0.144195 0.380607 0.802888 -0.749105
H36   H     H_    0.058976 0.357132 0.840403 0.229822
H37   H     H_    0.198933 0.333020 0.773833 0.230848
H38   H     H_    0.079935 0.417661 0.755381 0.228357
N10   N     N_2   0.735925 0.580199 0.148719 -0.410737
H39   H     H_    0.765833 0.629815 0.179814 0.248738
C40   C     C_3   0.870680 0.535207 0.139588 -0.680068
H40   H     H_    0.954568 0.569783 0.110661 0.233507
H41   H     H_    0.837452 0.485467 0.099920 0.233410
H42   H     H_    0.927963 0.515674 0.200585 0.206906

loop_
_geom_bond_atom_site_label_1
_geom_bond_atom_site_label_2
_ccdc_geom_bond_type
C34   H8    S    
C35   H15   S    
C11   N9    S    
C39   H36   S    
C27   C29   A    
C19   C20   D    
Cu2   O6    S    
N8    H27   S    
N3    C33   S    
C37   H24   S    
C23   H11   S    
C21   C31   A    
C22   C32   A    
C38   H28   S    
C22   C24   A    
C24   C26   A    
C18   O6    A    
C30   H22   S    
N9    C39   S    
C15   C16   T    
N5    C35   S    
C8    N2    A    
C36   H19   S    
C27   N5    S    
N10   C40   S    
C7    H31   S    
N3    H3    S    
C33   H5    S    
C5    C13   A    
C1    O1    A    
C37   H25   S    
C35   H16   S    
C39   H37   S    
C6    N8    S    
N5    H13   S    
N8    C38   S    
N10   H39   S    
C22   N4    S    
N4    C34   S    
Cu1   O4    S    
N6    H17   S    
C28   N6    S    
C9    H33   S    
N9    H35   S    
C5    C7    A    
C17   C19   S    
C6    C8    A    
N4    H7    S    
Cu1   O1    S    
Cu2   O3    S    
N6    C36   S    
C5    N7    S    
C36   H20   S    
N7    H23   S    
C17   O7    A    
C18   O8    A    
C6    C14   A    
N7    C37   S    
C2    O2    A    
C40   H40   S    
C24   H12   S    
C33   H6    S    
C40   H42   S    
Cu1   Cu2   S    
C34   H9    S    
C3    C31   S    
C9    C11   A    
C12   N10   S    
C4    C32   S    
C10   C12   A    
C38   H29   S    
C12   C14   A    
C39   H38   S    
C13   C15   S    
C1    C26   S    
C14   C16   S    
C3    C4    T    
C37   H26   S    
C40   H41   S    
Cu2   O2    S    
Cu1   O8    S    
C7    N1    A    
Cu2   O7    S    
C19   H1    S    
C25   C27   A    
C26   C28   A    
Cu1   O5    S    
C21   C23   A    
C29   C31   A    
C30   C32   A    
C11   C13   A    
C28   C30   A    
Cu1   N1    S    
Cu2   N2    S    
C2    C25   S    
C18   C20   S    
C23   C25   A    
C36   H18   S    
C17   O5    A    
C1    O3    A    
C35   H14   S    
C2    O4    A    
C38   H30   S    
C29   H21   S    
C10   H34   S    
C33   H4    S    
C34   H10   S    
C9    N1    A    
C10   N2    A    
C8    H32   S    
C20   H2    S    
C21   N3    S    
