data_mof_unit_63819.cif
_audit_creation_date              2012-10-26T19:00:56-0400
_audit_creation_method            fapswitch 2.2
_symmetry_space_group_name_H-M    P1
_symmetry_Int_Tables_number       1
_space_group_crystal_system       triclinic
_cell_length_a                    11.059837
_cell_length_b                    17.753988
_cell_length_c                    16.49663
_cell_angle_alpha                 89.593586
_cell_angle_beta                  102.183874
_cell_angle_gamma                 91.660363
_cell_volume                      3164.92258754

loop_
_atom_site_label
_atom_site_type_symbol
_atom_type_description
_atom_site_fract_x
_atom_site_fract_y
_atom_site_fract_z
_atom_type_partial_charge
C1    C     C_R   0.501849 0.355251 0.500317 0.571074
C2    C     C_R   0.420822 0.451707 0.247418 0.058599
C3    C     C_R   0.422012 0.453010 0.735184 0.216908
C4    C     C_R   0.577971 0.547003 0.264816 0.216866
C5    C     C_R   0.423467 0.454016 0.820616 -0.129680
C6    C     C_R   0.576524 0.545996 0.179385 -0.129713
C7    C     C_R   0.503541 0.502691 0.873946 0.004870
C8    C     C_R   0.496478 0.497305 0.126057 0.004872
C9    C     C_1   0.501786 0.501274 0.963112 0.050908
C10   C     C_1   0.498238 0.498722 0.036892 0.050905
C11   C     C_R   0.262639 0.500053 0.466770 0.565315
C12   C     C_R   0.498175 0.644750 0.499686 0.571195
C13   C     C_R   0.737360 0.499944 0.533230 0.565263
C14   C     C_2   0.128285 0.499077 0.447839 -0.109672
C15   C     C_2   0.871714 0.500915 0.552159 -0.109693
C16   C     C_2   0.067074 0.501682 0.509156 -0.142582
C17   C     C_2   0.932922 0.498307 0.490841 -0.142644
C18   C     C_R   0.480939 0.846751 0.568781 -0.107711
C19   C     C_R   0.519508 0.153278 0.431272 -0.107588
C20   C     C_R   0.477723 0.767944 0.569912 0.250925
C21   C     C_R   0.522668 0.232083 0.430157 0.250897
C22   C     C_R   0.494569 0.727820 0.499430 -0.006868
C23   C     C_R   0.495722 0.885798 0.497680 -0.002602
C24   C     C_R   0.505523 0.272186 0.500578 -0.006993
C25   C     C_R   0.506889 0.767941 0.427726 -0.135217
C26   C     C_R   0.492969 0.232046 0.572221 -0.135213
C27   C     C_R   0.507717 0.846486 0.426555 0.097758
C28   C     C_R   0.492182 0.153500 0.573377 0.097755
C29   C     C_3   0.338076 0.731107 0.646622 0.001169
C30   C     C_3   0.316901 0.677216 0.714691 -0.339360
C31   C     C_3   0.662764 0.269237 0.353938 0.001242
C32   C     C_3   0.684017 0.322971 0.285752 -0.339276
C33   C     C_R   0.504471 0.114210 0.502304 -0.002634
C34   C     C_1   0.498789 0.966255 0.499137 0.047167
C35   C     C_1   0.501426 0.033754 0.500830 0.047150
C36   C     C_R   0.582549 0.550866 0.838944 0.058260
C37   C     C_R   0.417493 0.449114 0.161059 0.058420
C38   C     C_R   0.579210 0.548275 0.752584 0.058515
Cu1   Cu    Cu3+1 0.499990 0.499980 0.580420 1.003392
Cu2   Cu    Cu3+1 0.500010 0.500020 0.419580 1.003349
H1    H     H_    0.883967 0.493768 0.426480 0.172716
H2    H     H_    0.482981 0.261488 0.627499 0.186979
H3    H     H_    0.640186 0.585560 0.726556 0.169740
H4    H     H_    0.359861 0.414412 0.273448 0.169647
H5    H     H_    0.275854 0.712297 0.587435 0.129867
H6    H     H_    0.312792 0.788600 0.662390 0.144591
H7    H     H_    0.380377 0.692284 0.774336 0.186602
H8    H     H_    0.219830 0.680352 0.722391 0.112042
H9    H     H_    0.333662 0.618606 0.697853 0.171360
H10   H     H_    0.688670 0.211768 0.338554 0.144427
H11   H     H_    0.724454 0.288385 0.413183 0.129888
H12   H     H_    0.116029 0.506220 0.573517 0.172763
H13   H     H_    0.666615 0.381580 0.302223 0.171423
H14   H     H_    0.781285 0.320072 0.278407 0.111902
H15   H     H_    0.621041 0.307553 0.226030 0.186541
H16   H     H_    0.361339 0.416378 0.845442 0.158231
H17   H     H_    0.638637 0.583643 0.154558 0.158233
H18   H     H_    0.920926 0.504547 0.616516 0.118872
H19   H     H_    0.079074 0.495446 0.383481 0.118833
H20   H     H_    0.471897 0.877425 0.623697 0.153317
H21   H     H_    0.528801 0.122627 0.376396 0.153443
H22   H     H_    0.516650 0.738482 0.372405 0.186938
I1    I     I_    0.529067 0.902647 0.316264 -0.296392
I2    I     I_    0.470436 0.097309 0.683567 -0.296574
I3    I     I_    0.707196 0.628284 0.912818 -0.316582
I4    I     I_    0.292889 0.371673 0.087188 -0.316383
I5    I     I_    0.291864 0.374677 0.666728 -0.331975
I6    I     I_    0.708096 0.625348 0.333274 -0.331877
N1    N     N_R   0.499970 0.499970 0.701210 -0.242919
N2    N     N_R   0.500030 0.500030 0.298790 -0.242941
O1    O     O_R   0.499990 0.391240 0.567930 -0.487495
O2    O     O_3   0.536765 0.269551 0.358779 -0.531217
O3    O     O_R   0.500010 0.608760 0.432070 -0.487512
O4    O     O_R   0.500000 0.391270 0.432120 -0.459986
O5    O     O_R   0.500000 0.608730 0.567880 -0.459922
O6    O     O_R   0.320680 0.500000 0.542950 -0.486917
O7    O     O_R   0.679320 0.500000 0.457050 -0.486955
O8    O     O_R   0.320690 0.500030 0.407130 -0.503395
O9    O     O_R   0.679310 0.499970 0.592870 -0.503390
O10   O     O_3   0.463889 0.730484 0.641354 -0.531252

loop_
_geom_bond_atom_site_label_1
_geom_bond_atom_site_label_2
_ccdc_geom_bond_type
C13   O9    A    
C7    C36   A    
C5    H16   S    
C4    N2    A    
C14   H19   S    
C1    O1    A    
Cu2   N2    S    
C1    O4    A    
C30   H8    S    
C3    N1    A    
C24   C26   A    
C11   O6    A    
C11   C14   S    
C12   C22   S    
Cu2   O3    S    
C7    C9    S    
C34   C35   T    
C2    H4    S    
C16   C17   S    
C22   C25   A    
Cu1   O5    S    
C9    C10   T    
C32   H15   S    
C18   C20   A    
C38   N1    A    
C12   O3    A    
C6    H17   S    
C32   H14   S    
C13   O7    A    
C20   O10   S    
C21   O2    S    
C18   C23   A    
C30   H7    S    
C4    C6    A    
C19   C33   A    
Cu1   Cu2   S    
C5    C7    A    
C36   I3    S    
C6    C8    A    
C29   H5    S    
Cu1   O9    S    
C29   C30   S    
C11   O8    A    
C31   C32   S    
C23   C34   S    
C37   I4    S    
Cu1   N1    S    
Cu1   O6    S    
C27   I1    S    
C28   I2    S    
C18   H20   S    
C31   O2    S    
C30   H9    S    
C20   C22   A    
C28   C33   A    
C23   C27   A    
C13   C15   S    
C15   H18   S    
Cu2   O8    S    
C12   O5    A    
C8    C37   A    
C31   H10   S    
C32   H13   S    
C26   H2    S    
C4    I6    S    
C15   C17   D    
C19   C21   A    
C3    I5    S    
C16   H12   S    
C31   H11   S    
C3    C5    A    
C25   C27   A    
C26   C28   A    
C29   H6    S    
C36   C38   A    
C38   H3    S    
C2    C37   A    
C29   O10   S    
C19   H21   S    
C33   C35   S    
Cu2   O4    S    
C14   C16   D    
C25   H22   S    
C17   H1    S    
C1    C24   S    
C8    C10   S    
C21   C24   A    
Cu1   O1    S    
Cu2   O7    S    
C2    N2    A    
