data_mof_unit_58290.cif
_audit_creation_date              2012-12-10T17:28:38-0500
_audit_creation_method            fapswitch 2.2
_symmetry_space_group_name_H-M    P1
_symmetry_Int_Tables_number       1
_space_group_crystal_system       triclinic
_cell_length_a                    10.624615
_cell_length_b                    11.926854
_cell_length_c                    12.895972
_cell_angle_alpha                 93.000891
_cell_angle_beta                  89.856499
_cell_angle_gamma                 87.169995
_cell_volume                      1629.90241782

loop_
_atom_site_label
_atom_site_type_symbol
_atom_type_description
_atom_site_fract_x
_atom_site_fract_y
_atom_site_fract_z
_atom_type_partial_charge
C1    C     C_R   0.498855 0.521850 0.700546 0.884897
C2    C     C_R   0.479538 0.561040 0.132145 -0.280155
C3    C     C_R   0.514240 0.447081 0.974440 0.186873
C4    C     C_R   0.485760 0.552919 0.025560 0.186873
C5    C     C_R   0.365383 0.955513 0.419615 -0.349892
C6    C     C_R   0.634617 0.044487 0.580385 -0.349891
C7    C     C_R   0.380583 0.838730 0.425190 0.019175
C8    C     C_R   0.619417 0.161270 0.574810 0.019175
C9    C     C_R   0.560888 0.857539 0.531910 -0.074075
C10   C     C_R   0.439112 0.142461 0.468090 -0.074076
C11   C     C_R   0.549669 0.975289 0.528434 0.097280
C12   C     C_R   0.501145 0.478150 0.299454 0.884897
C13   C     C_R   0.450331 0.024711 0.471566 0.097280
C14   C     C_R   0.739816 0.499377 0.484691 0.895737
C15   C     C_R   0.260183 0.500623 0.515309 0.895737
C16   C     C_R   0.899488 0.293988 0.431931 -0.126282
C17   C     C_R   0.100511 0.706012 0.568068 -0.126282
C18   C     C_R   0.960886 0.191815 0.453170 -0.158443
C19   C     C_R   0.039113 0.808185 0.546828 -0.158444
C20   C     C_R   0.068992 0.190829 0.513616 -0.177661
C21   C     C_R   0.931008 0.809171 0.486382 -0.177660
C22   C     C_R   0.120646 0.292006 0.545950 -0.131463
C23   C     C_R   0.502655 0.465250 0.188264 -0.052643
C24   C     C_R   0.879354 0.707993 0.454048 -0.131463
C25   C     C_R   0.065012 0.396321 0.517127 0.090813
C26   C     C_R   0.934988 0.603679 0.482872 0.090814
C27   C     C_R   0.946053 0.397094 0.471183 0.084001
C28   C     C_R   0.053947 0.602906 0.528816 0.084001
C29   C     C_R   0.124418 0.499606 0.532012 -0.263260
C30   C     C_R   0.875582 0.500394 0.467987 -0.263260
C31   C     C_R   0.497345 0.534750 0.811736 -0.052643
C32   C     C_R   0.464398 0.649109 0.969452 -0.221896
C33   C     C_R   0.535602 0.350891 0.030548 -0.221896
C34   C     C_R   0.470221 0.640038 0.862150 -0.208977
C35   C     C_R   0.529779 0.359962 0.137850 -0.208977
C36   C     C_R   0.520462 0.438960 0.867854 -0.280155
H1    H     H_    0.886032 0.888310 0.465761 0.133971
H2    H     H_    0.797486 0.712394 0.404497 0.157185
H3    H     H_    0.547854 0.285452 0.181116 0.161377
H4    H     H_    0.452146 0.714547 0.818884 0.161377
H5    H     H_    0.442745 0.730579 0.008356 0.138617
H6    H     H_    0.557255 0.269421 0.991644 0.138617
H7    H     H_    0.364350 0.182244 0.424018 0.139422
H8    H     H_    0.635650 0.817756 0.575982 0.139422
H9    H     H_    0.685270 0.214969 0.614226 0.145068
H10   H     H_    0.314730 0.785031 0.385774 0.145068
H11   H     H_    0.457404 0.642482 0.171149 0.160385
H12   H     H_    0.113968 0.111689 0.534237 0.133971
H13   H     H_    0.542596 0.357518 0.828851 0.160385
H14   H     H_    0.287961 0.991230 0.375567 0.148827
H15   H     H_    0.712039 0.008770 0.624433 0.148827
H16   H     H_    0.815486 0.291933 0.384641 0.146901
H17   H     H_    0.184513 0.708068 0.615359 0.146901
H18   H     H_    0.922715 0.113471 0.425016 0.132702
H19   H     H_    0.077284 0.886529 0.574982 0.132702
H20   H     H_    0.202514 0.287605 0.595501 0.157185
N1    N     N_R   0.523130 0.207800 0.519340 -0.105195
N2    N     N_R   0.476870 0.792200 0.480660 -0.105195
O1    O     O_R   0.506170 0.421700 0.658830 -0.628660
O2    O     O_R   0.493830 0.578300 0.341170 -0.628660
O3    O     O_R   0.491330 0.609310 0.646410 -0.629167
O4    O     O_R   0.508670 0.390690 0.353590 -0.629167
O5    O     O_R   0.690650 0.406190 0.506220 -0.622084
O6    O     O_R   0.309350 0.593810 0.493780 -0.622084
O7    O     O_R   0.675800 0.593810 0.493800 -0.623889
O8    O     O_R   0.324200 0.406190 0.506200 -0.623889
Zn1   Zn    Zn3+2 0.509910 0.374730 0.508290 0.930511
Zn2   Zn    Zn3+2 0.490090 0.625270 0.491710 0.930512

loop_
_geom_bond_atom_site_label_1
_geom_bond_atom_site_label_2
_ccdc_geom_bond_type
C35   H3    S    
C15   O6    A    
C15   C29   S    
C8    N1    A    
C25   C27   A    
C11   C13   A    
C7    N2    A    
C5    C13   A    
C22   H20   S    
C12   C23   S    
C20   C22   A    
C32   H5    S    
O7    Zn2   S    
O1    Zn1   S    
C16   C27   A    
O8    Zn1   S    
C31   C34   A    
C21   H1    S    
C4    C32   A    
C15   O8    A    
C27   C30   A    
C9    C11   A    
O3    Zn2   S    
C20   H12   S    
C33   H6    S    
C3    C36   A    
C14   C30   S    
C34   H4    S    
C2    C4    A    
O6    Zn2   S    
N2    Zn2   S    
C28   C29   A    
C33   C35   A    
C14   O7    A    
N1    Zn1   S    
C26   C30   A    
C18   H18   S    
C23   C35   A    
C1    O1    A    
C25   C29   A    
C16   H16   S    
C2    H11   S    
O5    Zn1   S    
C5    H14   S    
C21   C24   A    
O4    Zn1   S    
C14   O5    A    
C6    C11   A    
C24   H2    S    
C12   O2    A    
C7    H10   S    
C17   H17   S    
C1    C31   S    
C10   N1    A    
C12   O4    A    
O2    Zn2   S    
C18   C20   A    
C16   C18   A    
C9    N2    A    
C6    H15   S    
C19   H19   S    
C2    C23   A    
C5    C7    A    
C3    C33   A    
C8    H9    S    
C9    H8    S    
C6    C8    A    
C17   C19   A    
C10   H7    S    
C31   C36   A    
C17   C28   A    
C26   C28   A    
C10   C13   A    
C36   H13   S    
C3    C4    A    
C24   C26   A    
C32   C34   A    
C19   C21   A    
C22   C25   A    
C1    O3    A    
