data_mof_unit_66942.cif
_audit_creation_date              2013-03-05T15:57:30-0500
_audit_creation_method            fapswitch 2.2
_symmetry_space_group_name_H-M    P1
_symmetry_Int_Tables_number       1
_space_group_crystal_system       triclinic
_cell_length_a                    17.198392
_cell_length_b                    18.53028
_cell_length_c                    8.505382
_cell_angle_alpha                 89.708427
_cell_angle_beta                  102.090685
_cell_angle_gamma                 90.11328
_cell_volume                      2650.42521785

loop_
_atom_site_label
_atom_site_type_symbol
_atom_site_description
_atom_site_fract_x
_atom_site_fract_y
_atom_site_fract_z
_atom_type_partial_charge
P1    P     P_3+3 0.834140 0.419320 0.003900 0.439570
P2    P     P_3+3 0.834140 0.580680 0.503900 0.448135
P3    P     P_3+3 0.334140 0.919320 0.003900 0.452272
P4    P     P_3+3 0.334140 0.080680 0.503900 0.452581
O1    O     O_2   0.841960 0.394640 0.833410 -0.386336
O2    O     O_2   0.841960 0.605360 0.333410 -0.361068
O3    O     O_2   0.341960 0.894640 0.833410 -0.372568
O4    O     O_2   0.341960 0.105360 0.333410 -0.374800
O5    O     O_3   0.907950 0.463080 0.102990 -0.381017
O6    O     O_3   0.907950 0.536920 0.602990 -0.396976
O7    O     O_3   0.407950 0.963080 0.102990 -0.372783
O8    O     O_3   0.407950 0.036920 0.602990 -0.369074
O9    O     O_3   0.972780 0.329600 0.629720 -0.378624
O10   O     O_3   0.972780 0.670400 0.129720 -0.395490
O11   O     O_3   0.472780 0.829600 0.629720 -0.396855
O12   O     O_3   0.472780 0.170400 0.129720 -0.383024
O13   O     O_2   0.832778 0.282210 0.652609 -0.373293
O14   O     O_2   0.837800 0.723480 0.188562 -0.363957
O15   O     O_2   0.337678 0.776699 0.691097 -0.367934
O16   O     O_2   0.337872 0.223401 0.183213 -0.359538
O17   O     O_3   0.750886 0.475445 0.982642 -0.610554
O18   O     O_3   0.752693 0.520393 0.471045 -0.599832
O19   O     O_3   0.253281 0.978723 0.976257 -0.618105
O20   O     O_3   0.254927 0.019837 0.478218 -0.614907
O21   O     O_3   0.934964 0.181484 0.660880 -0.520611
O22   O     O_3   0.936718 0.818039 0.117406 -0.557860
O23   O     O_3   0.436438 0.682731 0.621357 -0.555184
O24   O     O_3   0.439206 0.320248 0.133291 -0.526568
H1    H     H_    0.045827 0.147758 0.768089 0.141866
H2    H     H_    0.054522 0.791193 0.201591 0.128538
H3    H     H_    0.553319 0.711961 0.711115 0.134767
H4    H     H_    0.558000 0.294356 0.207292 0.139359
C1    C     C_3   0.018762 0.114291 0.523789 -1.171283
C2    C     C_3   0.043200 0.892234 0.074038 -1.060762
C3    C     C_3   0.545399 0.610660 0.589932 -1.050905
C4    C     C_3   0.543206 0.401369 0.105348 -1.029461
H5    H     H_    0.606989 0.613769 0.569776 0.238573
H6    H     H_    0.606387 0.404422 0.094918 0.243606
H7    H     H_    0.077902 0.116411 0.491156 0.247395
H8    H     H_    0.103577 0.889748 0.047371 0.236890
H9    H     H_    0.008584 0.059580 0.569323 0.281168
H10   H     H_    0.043773 0.923544 0.185227 0.276386
H11   H     H_    0.543301 0.580974 0.702276 0.275833
H12   H     H_    0.535031 0.429012 0.216165 0.278119
P5    P     P_3+3 0.165830 0.418670 0.685610 0.453592
P6    P     P_3+3 0.165830 0.581330 0.185610 0.451277
P7    P     P_3+3 0.665830 0.918670 0.685610 0.452659
P8    P     P_3+3 0.665830 0.081330 0.185610 0.452356
P9    P     P_3+3 0.105177 0.267691 0.114394 0.459447
P10   P     P_3+3 0.102174 0.735468 0.613390 0.464263
P11   P     P_3+3 0.601479 0.764204 0.114123 0.470083
P12   P     P_3+3 0.602696 0.234327 0.610543 0.460488
O25   O     O_2   0.157990 0.394030 0.856030 -0.369002
O26   O     O_2   0.157990 0.605970 0.356030 -0.374031
O27   O     O_2   0.657990 0.894030 0.856030 -0.374685
O28   O     O_2   0.657990 0.105970 0.356030 -0.374812
O29   O     O_3   0.027110 0.329490 0.059550 -0.392606
O30   O     O_3   0.027110 0.670510 0.559550 -0.383474
O31   O     O_3   0.527110 0.829490 0.059550 -0.384178
O32   O     O_3   0.527110 0.170510 0.559550 -0.386299
O33   O     O_2   0.164562 0.278676 0.003467 -0.357876
O34   O     O_2   0.166296 0.718125 0.517001 -0.363474
O35   O     O_2   0.666284 0.782194 0.019370 -0.363019
O36   O     O_2   0.659187 0.227766 0.492006 -0.367777
O37   O     O_3   0.246503 0.478367 0.712321 -0.616707
O38   O     O_3   0.246565 0.522157 0.211651 -0.613880
O39   O     O_3   0.745529 0.978960 0.710017 -0.611301
O40   O     O_3   0.747402 0.022863 0.211887 -0.617088
O41   O     O_3   0.066036 0.182255 0.062960 -0.542576
O42   O     O_3   0.069652 0.821654 0.541940 -0.550289
O43   O     O_3   0.568706 0.678481 0.041529 -0.543436
O44   O     O_3   0.557559 0.318096 0.565676 -0.536076
C5    C     C_3   0.990199 0.180708 0.098558 0.458213
C6    C     C_3   0.986196 0.824820 0.499355 0.450520
C7    C     C_3   0.485198 0.674488 0.006268 0.442723
C8    C     C_3   0.482074 0.314380 0.604062 0.512233
H13   H     H_    0.947933 0.212636 0.007671 0.146462
H14   H     H_    0.970250 0.870770 0.414585 0.112977
H15   H     H_    0.468132 0.628907 0.921910 0.112291
H16   H     H_    0.439537 0.288218 0.504119 0.132822
H17   H     H_    0.991065 0.201981 0.220858 0.041974
H18   H     H_    0.958906 0.776070 0.435147 0.158520
H19   H     H_    0.456291 0.723308 0.944175 0.155295
H20   H     H_    0.482251 0.284244 0.717617 0.015504
C9    C     C_3   0.960665 0.103967 0.093436 -1.069072
C10   C     C_3   0.951339 0.840268 0.645396 -1.075213
C11   C     C_3   0.453915 0.657542 0.156493 -1.072097
C12   C     C_3   0.453836 0.389762 0.626912 -1.082989
H21   H     H_    0.389308 0.646074 0.124321 0.240183
H22   H     H_    0.392933 0.386879 0.650930 0.234921
H23   H     H_    0.956277 0.081217 0.971374 0.288452
H24   H     H_    0.886443 0.849197 0.608388 0.241181
H25   H     H_    0.000786 0.069570 0.181341 0.274203
H26   H     H_    0.979227 0.889466 0.706144 0.263127
H27   H     H_    0.484902 0.609462 0.217519 0.270233
H28   H     H_    0.454634 0.422599 0.517711 0.289063
C13   C     C_3   0.263822 0.490103 0.363662 0.539075
C14   C     C_3   0.262424 0.512353 0.861988 0.545091
C15   C     C_3   0.762541 0.986422 0.359377 0.549191
C16   C     C_3   0.762652 0.010461 0.861797 0.535888
H29   H     H_    0.210347 0.483873 0.415464 0.118304
H30   H     H_    0.209713 0.514925 0.916934 0.122791
H31   H     H_    0.710456 0.984758 0.416293 0.123508
H32   H     H_    0.709376 0.015600 0.914576 0.119001
C17   C     C_3   0.328860 0.533944 0.472564 -0.885164
C18   C     C_3   0.332812 0.474849 0.971238 -0.900564
C19   C     C_3   0.835264 0.020226 0.468218 -0.926990
C20   C     C_3   0.828280 0.966616 0.969503 -0.883091
H33   H     H_    0.302145 0.580449 0.521288 0.263475
H34   H     H_    0.362660 0.510365 0.070728 0.239949
H35   H     H_    0.819366 0.072352 0.515623 0.269597
H36   H     H_    0.858302 0.996199 0.076984 0.248162
H37   H     H_    0.359461 0.503074 0.578567 0.247219
H38   H     H_    0.377188 0.458898 0.900334 0.239304
H39   H     H_    0.860182 0.984745 0.572098 0.241731
H40   H     H_    0.872979 0.949269 0.900636 0.244187
H41   H     H_    0.373414 0.553145 0.404511 0.244613
H42   H     H_    0.312154 0.426117 0.025657 0.265353
H43   H     H_    0.882196 0.029123 0.398475 0.245870
H44   H     H_    0.802263 0.918911 0.016160 0.261864
Ba1   Ba    Ba6+2 0.000000 0.447380 0.844850 1.554813
Ba2   Ba    Ba6+2 0.000000 0.552620 0.344850 1.561941
Ba3   Ba    Ba6+2 0.500000 0.947380 0.844850 1.563746
Ba4   Ba    Ba6+2 0.500000 0.052620 0.344850 1.567472
C21   C     C_3   0.731263 0.509784 0.833537 0.539457
C22   C     C_3   0.762086 0.461203 0.373211 0.382935
C23   C     C_3   0.236865 0.012284 0.825505 0.548323
C24   C     C_3   0.238029 0.989027 0.325695 0.545973
H45   H     H_    0.780276 0.510656 0.767716 0.117169
H46   H     H_    0.740658 0.477863 0.247792 0.136571
H47   H     H_    0.289742 0.015410 0.771292 0.122404
H48   H     H_    0.291832 0.983023 0.275030 0.117192
C25   C     C_3   0.656992 0.473755 0.736687 -0.956181
C26   C     C_3   0.711047 0.398510 0.409007 -0.963685
C27   C     C_3   0.167195 0.973806 0.716442 -0.904409
C28   C     C_3   0.173944 0.033990 0.216657 -0.893352
H49   H     H_    0.666916 0.416352 0.720029 0.263100
H50   H     H_    0.649478 0.416914 0.403915 0.277676
H51   H     H_    0.188590 0.924995 0.665111 0.266513
H52   H     H_    0.201694 0.079831 0.166246 0.264418
H53   H     H_    0.639557 0.497523 0.615335 0.265127
H54   H     H_    0.709894 0.354703 0.320078 0.221839
H55   H     H_    0.139340 0.008349 0.613490 0.240779
H56   H     H_    0.141538 0.003601 0.112118 0.250451
H57   H     H_    0.607740 0.477965 0.801903 0.245345
H58   H     H_    0.734531 0.376632 0.530872 0.290090
H59   H     H_    0.120924 0.958593 0.784256 0.241396
H60   H     H_    0.130911 0.054529 0.285982 0.238997
O45   O     O_3   0.092100 0.536880 0.086720 -0.371497
O46   O     O_3   0.092100 0.463120 0.586720 -0.374553
O47   O     O_3   0.592100 0.036880 0.086720 -0.373323
O48   O     O_3   0.592100 0.963120 0.586720 -0.368385
P13   P     P_3+3 0.895603 0.732575 0.073444 0.443946
P14   P     P_3+3 0.900630 0.262964 0.566936 0.446773
P15   P     P_3+3 0.398560 0.235443 0.075227 0.467136
P16   P     P_3+3 0.395034 0.767804 0.575356 0.444931
C29   C     C_3   0.014679 0.170029 0.651215 0.476876
C30   C     C_3   0.015298 0.816156 0.094815 0.447687
C31   C     C_3   0.515759 0.686067 0.603833 0.438316
C32   C     C_3   0.517325 0.322926 0.107666 0.472886
H61   H     H_    0.047831 0.219298 0.628807 0.090705
H62   H     H_    0.021440 0.785434 0.986324 0.054088
H63   H     H_    0.522890 0.716129 0.494462 0.057046
H64   H     H_    0.522458 0.298481 0.991215 0.021473
H65   H     H_    0.507775 0.582056 0.487709 0.269622
H66   H     H_    0.506927 0.429971 0.001252 0.253385
H67   H     H_    0.971962 0.125742 0.416458 0.282472
H68   H     H_    0.003489 0.919618 0.972484 0.266544
H69   H     H_    0.463603 0.704540 0.237543 0.249374
H70   H     H_    0.493233 0.415209 0.730946 0.261857
H71   H     H_    0.901661 0.105062 0.126430 0.233057
H72   H     H_    0.961844 0.793625 0.728353 0.252737
C33   C     C_R   0.137329 0.676917 0.924135 -0.493581
C34   C     C_R   0.140701 0.325813 0.423331 -0.488548
C35   C     C_R   0.638117 0.175062 0.921203 -0.495007
C36   C     C_R   0.636784 0.822707 0.423766 -0.492584
C37   C     C_R   0.877709 0.305564 0.236661 -0.514947
C38   C     C_R   0.858345 0.673096 0.765771 -0.482759
C39   C     C_R   0.358130 0.826777 0.266696 -0.487698
C40   C     C_R   0.361457 0.175509 0.766406 -0.489316
C41   C     C_R   0.791257 0.211557 0.294925 -0.191347
C42   C     C_R   0.786368 0.781728 0.800160 -0.188285
C43   C     C_R   0.286050 0.717991 0.302203 -0.186611
C44   C     C_R   0.291162 0.285748 0.799771 -0.207674
C45   C     C_R   0.856034 0.257123 0.347062 0.193530
C46   C     C_R   0.842654 0.729036 0.862349 0.249790
C47   C     C_R   0.341996 0.770989 0.364189 0.253537
C48   C     C_R   0.347354 0.232909 0.862078 0.231082
C49   C     C_R   0.822359 0.326776 0.098527 0.266349
C50   C     C_R   0.814165 0.664973 0.609457 0.260644
C51   C     C_R   0.314799 0.834498 0.109620 0.265619
C52   C     C_R   0.316757 0.166760 0.610136 0.243444
C53   C     C_R   0.758604 0.277230 0.040346 -0.060698
C54   C     C_R   0.753263 0.717059 0.546710 -0.063545
C55   C     C_R   0.254419 0.782016 0.046708 -0.057086
C56   C     C_R   0.257556 0.220372 0.546780 -0.057657
C57   C     C_R   0.240999 0.721667 0.143912 -0.070340
C58   C     C_R   0.244581 0.280853 0.643166 -0.056352
C59   C     C_R   0.744249 0.217409 0.138439 -0.064116
C60   C     C_R   0.740642 0.777836 0.642837 -0.069797
C61   C     C_R   0.182188 0.667941 0.080154 0.248814
C62   C     C_R   0.184485 0.333670 0.580019 0.253106
C63   C     C_R   0.682584 0.166374 0.077695 0.257363
C64   C     C_R   0.681938 0.831838 0.579494 0.239428
C65   C     C_R   0.151368 0.734481 0.827942 0.268142
C66   C     C_R   0.156316 0.269751 0.326828 0.240025
C67   C     C_R   0.655249 0.230475 0.822526 0.232641
C68   C     C_R   0.649780 0.764487 0.328838 0.266536
C69   C     C_R   0.208249 0.786870 0.889471 -0.209283
C70   C     C_R   0.212155 0.216703 0.389153 -0.210414
C71   C     C_R   0.713270 0.281772 0.882941 -0.212480
C72   C     C_R   0.705749 0.711265 0.390836 -0.200908
H73   H     H_    0.277418 0.675232 0.380635 0.188988
H74   H     H_    0.283107 0.329279 0.877056 0.185004
H75   H     H_    0.777991 0.172814 0.379413 0.190963
H76   H     H_    0.777742 0.824358 0.877949 0.188026
H77   H     H_    0.726691 0.321273 0.801223 0.182958
H78   H     H_    0.712805 0.666707 0.313832 0.193655
H79   H     H_    0.217617 0.829635 0.810845 0.186863
H80   H     H_    0.221116 0.174268 0.310881 0.187015
H81   H     H_    0.094202 0.636301 0.873073 0.174599
H82   H     H_    0.096935 0.366019 0.372366 0.167589
H83   H     H_    0.592944 0.135846 0.872035 0.173966
H84   H     H_    0.594108 0.863631 0.371934 0.173717
H85   H     H_    0.934790 0.331772 0.265780 0.164303
H86   H     H_    0.902827 0.633417 0.816263 0.174015
H87   H     H_    0.402284 0.866694 0.316994 0.171562
H88   H     H_    0.404870 0.135090 0.817716 0.172406
C73   C     C_1   0.712145 0.584395 0.864209 0.031510
N1    N     N_1   0.696339 0.643093 0.889831 -0.018029
C74   C     C_1   0.844513 0.437360 0.398975 0.229630
N2    N     N_1   0.911700 0.425376 0.425088 0.005528
C75   C     C_1   0.213332 0.086352 0.849508 -0.011642
N3    N     N_1   0.194872 0.144880 0.869717 -0.037541
C76   C     C_1   0.208475 0.916340 0.344707 -0.002512
N4    N     N_1   0.185763 0.858717 0.361605 -0.029901
C77   C     C_1   0.292796 0.417484 0.343095 0.001154
N5    N     N_1   0.315331 0.360068 0.324975 -0.024085
C78   C     C_1   0.285265 0.586530 0.835354 -0.015333
N6    N     N_1   0.303708 0.645027 0.813405 -0.033816
C79   C     C_1   0.782317 0.912132 0.327958 -0.015404
N7    N     N_1   0.798772 0.853637 0.302404 -0.028568
C80   C     C_1   0.790238 0.083716 0.840396 0.008984
N8    N     N_1   0.811444 0.141726 0.821655 -0.021029

loop_
_geom_bond_atom_site_label_1
_geom_bond_atom_site_label_2
_geom_bond_distance
_ccdc_geom_bond_type
C43   H73   1.063250 S    
C15   H31   1.104140 S    
C12   H28   1.110260 S    
P1    O17   1.749275 S    
O10   Ba2   2.816921 S    
O16   P15   1.543149 D    
P12   C67   1.840949 S    
C20   H44   1.099254 S    
P3    O19   1.751359 S    
C78   N6    1.154055 T    
C34   H82   1.082485 S    
C35   C67   1.392550 A    
O44   C8    1.404890 S    
O6    Ba1   2.846449 S    
C33   H81   1.082314 S    
C8    H20   1.112644 S    
C9    H23   1.110290 S    
C37   C45   1.401129 A    
Ba3   Ba4   4.669471 S    
P2    O2    1.550705 D    
C25   H49   1.092257 S    
P8    C63   1.871675 S    
C43   C57   1.407064 A    
O11   Ba3   2.829885 S    
C18   H38   1.108619 S    
C10   H72   1.103871 S    
C38   H86   1.082446 S    
C32   H64   1.111455 S    
O38   C13   1.394497 S    
C17   H37   1.101924 S    
C3    H5    1.109257 S    
C23   C27   1.530457 S    
O37   C14   1.397686 S    
C55   C69   1.407600 A    
C21   C73   1.459132 S    
P15   C48   1.842906 S    
C24   C28   1.528588 S    
P4    O20   1.745439 S    
C54   C72   1.408614 A    
O18   C22   1.409899 S    
C39   C47   1.385568 A    
P13   C46   1.836636 S    
C22   H46   1.096112 S    
O23   C31   1.404203 S    
C80   N8    1.155403 T    
C11   H69   1.104011 S    
O1    Ba1   2.869136 S    
O24   C32   1.406174 S    
P9    O29   1.752116 S    
Ba1   O46   2.977031 S    
P4    Ba4   3.444828 S    
C33   C61   1.397562 A    
P5    O46   1.595020 S    
C42   C46   1.397926 A    
C5    H17   1.111444 S    
P4    O4    1.550705 D    
O32   Ba4   2.829158 S    
P4    C52   1.892053 S    
C10   H26   1.107864 S    
P7    O48   1.595020 S    
P5    O37   1.750648 S    
C9    H25   1.105504 S    
P6    C61   1.883804 S    
C54   C60   1.438281 A    
P1    O5    1.591840 S    
O7    Ba4   2.854992 S    
P3    Ba3   3.441046 S    
P5    C62   1.878157 S    
C53   C71   1.403273 A    
C11   H27   1.108366 S    
P2    O18   1.766696 S    
O24   P15   1.749568 S    
C76   N4    1.154850 T    
O41   C5    1.399582 S    
C14   C18   1.528853 S    
P4    O8    1.590026 S    
C40   C48   1.394573 A    
C75   N3    1.154430 T    
C8    C12   1.506574 S    
O30   Ba2   2.829158 S    
O28   Ba4   2.872538 S    
C49   C53   1.436451 A    
C28   H52   1.101630 S    
C56   C70   1.404957 A    
C24   C76   1.458828 S    
C27   H55   1.107127 S    
O26   Ba2   2.872538 S    
P7    O27   1.550019 D    
P5    O25   1.550019 D    
C36   C64   1.398901 A    
C2    H10   1.110282 S    
P9    O41   1.740789 S    
C77   N5    1.155106 T    
C18   H42   1.104198 S    
C42   H76   1.063322 S    
O15   P16   1.542203 D    
C17   H41   1.109683 S    
C1    H67   1.103233 S    
P11   O43   1.755794 S    
C15   C19   1.526899 S    
C6    H18   1.109290 S    
C2    H68   1.104431 S    
O13   P14   1.542872 D    
C24   H48   1.105546 S    
P7    O39   1.745609 S    
C1    C29   1.513237 S    
C50   C54   1.441532 A    
C51   C55   1.441862 A    
P2    Ba2   3.444828 S    
P11   O31   1.751176 S    
O31   Ba3   2.816202 S    
C71   H77   1.064649 S    
P14   C45   1.870335 S    
Ba3   O47   2.854956 S    
C16   C20   1.528441 S    
C37   C49   1.403313 A    
P10   O30   1.754132 S    
Ba2   O45   2.979833 S    
C8    H16   1.111344 S    
P11   O35   1.541067 D    
C1    H9    1.110012 S    
C56   C58   1.436976 A    
C40   C52   1.399124 A    
C70   H80   1.064921 S    
O20   C24   1.393653 S    
C4    C32   1.520602 S    
P11   C68   1.841137 S    
O4    Ba4   2.872458 S    
H1    C29   1.104106 S    
C14   C78   1.458387 S    
C12   H70   1.102820 S    
C16   H32   1.105972 S    
C53   C59   1.435818 A    
C67   C71   1.396333 A    
O29   Ba1   2.816202 S    
C40   H88   1.082254 S    
C39   H87   1.082442 S    
C6    C10   1.516728 S    
C20   H36   1.099562 S    
C69   H79   1.067884 S    
C15   C79   1.458035 S    
C27   H51   1.103060 S    
O42   C6    1.406091 S    
C73   N1    1.154497 T    
P12   O44   1.741371 S    
C38   C46   1.387334 A    
C14   H30   1.104702 S    
C60   C64   1.442753 A    
C26   H54   1.109651 S    
O9    Ba1   2.829885 S    
C66   C70   1.398103 A    
C44   H74   1.070492 S    
C52   C56   1.443140 A    
C34   C62   1.394784 A    
C65   C69   1.400083 A    
C68   C72   1.401085 A    
C21   H45   1.105334 S    
C5    C9    1.506838 S    
P6    O26   1.554515 D    
O12   P15   1.746253 S    
C4    H66   1.104174 S    
O5    Ba2   2.854992 S    
Ba1   Ba2   4.669471 S    
C23   C75   1.459074 S    
C42   C60   1.405024 A    
C41   H75   1.070813 S    
C36   C68   1.396839 A    
C1    H7    1.109555 S    
P8    O40   1.750449 S    
C57   C61   1.442214 A    
O14   P13   1.542992 D    
C19   H39   1.110466 S    
O11   P16   1.747345 S    
C28   H60   1.107466 S    
C16   C80   1.460131 S    
O39   C16   1.393460 S    
C58   C62   1.442457 A    
C2    C30   1.509716 S    
C27   H59   1.111375 S    
C7    C11   1.517846 S    
Ba4   O47   2.979833 S    
C12   H22   1.109516 S    
C44   C58   1.406459 A    
C11   H21   1.107678 S    
O10   P13   1.747143 S    
P12   O36   1.545064 D    
P10   O34   1.540901 D    
P1    O1    1.555207 D    
C4    H12   1.109624 S    
C25   H57   1.108519 S    
O2    Ba2   2.872458 S    
O17   C21   1.393002 S    
C41   C59   1.408888 A    
O27   Ba3   2.875902 S    
C29   H61   1.112027 S    
C3    H11   1.107229 S    
O19   C23   1.396936 S    
C18   H34   1.111325 S    
P16   C47   1.836891 S    
C21   C25   1.522266 S    
O23   P16   1.739748 S    
H2    C30   1.110915 S    
C17   H33   1.100194 S    
Ba3   O48   2.977031 S    
C41   C45   1.394216 A    
C36   H84   1.082291 S    
P1    Ba1   3.441046 S    
O21   P14   1.749375 S    
H3    C31   1.111961 S    
C19   H35   1.105229 S    
C13   C17   1.529401 S    
P6    Ba2   3.443288 S    
P2    C50   1.873359 S    
O3    Ba3   2.869136 S    
C59   C63   1.434398 A    
C26   H50   1.105221 S    
C33   C65   1.392240 A    
P6    O38   1.747570 S    
P7    Ba3   3.447157 S    
P8    O28   1.554515 D    
C13   C77   1.459874 S    
P3    O3    1.555207 D    
C19   H43   1.108870 S    
C26   H58   1.105813 S    
P5    Ba1   3.447157 S    
C20   H40   1.108582 S    
C4    H6    1.109902 S    
C22   C74   1.457454 S    
O12   Ba4   2.816921 S    
O40   C15   1.397390 S    
C35   C63   1.397954 A    
C28   H56   1.102069 S    
O25   Ba1   2.875902 S    
O43   C7    1.406225 S    
P9    O33   1.541284 D    
C7    H19   1.109690 S    
P10   O42   1.756139 S    
O8    Ba3   2.846449 S    
C72   H78   1.079182 S    
C79   N7    1.153950 T    
C38   C50   1.394989 A    
C3    H65   1.106008 S    
Ba1   O45   2.854956 S    
P7    C64   1.897788 S    
O22   C30   1.404829 S    
C31   H63   1.110391 S    
Ba4   O48   2.846419 S    
P3    C51   1.870434 S    
C23   H47   1.103711 S    
O9    P14   1.752899 S    
Ba2   O46   2.846419 S    
C3    C31   1.502013 S    
P3    O7    1.591840 S    
C30   H62   1.110481 S    
O21   C29   1.407084 S    
C37   H85   1.076303 S    
C9    H71   1.108332 S    
P10   C65   1.843681 S    
C44   C48   1.399054 A    
P6    O45   1.596850 S    
C39   C51   1.393585 A    
P9    C66   1.836985 S    
C22   C26   1.522214 S    
C5    H13   1.112493 S    
P12   O32   1.743384 S    
P8    Ba4   3.443288 S    
C6    H14   1.109892 S    
P8    O47   1.596850 S    
C74   N2    1.151894 T    
C34   C66   1.388216 A    
C35   H83   1.082262 S    
C2    H8    1.109410 S    
O22   P13   1.743194 S    
C10   H24   1.106887 S    
C25   H53   1.102471 S    
H4    C32   1.111854 S    
C7    H15   1.109642 S    
C13   H29   1.105494 S    
C43   C47   1.399014 A    
P1    C49   1.918979 S    
C55   C57   1.434181 A    
P2    O6    1.590026 S    
