data_mof_unit_33880.cif
_audit_creation_date              2012-12-10T16:51:12-0500
_audit_creation_method            fapswitch 2.2
_symmetry_space_group_name_H-M    P1
_symmetry_Int_Tables_number       1
_space_group_crystal_system       triclinic
_cell_length_a                    27.648835
_cell_length_b                    8.779668
_cell_length_c                    7.415693
_cell_angle_alpha                 103.035331
_cell_angle_beta                  93.418721
_cell_angle_gamma                 92.47394
_cell_volume                      1747.66399233

loop_
_atom_site_label
_atom_site_type_symbol
_atom_type_description
_atom_site_fract_x
_atom_site_fract_y
_atom_site_fract_z
_atom_type_partial_charge
C1    C     C_R   0.498793 0.199659 0.453238 0.865962
C2    C     C_R   0.500652 0.800249 0.546697 0.879505
C3    C     C_R   0.103794 0.497209 0.613904 -0.107301
C4    C     C_R   0.899690 0.507431 0.570408 -0.107436
C5    C     C_R   0.125703 0.353188 0.563480 -0.001393
C6    C     C_R   0.878452 0.639410 0.531019 -0.020110
C7    C     C_R   0.097406 0.212819 0.535907 -0.053191
C8    C     C_R   0.908503 0.763589 0.506631 -0.035310
C9    C     C_R   0.132955 0.638809 0.664340 -0.162423
C10   C     C_R   0.870253 0.377699 0.587417 -0.138793
C11   C     C_R   0.354693 0.497001 0.514006 -0.137544
C12   C     C_R   0.645860 0.506757 0.493231 -0.142240
C13   C     C_R   0.972343 0.359375 0.577384 -0.044296
C14   C     C_R   0.030474 0.643184 0.645673 -0.089061
C15   C     C_R   0.979936 0.642155 0.603581 0.105168
C16   C     C_R   0.023757 0.355477 0.576843 0.109408
C17   C     C_R   0.950862 0.503760 0.589458 0.039094
C18   C     C_R   0.052610 0.498660 0.612434 0.032119
C19   C     C_R   0.940837 0.223954 0.549445 0.254027
C20   C     C_R   0.059402 0.782088 0.724611 0.264894
C21   C     C_R   0.893051 0.240296 0.601066 0.408757
C22   C     C_R   0.110346 0.780963 0.731268 0.381584
C23   C     C_R   0.407556 0.500611 0.503867 0.807118
C24   C     C_R   0.592588 0.500164 0.496650 0.801702
C25   C     C_R   0.047605 0.214369 0.550867 -0.068396
C26   C     C_R   0.958311 0.768718 0.551053 -0.073091
C27   C     C_2   0.498878 0.032279 0.426796 -0.381040
C28   C     C_2   0.499593 0.967424 0.572616 -0.398423
C29   C     C_R   0.175593 0.352704 0.541752 0.603652
C30   C     C_R   0.827788 0.640837 0.509619 0.617468
C31   C     C_R   0.183665 0.630674 0.649169 0.700765
C32   C     C_R   0.819399 0.387596 0.575654 0.686415
C33   C     C_R   0.274031 0.566777 0.422332 0.394635
C34   C     C_R   0.721482 0.430478 0.353555 0.384555
C35   C     C_R   0.324642 0.576722 0.409587 -0.123628
C36   C     C_R   0.670229 0.421681 0.343012 -0.125065
C37   C     C_R   0.334162 0.413998 0.633996 -0.270973
C38   C     C_R   0.672992 0.599557 0.648510 -0.239160
C39   C     C_R   0.284551 0.412094 0.654219 -0.120524
C40   C     C_R   0.723333 0.605718 0.658628 -0.118304
C41   C     C_R   0.254167 0.488062 0.549567 0.241412
C42   C     C_R   0.747705 0.520272 0.513349 0.242742
Cu1   Cu    Cu3+1 0.505380 0.517380 0.684380 0.933431
Cu2   Cu    Cu3+1 0.494620 0.482620 0.315620 0.951687
H1    H     H_    0.356813 0.352686 0.715150 0.156716
H2    H     H_    0.655117 0.666601 0.764186 0.171576
H3    H     H_    0.462146 0.379387 0.948652 0.220166
H4    H     H_    0.537851 0.620633 0.051333 0.220470
H5    H     H_    0.269622 0.352097 0.752781 0.190800
H6    H     H_    0.743575 0.674609 0.781719 0.190211
H7    H     H_    0.113741 0.100758 0.505172 0.216943
H8    H     H_    0.893308 0.855557 0.451513 0.250057
H9    H     H_    0.028401 0.103096 0.539498 0.197604
H10   H     H_    0.980416 0.866693 0.531104 0.199610
H11   H     H_    0.498303 0.961821 0.285723 0.180441
H12   H     H_    0.499785 0.037934 0.713512 0.179122
N1    N     N_R   0.203214 0.490456 0.579393 -0.466991
N2    N     N_R   0.799502 0.516891 0.534560 -0.470250
N3    N     N_2   0.486510 0.456430 0.038510 -0.213850
N4    N     N_2   0.513490 0.543570 0.961490 -0.216090
O1    O     O_R   0.503500 0.286120 0.619780 -0.582380
O2    O     O_R   0.496500 0.713880 0.380220 -0.577395
O3    O     O_R   0.494410 0.256780 0.308360 -0.585553
O4    O     O_R   0.505590 0.743220 0.691640 -0.594528
O5    O     O_R   0.434810 0.514700 0.655690 -0.597166
O6    O     O_R   0.565190 0.485300 0.344310 -0.579282
O7    O     O_R   0.425720 0.485350 0.344280 -0.576331
O8    O     O_R   0.574280 0.514650 0.655720 -0.589920
O9    O     O_2   0.196276 0.215767 0.480590 -0.463912
O10   O     O_2   0.806888 0.764689 0.464870 -0.452744
O11   O     O_2   0.789778 0.267979 0.597374 -0.412295
O12   O     O_2   0.213531 0.760728 0.700574 -0.423828
C43   C     C_R   0.643464 0.311499 0.184130 0.153013
C44   C     C_R   0.643561 0.339372 0.004877 -0.052802
C45   C     C_R   0.623417 0.225793 0.852194 -0.061776
C46   C     C_R   0.602929 0.084564 0.877804 -0.117857
C47   C     C_R   0.601116 0.058417 0.056376 -0.127210
C48   C     C_R   0.621390 0.171384 0.209389 -0.087564
H13   H     H_    0.660497 0.446754 0.983212 0.138978
H14   H     H_    0.624581 0.245806 0.713740 0.130883
H15   H     H_    0.589018 0.994586 0.759109 0.131960
H16   H     H_    0.584936 0.949263 0.075805 0.125248
H17   H     H_    0.621143 0.147929 0.346627 0.109070
C49   C     C_R   0.345975 0.686325 0.306975 0.156817
C50   C     C_R   0.350065 0.640486 0.114974 -0.042626
C51   C     C_R   0.369333 0.747066 0.019659 -0.097792
C52   C     C_R   0.384275 0.899540 0.115196 -0.103217
C53   C     C_R   0.379964 0.945917 0.306318 -0.096986
C54   C     C_R   0.361164 0.839469 0.402368 -0.108486
H18   H     H_    0.338339 0.522845 0.040165 0.125610
H19   H     H_    0.372481 0.712237 0.871711 0.142996
H20   H     H_    0.399053 0.981849 0.041070 0.124900
H21   H     H_    0.391190 0.064337 0.380076 0.127503
H22   H     H_    0.358025 0.876522 0.550571 0.126319
Cl1   Cl    Cl    0.753610 0.323506 0.171745 -0.518561
Cl2   Cl    Cl    0.235485 0.653297 0.279581 -0.528136
Cl3   Cl    Cl    0.864831 0.093334 0.691826 -0.441987
Cl4   Cl    Cl    0.143952 0.959983 0.830878 -0.430195
Cl5   Cl    Cl    0.946661 0.077462 0.347066 -0.574765
Cl6   Cl    Cl    0.032791 0.950548 0.850625 -0.522934

loop_
_geom_bond_atom_site_label_1
_geom_bond_atom_site_label_2
_ccdc_geom_bond_type
C52   C53   A    
C22   Cl4   S    
C8    C26   A    
C43   C44   A    
C14   C18   A    
Cu2   O6    S    
C34   C42   A    
C32   N2    A    
Cu1   Cu2   S    
C42   N2    S    
C28   H12   S    
C39   C41   A    
C47   C48   A    
C19   C21   A    
C25   H9    S    
C51   H19   S    
C27   H11   S    
C9    C22   A    
Cu2   N3    S    
C1    O3    A    
C3    C18   A    
C23   O7    A    
C54   H22   S    
C11   C37   A    
C48   H17   S    
Cu1   O8    S    
C43   C48   A    
C12   C36   A    
C45   H14   S    
C8    H8    S    
C9    C31   A    
C29   O9    S    
C24   O6    A    
C40   C42   A    
N3    N4    D    
Cu2   O3    S    
C52   H20   S    
C26   H10   S    
C30   O10   S    
C2    O4    A    
Cu1   O4    S    
H4    N4    S    
C32   O11   S    
C5    C29   A    
C46   C47   A    
C10   C21   A    
C50   H18   S    
C44   C45   A    
C13   C19   A    
C14   C20   A    
C34   Cl1   S    
C4    C6    A    
C5    C7    A    
C19   Cl5   S    
C51   C52   A    
C15   C26   A    
C6    C8    A    
Cu2   O2    S    
C50   C51   A    
H3    N3    S    
C45   C46   A    
C3    C9    A    
C21   Cl3   S    
C20   Cl6   S    
Cu1   O5    S    
C49   C50   A    
Cu1   N4    S    
C4    C17   A    
C31   O12   S    
C39   H5    S    
C29   N1    A    
C44   H13   S    
C49   C54   A    
C37   H1    S    
C33   Cl2   S    
Cu1   O1    S    
C16   C25   A    
C15   C17   A    
C53   H21   S    
C6    C30   A    
C20   C22   A    
C3    C5    A    
C1    O1    A    
C46   H15   S    
C35   C49   S    
C12   C24   S    
C7    C25   A    
C13   C17   A    
C33   C41   A    
C23   O5    A    
C11   C35   A    
C7    H7    S    
C37   C39   A    
C38   C40   A    
C31   N1    A    
C47   H16   S    
C40   H6    S    
C30   N2    A    
C11   C23   S    
C33   C35   A    
C34   C36   A    
C12   C38   A    
C38   H2    S    
C36   C43   S    
C24   O8    A    
C41   N1    S    
C10   C32   A    
C53   C54   A    
C16   C18   A    
C13   C16   A    
C27   C28   D    
C1    C27   S    
C14   C15   A    
Cu2   O7    S    
C2    C28   S    
C4    C10   A    
C2    O2    A    
