data_mof_unit_31362.cif
_audit_creation_date              2012-12-10T20:26:28-0500
_audit_creation_method            fapswitch 2.2
_symmetry_space_group_name_H-M    P1
_symmetry_Int_Tables_number       1
_space_group_crystal_system       triclinic
_cell_length_a                    10.650268
_cell_length_b                    10.665154
_cell_length_c                    9.852623
_cell_angle_alpha                 90.089429
_cell_angle_beta                  91.111108
_cell_angle_gamma                 89.818085
_cell_volume                      1118.91008379

loop_
_atom_site_label
_atom_site_type_symbol
_atom_type_description
_atom_site_fract_x
_atom_site_fract_y
_atom_site_fract_z
_atom_type_partial_charge
C1    C     C_R   0.495323 0.259825 0.499728 0.866531
C2    C     C_R   0.471913 0.128775 0.497656 -0.099458
C3    C     C_R   0.466278 0.064582 0.373336 -0.229205
C4    C     C_R   0.465393 0.935155 0.373476 -0.220756
C5    C     C_R   0.469678 0.871278 0.497965 -0.138937
C6    C     C_R   0.446129 0.936396 0.617764 0.136994
C7    C     C_3   0.506321 0.928962 0.756329 -0.026035
C8    C     C_3   0.510201 0.071729 0.755011 -0.489745
C9    C     C_R   0.436330 0.409719 0.069754 0.221035
C10   C     C_R   0.572628 0.581384 0.073695 -0.132048
C11   C     C_R   0.572979 0.581081 0.929625 -0.147621
C12   C     C_R   0.261983 0.502933 0.498486 0.938867
C13   C     C_R   0.436365 0.409700 0.927130 0.220586
C14   C     C_3   0.298754 0.385139 0.918218 -0.508225
C15   C     C_3   0.298625 0.385642 0.072287 -0.531756
C16   C     C_R   0.494347 0.740163 0.499865 0.884521
C17   C     C_R   0.737117 0.485909 0.501295 0.899103
C18   C     C_2   0.931485 0.454845 0.390098 -0.195998
C19   C     C_2   0.865256 0.440632 0.503869 -0.053012
C20   C     C_2   0.066640 0.451685 0.391914 -0.182020
C21   C     C_2   0.128775 0.508018 0.493551 -0.360860
C22   C     C_R   0.448698 0.064555 0.617526 0.081987
H1    H     H_    0.887853 0.487006 0.295756 0.164337
H2    H     H_    0.607138 0.109189 0.751821 0.183285
H3    H     H_    0.629036 0.648937 0.129411 0.146044
H4    H     H_    0.629656 0.648389 0.876479 0.149717
H5    H     H_    0.244813 0.464469 0.872572 0.219981
H6    H     H_    0.277487 0.291688 0.873432 0.196042
H7    H     H_    0.245262 0.465783 0.114954 0.217843
H8    H     H_    0.276896 0.292602 0.116622 0.197373
H9    H     H_    0.114301 0.409711 0.306603 0.171476
H10   H     H_    0.080954 0.553712 0.576733 0.151198
H11   H     H_    0.473243 0.112813 0.277073 0.170970
H12   H     H_    0.472277 0.886485 0.277275 0.171860
H13   H     H_    0.600866 0.884249 0.756525 0.161934
H14   H     H_    0.448997 0.118141 0.830368 0.208232
N1    N     N_R   0.499170 0.499140 0.142800 -0.105546
N2    N     N_R   0.499170 0.499180 0.857150 -0.108524
O1    O     O_R   0.500020 0.316790 0.614690 -0.626834
O2    O     O_R   0.500000 0.316760 0.385350 -0.623584
O3    O     O_R   0.319080 0.500020 0.614640 -0.623520
O4    O     O_R   0.319070 0.499980 0.385300 -0.611482
O5    O     O_R   0.500000 0.683240 0.614650 -0.622817
O6    O     O_R   0.499980 0.683210 0.385310 -0.620954
O7    O     O_R   0.680930 0.500020 0.614700 -0.621983
O8    O     O_R   0.680920 0.499980 0.385360 -0.626782
Zn1   Zn    Zn3+2 0.500010 0.500020 0.653130 0.924926
Zn2   Zn    Zn3+2 0.499990 0.499980 0.346870 0.936054
C23   C     C_3   0.914979 0.371932 0.630478 -0.398753
C24   C     C_3   0.837871 0.254039 0.660200 -0.350733
C25   C     C_3   0.895478 0.179924 0.778535 -0.906448
H15   H     H_    0.992373 0.149317 0.754577 0.263732
H16   H     H_    0.898109 0.238377 0.871970 0.266946
H17   H     H_    0.838075 0.095304 0.797694 0.244666
H18   H     H_    0.740703 0.280472 0.686784 0.244991
H19   H     H_    0.833859 0.192921 0.568685 0.220077
H20   H     H_    0.013310 0.339911 0.619126 0.231283
H21   H     H_    0.912440 0.436676 0.718932 0.198548
C26   C     C_3   0.417965 0.875389 0.862348 -0.866015
H22   H     H_    0.461381 0.885736 0.965105 0.233419
H23   H     H_    0.325738 0.924552 0.860046 0.241527
H24   H     H_    0.401417 0.774369 0.842364 0.263566

loop_
_geom_bond_atom_site_label_1
_geom_bond_atom_site_label_2
_ccdc_geom_bond_type
C2    C22   A    
C11   N2    A    
C8    C22   S    
C12   O3    A    
C8    H2    S    
C2    C3    A    
C14   H5    S    
C23   H21   S    
C19   C23   S    
C24   H18   S    
C11   H4    S    
C25   H17   S    
C9    N1    A    
C24   C25   S    
O3    Zn1   S    
C7    C8    S    
O4    Zn2   S    
C13   C14   S    
C17   O8    A    
N1    Zn2   S    
C16   O5    A    
N2    Zn1   S    
C6    C7    S    
C7    H13   S    
C10   N1    A    
C10   H3    S    
C7    C26   S    
C17   C19   S    
C17   O7    A    
C15   H7    S    
C18   C20   S    
O7    Zn1   S    
C9    C15   S    
C5    C6    A    
C21   H10   S    
C4    H12   S    
C26   H23   S    
C10   C11   A    
C1    O1    A    
C25   H16   S    
C9    C13   A    
C25   H15   S    
C6    C22   A    
O8    Zn2   S    
O6    Zn2   S    
C26   H22   S    
C23   H20   S    
C20   C21   D    
C3    C4    A    
C15   H8    S    
O1    Zn1   S    
C1    C2    S    
C8    H14   S    
C23   C24   S    
C3    H11   S    
O2    Zn2   S    
C18   C19   D    
C5    C16   S    
C12   O4    A    
C1    O2    A    
C14   H6    S    
C14   C15   S    
O5    Zn1   S    
C12   C21   S    
C16   O6    A    
C24   H19   S    
C13   N2    A    
C18   H1    S    
C4    C5    A    
C26   H24   S    
C20   H9    S    
