data_mof_unit_56847.cif
_audit_creation_date              2012-12-11T13:59:55-0500
_audit_creation_method            fapswitch 2.2
_symmetry_space_group_name_H-M    P1
_symmetry_Int_Tables_number       1
_space_group_crystal_system       triclinic
_cell_length_a                    11.205016
_cell_length_b                    11.187786
_cell_length_c                    19.268155
_cell_angle_alpha                 89.742643
_cell_angle_beta                  90.030967
_cell_angle_gamma                 119.724142
_cell_volume                      2097.60020057

loop_
_atom_site_label
_atom_site_type_symbol
_atom_type_description
_atom_site_fract_x
_atom_site_fract_y
_atom_site_fract_z
_atom_type_partial_charge
C1    C     C_R   0.545050 0.479238 0.852962 0.596589
C2    C     C_R   0.483826 0.545010 0.351020 0.524876
C3    C     C_R   0.116793 0.541545 0.360784 0.523217
C4    C     C_R   0.416412 0.868106 0.359048 0.537648
C5    C     C_2   0.019549 0.501342 0.584490 -0.098894
C6    C     C_2   0.542743 0.499119 0.569057 -0.101211
C7    C     C_2   0.481787 0.991487 0.578954 -0.101079
C8    C     C_2   0.429506 0.895885 0.433955 -0.103973
C9    C     C_2   0.526295 0.511998 0.417679 -0.101816
C10   C     C_2   0.069159 0.517513 0.433503 -0.102614
C11   C     C_2   0.092750 0.432222 0.476900 -0.014259
C12   C     C_R   0.522297 0.068084 0.853166 0.602111
C13   C     C_2   0.641773 0.608542 0.453687 0.004761
C14   C     C_2   0.333800 0.912735 0.471702 -0.009429
C15   C     C_2   0.358953 0.958289 0.545578 0.000072
C16   C     C_2   0.652198 0.598653 0.530188 -0.003688
C17   C     C_2   0.066480 0.422551 0.553904 0.005864
C18   C     C_2   0.006974 0.494413 0.916670 0.374701
C19   C     C_2   0.513892 0.507790 0.921294 0.372306
C20   C     C_2   0.492776 0.999935 0.918745 0.372541
C21   C     C_2   0.473535 0.976173 0.075672 0.352948
C22   C     C_2   0.513259 0.506727 0.078548 0.356538
C23   C     C_R   0.936090 0.456418 0.851158 0.599387
C24   C     C_2   0.033113 0.504487 0.073723 0.346769
C25   C     C_2   0.027896 0.600425 0.034046 0.417375
C26   C     C_2   0.410086 0.417768 0.037342 0.409547
C27   C     C_2   0.571653 0.975041 0.035963 0.399742
C28   C     C_2   0.590766 0.008671 0.961873 0.407946
C29   C     C_2   0.422025 0.405619 0.962107 0.414889
C30   C     C_2   0.994241 0.582955 0.959290 0.411929
C31   C     C_3   0.151972 0.346196 0.445970 -0.335112
C32   C     C_3   0.757010 0.738042 0.416194 -0.318824
C33   C     C_3   0.206066 0.902632 0.435585 -0.334117
C34   C     C_R   0.480903 0.544336 0.144374 0.588172
C35   C     C_3   0.249397 0.983453 0.581420 -0.324042
C36   C     C_3   0.787485 0.707059 0.565830 -0.329977
C37   C     C_3   0.082333 0.313725 0.596614 -0.322251
C38   C     C_R   0.071747 0.524082 0.145676 0.610482
C39   C     C_R   0.452537 0.930575 0.146360 0.604348
C40   C     C_R   0.557783 0.473753 0.643081 0.550089
C41   C     C_R   0.520860 0.069858 0.643684 0.535303
C42   C     C_R   0.938410 0.456573 0.649301 0.537252
Cr1   Cr    Cr6+3 0.464030 0.233680 0.750360 1.103518
Cr2   Cr    Cr6+3 0.766320 0.230350 0.750360 1.109793
Cr3   Cr    Cr6+3 0.769650 0.535970 0.750360 1.099684
Cr4   Cr    Cr6+3 0.233680 0.464030 0.249640 1.105895
Cr5   Cr    Cr6+3 0.230350 0.766320 0.249640 1.100133
Cr6   Cr    Cr6+3 0.535970 0.769650 0.249640 1.106549
F1    F     F_    0.033855 0.713231 0.065027 -0.484035
F2    F     F_    0.358847 0.940340 0.937571 -0.533279
F3    F     F_    0.597981 0.638555 0.944895 -0.516231
F4    F     F_    0.071484 0.420448 0.931961 -0.517666
F5    F     F_    0.286426 0.326897 0.065980 -0.491174
F6    F     F_    0.669806 0.954492 0.066340 -0.501440
F7    F     F_    0.718004 0.047206 0.935144 -0.501916
F8    F     F_    0.326197 0.284998 0.932822 -0.496292
F9    F     F_    0.943545 0.662847 0.934407 -0.494927
F10   F     F_    0.018611 0.383648 0.047963 -0.501319
F11   F     F_    0.644917 0.589433 0.056034 -0.515762
F12   F     F_    0.373285 0.000868 0.050531 -0.506456
H1    H     H_    0.021197 0.575652 0.451662 0.077851
H2    H     H_    0.862384 0.789569 0.436163 0.083298
H3    H     H_    0.780276 0.710554 0.364800 0.171745
H4    H     H_    0.724962 0.817431 0.412239 0.157123
H5    H     H_    0.115424 0.887675 0.465256 0.076893
H6    H     H_    0.238153 0.998666 0.404006 0.168779
H7    H     H_    0.155244 0.807427 0.404211 0.166979
H8    H     H_    0.145623 0.942752 0.561076 0.081300
H9    H     H_    0.222168 0.930067 0.632830 0.167955
H10   H     H_    0.289183 0.097423 0.584637 0.155539
H11   H     H_    0.870329 0.792906 0.537600 0.076715
H12   H     H_    0.453756 0.414098 0.440371 0.066261
H13   H     H_    0.764197 0.765027 0.605067 0.163220
H14   H     H_    0.840364 0.654915 0.588437 0.169226
H15   H     H_    0.173765 0.299642 0.585608 0.092557
H16   H     H_    0.110672 0.349603 0.651441 0.168216
H17   H     H_    0.983911 0.211151 0.593330 0.152655
H18   H     H_    0.519581 0.900196 0.456853 0.076351
H19   H     H_    0.563291 0.979461 0.556198 0.076130
H20   H     H_    0.444794 0.426785 0.546826 0.063718
H21   H     H_    0.025365 0.591170 0.559867 0.069180
H22   H     H_    0.170475 0.274667 0.478117 0.084007
H23   H     H_    0.082116 0.273315 0.405833 0.176074
H24   H     H_    0.255157 0.422302 0.427475 0.147756
O1    O     O_R   0.434100 0.092480 0.829780 -0.426907
O2    O     O_R   0.362730 0.477510 0.175360 -0.464845
O3    O     O_R   0.114780 0.637270 0.175360 -0.474274
O4    O     O_R   0.522490 0.885220 0.175360 -0.468743
O5    O     O_R   0.432250 0.092620 0.670380 -0.534701
O6    O     O_R   0.907380 0.339630 0.670380 -0.530940
O7    O     O_R   0.660370 0.567750 0.670380 -0.534649
O8    O     O_R   0.092620 0.432250 0.329620 -0.509175
O9    O     O_R   0.339630 0.907380 0.329620 -0.526813
O10   O     O_R   0.567750 0.660370 0.329620 -0.539217
O11   O     O_R   0.475790 0.362860 0.676880 -0.514356
O12   O     O_R   0.907520 0.341620 0.829780 -0.428231
O13   O     O_R   0.637140 0.112930 0.676880 -0.498665
O14   O     O_R   0.887070 0.524210 0.676880 -0.529424
O15   O     O_R   0.362860 0.475790 0.323120 -0.531752
O16   O     O_R   0.112930 0.637140 0.323120 -0.530402
O17   O     O_R   0.524210 0.887070 0.323120 -0.497178
O18   O     O_3   0.666667 0.333333 0.749450 -0.307540
O19   O     O_3   0.333333 0.666667 0.250550 -0.338503
O20   O     O_R   0.658380 0.565900 0.829780 -0.422663
O21   O     O_R   0.092480 0.434100 0.170220 -0.417531
O22   O     O_R   0.341620 0.907520 0.170220 -0.426835
O23   O     O_R   0.565900 0.658380 0.170220 -0.420830
O24   O     O_R   0.477510 0.362730 0.824640 -0.476360
O25   O     O_R   0.637270 0.114780 0.824640 -0.480063
O26   O     O_R   0.885220 0.522490 0.824640 -0.480128

loop_
_geom_bond_atom_site_label_1
_geom_bond_atom_site_label_2
_ccdc_geom_bond_type
C39   O22   A    
C41   O5    A    
C5    C42   S    
Cr4   O21   S    
C13   C32   S    
C9    H12   S    
C4    C8    S    
C14   C33   S    
C27   F6    S    
C33   H5    S    
Cr1   O5    S    
C31   H22   S    
Cr6   O10   S    
C12   O1    A    
C34   O23   A    
Cr3   O14   S    
C42   O14   A    
Cr6   O23   S    
C5    C17   D    
C30   F9    S    
C31   H23   S    
C23   O12   A    
C34   O2    A    
C9    C13   D    
C20   F2    S    
C6    H20   S    
C3    O16   A    
C35   H10   S    
Cr1   O11   S    
Cr6   O4    S    
C18   C30   D    
C36   H11   S    
Cr2   O25   S    
C7    C15   D    
C21   C27   D    
C11   C31   S    
C8    H18   S    
C39   O4    A    
C15   C35   S    
C12   O25   A    
C28   F7    S    
C33   H6    S    
C22   C34   S    
C1    C19   S    
Cr5   O19   S    
C18   F4    S    
C18   C23   S    
Cr1   O1    S    
C2    O10   A    
C24   C25   D    
C32   H4    S    
C21   F12   S    
Cr3   O18   S    
C22   F11   S    
Cr2   O18   S    
Cr3   O26   S    
C20   C28   D    
Cr6   O19   S    
C37   H17   S    
Cr5   O16   S    
C3    O8    A    
C42   O6    A    
Cr5   O3    S    
Cr2   O12   S    
Cr3   O20   S    
C5    H21   S    
Cr2   O13   S    
C24   C38   S    
C21   C39   S    
Cr5   O22   S    
C4    O17   A    
C12   C20   S    
Cr5   O9    S    
C17   C37   S    
C1    O20   A    
C36   H14   S    
C37   H16   S    
C2    O15   A    
C41   O13   A    
C10   H1    S    
C40   O11   A    
C19   C29   D    
C26   F5    S    
Cr2   O6    S    
C33   H7    S    
C7    H19   S    
C25   C30   S    
C23   O26   A    
C11   C17   S    
C8    C14   D    
C32   H3    S    
C29   F8    S    
Cr4   O19   S    
C38   O3    A    
Cr4   O15   S    
Cr1   O18   S    
C32   H2    S    
C3    C10   S    
C16   C36   S    
C35   H8    S    
C38   O21   A    
Cr6   O17   S    
C6    C40   S    
Cr1   O24   S    
C7    C41   S    
C40   O7    A    
C37   H15   S    
Cr3   O7    S    
C25   F1    S    
C10   C11   D    
C31   H24   S    
C1    O24   A    
C6    C16   D    
C4    O9    A    
C19   F3    S    
Cr4   O8    S    
C35   H9    S    
C26   C29   S    
C24   F10   S    
C22   C26   D    
C13   C16   S    
C27   C28   S    
C14   C15   S    
C2    C9    S    
C36   H13   S    
Cr4   O2    S    
