data_mof_unit_20504.cif
_audit_creation_date              2012-12-10T22:10:16-0500
_audit_creation_method            fapswitch 2.2
_symmetry_space_group_name_H-M    P1
_symmetry_Int_Tables_number       1
_space_group_crystal_system       triclinic
_cell_length_a                    16.417532
_cell_length_b                    16.607982
_cell_length_c                    28.44708
_cell_angle_alpha                 90.675142
_cell_angle_beta                  89.910101
_cell_angle_gamma                 90.080641
_cell_volume                      7755.8843743

loop_
_atom_site_label
_atom_site_type_symbol
_atom_type_description
_atom_site_fract_x
_atom_site_fract_y
_atom_site_fract_z
_atom_type_partial_charge
C1    C     C_R   0.616167 0.998723 0.561469 1.020618
C2    C     C_R   0.385078 0.001204 0.437218 0.950585
C3    C     C_R   0.923071 0.701271 0.121134 0.290998
C4    C     C_R   0.071610 0.256376 0.906968 0.288682
C5    C     C_R   0.054080 0.809810 0.124422 -0.368924
C6    C     C_R   0.948764 0.246221 0.838545 -0.366688
C7    C     C_R   0.056280 0.745455 0.092425 0.430758
C8    C     C_R   0.946829 0.308811 0.871735 0.427700
C9    C     C_R   0.928387 0.221682 0.142105 -0.270046
C10   C     C_R   0.068605 0.780909 0.858839 -0.268690
C11   C     C_R   0.927177 0.281395 0.108060 0.464850
C12   C     C_R   0.072291 0.717631 0.890700 0.475678
C13   C     C_R   0.251073 0.935238 0.335814 -0.365213
C14   C     C_R   0.728810 0.020581 0.675119 -0.338814
C15   C     C_R   0.311054 0.933933 0.370646 0.418278
C16   C     C_R   0.666372 0.022950 0.641992 0.393662
C17   C     C_R   0.809179 0.061022 0.376231 -0.281541
C18   C     C_R   0.249030 0.930045 0.661787 -0.329631
C19   C     C_R   0.746780 0.059073 0.410038 0.223875
C20   C     C_R   0.313266 0.932691 0.629549 0.200973
C21   C     C_3   0.001175 0.006339 0.247802 -0.001373
C22   C     C_3   0.997916 0.994320 0.752160 0.001003
C23   C     C_R   0.615325 0.000540 0.438133 0.916419
C24   C     C_R   0.385255 0.999504 0.562531 0.916997
C25   C     C_R   0.199918 0.001493 0.331902 -0.088038
C26   C     C_R   0.806457 0.994926 0.661925 -0.098460
C27   C     C_R   0.322181 0.002108 0.400278 -0.325342
C28   C     C_R   0.681881 0.997147 0.595701 -0.297827
C29   C     C_R   0.813373 0.002436 0.340975 -0.075489
C30   C     C_R   0.195509 0.994439 0.666086 -0.061161
C31   C     C_R   0.684452 0.999989 0.405194 -0.233280
C32   C     C_R   0.321556 0.999985 0.599466 -0.206776
C33   C     C_R   0.000112 0.205061 0.166193 0.087661
C34   C     C_R   0.995953 0.798068 0.835799 0.091450
C35   C     C_R   0.998564 0.326847 0.099336 -0.148365
C36   C     C_R   0.000775 0.673206 0.900616 -0.145560
C37   C     C_R   0.987694 0.819912 0.154370 -0.096772
C38   C     C_R   0.010464 0.189004 0.839733 -0.102208
C39   C     C_R   0.990407 0.690655 0.090658 -0.328630
C40   C     C_R   0.009030 0.314606 0.905882 -0.331503
C41   C     C_1   0.075541 0.000876 0.274659 -0.020256
C42   C     C_1   0.926705 0.998515 0.722360 -0.018060
C43   C     C_1   0.001654 0.079896 0.221086 0.002302
C44   C     C_1   0.993992 0.923032 0.780763 -0.023338
C45   C     C_R   0.208945 0.068693 0.361539 0.388824
C46   C     C_R   0.822574 0.967021 0.615758 0.404580
C47   C     C_1   0.933110 0.006298 0.280125 0.000321
C48   C     C_1   0.069977 0.990595 0.722874 0.012100
C49   C     C_1   0.994432 0.938635 0.215592 -0.018485
C50   C     C_1   0.002388 0.064858 0.782342 -0.005710
C51   C     C_1   0.134214 0.999274 0.299409 0.056390
C52   C     C_1   0.870315 0.998877 0.695767 0.041278
C53   C     C_1   0.989969 0.884050 0.187946 0.057490
C54   C     C_1   0.006471 0.122135 0.808073 0.052984
C55   C     C_1   0.001709 0.138513 0.197098 -0.038253
C56   C     C_1   0.993270 0.865106 0.805297 -0.034814
C57   C     C_1   0.878234 0.005142 0.307768 0.030593
C58   C     C_1   0.128315 0.990076 0.697666 0.026042
C59   C     C_R   0.993550 0.621427 0.058097 0.967974
C60   C     C_R   0.006389 0.380054 0.940944 0.963348
C61   C     C_R   0.999333 0.390397 0.063846 0.863490
C62   C     C_R   0.000603 0.609610 0.936129 0.911260
C63   C     C_R   0.272920 0.071082 0.394130 0.271322
C64   C     C_R   0.759429 0.969030 0.582057 0.300756
C65   C     C_R   0.756823 0.939724 0.338782 0.480715
C66   C     C_R   0.205622 0.063450 0.639071 0.490862
C67   C     C_R   0.689696 0.940372 0.369053 0.036833
C68   C     C_R   0.266658 0.065953 0.604746 0.029189
C69   C     C_R   0.070969 0.248922 0.157517 -0.163374
C70   C     C_R   0.925974 0.752821 0.844182 -0.169779
C71   C     C_R   0.070157 0.309880 0.124357 -0.286201
C72   C     C_R   0.928257 0.690731 0.876561 -0.260816
C73   C     C_R   0.920236 0.768452 0.151440 0.389115
C74   C     C_R   0.073660 0.194965 0.872706 0.397937
H1    H     H_    0.126935 0.235360 0.175930 0.150728
H2    H     H_    0.869437 0.766461 0.826373 0.144465
H3    H     H_    0.103841 0.852744 0.125509 0.175984
H4    H     H_    0.901890 0.242093 0.811836 0.173668
H5    H     H_    0.873668 0.187026 0.148858 0.151359
H6    H     H_    0.122162 0.817658 0.852803 0.150197
H7    H     H_    0.243972 0.884216 0.312065 0.173620
H8    H     H_    0.716814 0.039355 0.711090 0.174919
H9    H     H_    0.856558 0.106306 0.377658 0.175460
H10   H     H_    0.241298 0.877791 0.683860 0.161847
H11   H     H_    0.125700 0.343368 0.118104 0.177198
H12   H     H_    0.872994 0.656936 0.883081 0.182483
O1    O     O_R   0.588360 0.066690 0.547410 -0.629090
O2    O     O_R   0.411640 0.933310 0.452590 -0.588676
O3    O     O_R   0.586040 0.933310 0.452590 -0.633346
O4    O     O_R   0.413960 0.066690 0.547410 -0.634894
O5    O     O_R   0.587420 0.068270 0.453900 -0.616037
O6    O     O_R   0.412580 0.931730 0.546100 -0.590981
O7    O     O_R   0.586980 0.931730 0.546100 -0.618914
O8    O     O_R   0.413020 0.068270 0.453900 -0.589383
O9    O     O_R   0.063560 0.593880 0.045280 -0.595669
O10   O     O_R   0.936440 0.406120 0.954720 -0.602044
O11   O     O_R   0.931210 0.414910 0.046840 -0.577539
O12   O     O_R   0.068790 0.585090 0.953160 -0.570610
O13   O     O_R   0.067840 0.419730 0.049340 -0.640187
O14   O     O_R   0.932160 0.580270 0.950660 -0.629793
O15   O     O_R   0.926930 0.589050 0.042780 -0.577924
O16   O     O_R   0.073070 0.410950 0.957220 -0.585434
Zn1   Zn    Zn3+2 0.500930 0.090750 0.500880 0.938861
Zn2   Zn    Zn3+2 0.499070 0.909250 0.499120 0.943233
Zn3   Zn    Zn3+2 0.091890 0.503230 0.001680 0.961417
Zn4   Zn    Zn3+2 0.908110 0.496770 0.998320 0.971437
O17   O     O_3   0.282203 0.138162 0.422889 -0.605434
C75   C     C_3   0.324190 0.198345 0.397863 0.186276
H13   H     H_    0.286146 0.221774 0.368739 0.168562
H14   H     H_    0.382735 0.175082 0.383163 0.128723
C76   C     C_3   0.343563 0.267921 0.431243 -0.848644
H15   H     H_    0.382095 0.246520 0.460620 0.259638
H16   H     H_    0.376867 0.315716 0.412119 0.199981
H17   H     H_    0.286275 0.293567 0.445822 0.249443
O18   O     O_3   0.774025 0.953952 0.534601 -0.608121
C77   C     C_3   0.796603 0.872783 0.526773 0.171434
H18   H     H_    0.766525 0.830598 0.551679 0.104603
H19   H     H_    0.863690 0.867135 0.529177 0.185676
C78   C     C_3   0.773185 0.847166 0.477116 -0.894117
H20   H     H_    0.799482 0.889495 0.451229 0.257196
H21   H     H_    0.796948 0.785815 0.469491 0.197140
H22   H     H_    0.706036 0.845801 0.473626 0.274573
O19   O     O_3   0.766716 0.878019 0.306197 -0.600431
C79   C     C_3   0.805356 0.812966 0.328731 0.082812
H23   H     H_    0.761526 0.781694 0.352183 0.150364
H24   H     H_    0.859146 0.833020 0.349829 0.121315
C80   C     C_3   0.835605 0.753074 0.291910 -0.758219
H25   H     H_    0.883002 0.781858 0.269853 0.282571
H26   H     H_    0.862730 0.700078 0.309408 0.180988
H27   H     H_    0.784341 0.732448 0.269361 0.274572
O20   O     O_3   0.151600 0.126949 0.643836 -0.581211
C81   C     C_3   0.180808 0.179743 0.679308 0.098332
H28   H     H_    0.235032 0.213238 0.666392 0.142911
H29   H     H_    0.197448 0.147185 0.712008 0.119050
C82   C     C_3   0.114444 0.239960 0.692058 -0.805167
H30   H     H_    0.059980 0.207751 0.705512 0.260004
H31   H     H_    0.136839 0.282027 0.719801 0.193836
H32   H     H_    0.097133 0.275046 0.660624 0.260816
O21   O     O_3   0.853032 0.781611 0.179793 -0.610634
C83   C     C_3   0.794661 0.824786 0.153852 0.119944
H33   H     H_    0.769027 0.786310 0.125159 0.173835
H34   H     H_    0.821396 0.880389 0.138452 0.124718
C84   C     C_3   0.725453 0.850192 0.186319 -0.774986
H35   H     H_    0.748863 0.891696 0.214032 0.293026
H36   H     H_    0.677900 0.881860 0.165909 0.190290
H37   H     H_    0.697835 0.796524 0.202997 0.261275
O22   O     O_3   0.134312 0.137352 0.873765 -0.590068
C85   C     C_3   0.197574 0.161310 0.843267 0.133120
H38   H     H_    0.229308 0.215397 0.857819 0.162112
H39   H     H_    0.174343 0.174917 0.807395 0.117819
C86   C     C_3   0.258933 0.093210 0.838478 -0.828087
H40   H     H_    0.228820 0.038798 0.823434 0.256554
H41   H     H_    0.309267 0.111537 0.814753 0.196494
H42   H     H_    0.284601 0.078617 0.873454 0.263810
N1    N     N_2   0.628418 0.880791 0.361763 -0.293922
H43   H     H_    0.616555 0.843919 0.389795 0.240476
C87   C     C_3   0.557040 0.907917 0.336869 -0.650088
H44   H     H_    0.516936 0.855622 0.329002 0.254569
H45   H     H_    0.574968 0.935778 0.303059 0.231696
H46   H     H_    0.522529 0.952285 0.358543 0.228347
N2    N     N_2   0.268797 0.134524 0.575260 -0.292540
H47   H     H_    0.323073 0.165504 0.573891 0.238980
C88   C     C_3   0.227024 0.124678 0.530882 -0.634953
H48   H     H_    0.227956 0.182502 0.511713 0.248045
H49   H     H_    0.162487 0.107343 0.536913 0.238738
H50   H     H_    0.257210 0.077581 0.509034 0.239560
O23   O     O_3   0.858763 0.647405 0.120568 -0.577051
C89   C     C_3   0.873828 0.587597 0.154339 0.128715
H51   H     H_    0.870254 0.613771 0.190511 0.158262
H52   H     H_    0.934735 0.559148 0.149077 0.103142
C90   C     C_3   0.809718 0.521833 0.149628 -0.768514
H53   H     H_    0.812583 0.494100 0.113935 0.277304
H54   H     H_    0.820884 0.474467 0.176076 0.201642
H55   H     H_    0.748074 0.547571 0.155464 0.245936
O24   O     O_3   0.131939 0.260020 0.940806 -0.574047
C91   C     C_3   0.105751 0.215947 0.980225 0.161891
H56   H     H_    0.097845 0.151068 0.970900 0.159479
H57   H     H_    0.047354 0.240072 0.994516 0.086299
C92   C     C_3   0.169543 0.222757 0.018754 -0.800611
H58   H     H_    0.178463 0.286914 0.028955 0.263757
H59   H     H_    0.149194 0.188831 0.050080 0.204349
H60   H     H_    0.228338 0.197479 0.006135 0.252953
O25   O     O_3   0.118736 0.740062 0.059721 -0.560331
C93   C     C_3   0.192558 0.721683 0.082662 0.142184
H61   H     H_    0.184831 0.671350 0.107939 0.119890
H62   H     H_    0.216608 0.775624 0.101587 0.123062
C94   C     C_3   0.255125 0.695715 0.046051 -0.773223
H63   H     H_    0.264959 0.744701 0.020400 0.262252
H64   H     H_    0.313868 0.681923 0.063472 0.182170
H65   H     H_    0.233400 0.640995 0.027051 0.261522
O26   O     O_3   0.887915 0.368219 0.868864 -0.584992
C95   C     C_3   0.810741 0.335217 0.879502 0.138107
H66   H     H_    0.813112 0.295346 0.910764 0.128519
H67   H     H_    0.786819 0.300482 0.848839 0.127256
C96   C     C_3   0.751672 0.403344 0.890547 -0.819152
H68   H     H_    0.746516 0.443756 0.859866 0.251264
H69   H     H_    0.690609 0.378214 0.898683 0.195096
H70   H     H_    0.773527 0.438719 0.921431 0.258821
O27   O     O_3   0.855281 0.296467 0.084534 -0.596972
C97   C     C_3   0.848838 0.241896 0.046269 0.123330
H71   H     H_    0.840167 0.179316 0.059013 0.126318
H72   H     H_    0.903845 0.244211 0.023283 0.109517
C98   C     C_3   0.775472 0.264390 0.016647 -0.807578
H73   H     H_    0.783330 0.326096 0.002657 0.261653
H74   H     H_    0.769229 0.221310 0.986719 0.186399
H75   H     H_    0.719182 0.262307 0.038302 0.251791
O28   O     O_3   0.143502 0.704535 0.915395 -0.575131
C99   C     C_3   0.200922 0.667426 0.885162 0.116698
H76   H     H_    0.222768 0.710515 0.858239 0.124125
H77   H     H_    0.174655 0.613174 0.867290 0.126834
C100  C     C_3   0.273769 0.640503 0.913916 -0.802113
H78   H     H_    0.254128 0.595977 0.940479 0.251893
H79   H     H_    0.319835 0.612056 0.890443 0.195554
H80   H     H_    0.301872 0.693129 0.932105 0.251111
O29   O     O_3   0.364353 0.869581 0.372686 -0.598307
C101  C     C_3   0.322903 0.801417 0.389886 0.143911
H81   H     H_    0.279759 0.777195 0.363107 0.123653
H82   H     H_    0.289030 0.815883 0.422948 0.135155
C102  C     C_3   0.384865 0.736239 0.400700 -0.830025
H83   H     H_    0.428486 0.758396 0.427737 0.257628
H84   H     H_    0.353214 0.682053 0.414179 0.197142
H85   H     H_    0.419029 0.719480 0.368310 0.247830
O30   O     O_3   0.588066 0.043544 0.655473 -0.624395
C103  C     C_3   0.583427 0.127665 0.662395 0.132818
H86   H     H_    0.607939 0.160707 0.631516 0.146670
H87   H     H_    0.617480 0.146231 0.694544 0.134512
C104  C     C_3   0.494538 0.151284 0.668772 -0.858206
H88   H     H_    0.468255 0.120076 0.699621 0.254634
H89   H     H_    0.489755 0.217352 0.674525 0.200670
H90   H     H_    0.459178 0.134261 0.636911 0.260446
N3    N     N_2   0.746589 0.113442 0.449682 -0.264647
H91   H     H_    0.731655 0.087157 0.481211 0.267256
C105  C     C_3   0.808758 0.174899 0.454309 -0.783026
H92   H     H_    0.795232 0.213518 0.485476 0.239921
H93   H     H_    0.809231 0.214034 0.422918 0.240332
H94   H     H_    0.869289 0.146585 0.459466 0.240053
N4    N     N_2   0.369104 0.867143 0.627698 -0.288562
H95   H     H_    0.343878 0.812499 0.636706 0.214670
C106  C     C_3   0.445018 0.882325 0.651994 -0.706167
H96   H     H_    0.486333 0.830047 0.646977 0.223258
H97   H     H_    0.433745 0.891422 0.690227 0.225994
H98   H     H_    0.475618 0.936342 0.637685 0.277430
O31   O     O_3   0.157522 0.134058 0.356958 -0.604981
C107  C     C_3   0.093815 0.127269 0.390064 0.132402
H99   H     H_    0.117663 0.133733 0.426545 0.168492
H100  H     H_    0.061434 0.068458 0.386341 0.124955
C108  C     C_3   0.032394 0.194019 0.381816 -0.835423
H101  H     H_    0.005365 0.187262 0.346203 0.257400
H102  H     H_    0.983065 0.190849 0.408419 0.199006
H103  H     H_    0.062729 0.253670 0.384825 0.261498
O32   O     O_3   0.901526 0.949203 0.601675 -0.580792
C109  C     C_3   0.924538 0.872625 0.618585 0.079657
H104  H     H_    0.880394 0.825024 0.607792 0.094114
H105  H     H_    0.929328 0.872090 0.657434 0.153539
C110  C     C_3   0.007947 0.850943 0.598823 -0.814063
H106  H     H_    0.053592 0.896592 0.610183 0.270828
H107  H     H_    0.026898 0.791081 0.611881 0.200727
H108  H     H_    0.005875 0.848742 0.559819 0.242179

loop_
_geom_bond_atom_site_label_1
_geom_bond_atom_site_label_2
_ccdc_geom_bond_type
C16   C28   A    
C84   H37   S    
C66   C68   A    
C90   H53   S    
C110  H107  S    
C33   C55   S    
C87   H44   S    
C40   C60   S    
C5    C37   A    
C46   O32   S    
N1    C87   S    
C17   C29   A    
C22   C48   S    
C106  H96   S    
C83   C84   S    
C98   H73   S    
C19   C31   A    
C103  H86   S    
C30   C58   S    
C80   H26   S    
N2    H47   S    
C3    O23   S    
O32   C109  S    
C68   N2    S    
C77   H18   S    
C34   C56   S    
C90   H54   S    
C50   C54   T    
O12   Zn3   S    
C109  H105  S    
C88   H49   S    
C85   H39   S    
C97   C98   S    
C20   C32   A    
C60   O16   A    
C89   H52   S    
C78   H22   S    
C47   C57   T    
C8    O26   S    
O31   C107  S    
C13   H7    S    
C75   H13   S    
O16   Zn3   S    
C82   H31   S    
C9    H5    S    
C86   H42   S    
C103  H87   S    
C1    O1    A    
C69   C71   A    
C104  H88   S    
C94   H65   S    
O10   Zn4   S    
O9    Zn3   S    
O22   C85   S    
O2    Zn2   S    
C62   O12   A    
C19   N3    S    
C89   C90   S    
C22   C44   S    
C88   H48   S    
C77   H19   S    
C97   H71   S    
C65   C67   A    
C4    O24   S    
C1    C28   S    
C18   H10   S    
C86   H40   S    
C6    C38   A    
C2    O2    A    
C2    C27   S    
C18   C30   A    
C12   C36   A    
C105  H92   S    
C45   O31   S    
C4    C74   A    
C33   C69   A    
C32   C68   A    
O19   C79   S    
C37   C53   S    
C91   H57   S    
C22   C50   S    
C110  H108  S    
C35   C71   A    
O27   C97   S    
C87   H45   S    
C64   O18   S    
C71   H11   S    
N4    H95   S    
C92   H59   S    
C86   H41   S    
C9    C33   A    
C10   C34   A    
C13   C25   A    
C76   H17   S    
C61   O13   A    
C59   O9    A    
C36   C62   S    
C24   O6    A    
O7    Zn2   S    
C21   C49   S    
O1    Zn1   S    
N2    C88   S    
C78   H21   S    
C107  H99   S    
O13   Zn3   S    
C90   H55   S    
N1    H43   S    
C70   C72   A    
O28   C99   S    
C59   O15   A    
C95   C96   S    
C4    C40   A    
C74   O22   S    
C82   H30   S    
C88   H50   S    
C83   H33   S    
O30   C103  S    
N3    C105  S    
O5    Zn1   S    
C102  H83   S    
C5    C7    A    
C10   H6    S    
C34   C70   A    
C99   H76   S    
C6    C8    A    
C96   H68   S    
C73   O21   S    
C106  H97   S    
C1    O7    A    
O26   C95   S    
C46   C64   A    
C17   H9    S    
C23   C31   S    
C31   C67   A    
O29   C101  S    
C25   C51   S    
O25   C93   S    
O24   C91   S    
C42   C52   T    
C26   C52   S    
C102  H84   S    
C98   H74   S    
C20   N4    S    
C44   C56   T    
C15   C27   A    
C100  H78   S    
C38   C54   S    
C2    O8    A    
O17   C75   S    
C101  H81   S    
C39   C59   S    
C104  H90   S    
C23   O3    A    
C62   O14   A    
C108  H102  S    
C76   H16   S    
C14   C26   A    
C105  H93   S    
C30   C66   A    
C82   H32   S    
C10   C12   A    
C109  C110  S    
C21   C41   S    
O11   Zn4   S    
C60   O10   A    
C15   O29   S    
C89   H51   S    
C100  H79   S    
C29   C57   S    
O8    Zn1   S    
C87   H46   S    
N4    C106  S    
O3    Zn2   S    
C70   H2    S    
C14   C16   A    
C91   C92   S    
C14   H8    S    
C69   H1    S    
C63   O17   S    
C110  H106  S    
C103  C104  S    
C25   C45   A    
O23   C89   S    
C28   C64   A    
C79   H24   S    
C66   O20   S    
C38   C74   A    
C108  H103  S    
C43   C55   T    
O15   Zn4   S    
C84   H36   S    
C37   C73   A    
C77   C78   S    
C91   H56   S    
C76   H15   S    
C104  H89   S    
C12   O28   S    
C61   O11   A    
C101  H82   S    
C24   O4    A    
C18   C20   A    
C72   H12   S    
C78   H20   S    
C107  C108  S    
C29   C65   A    
C48   C58   T    
C80   H25   S    
C83   H34   S    
C67   N1    S    
C98   H75   S    
O14   Zn4   S    
C93   H62   S    
C75   C76   S    
C7    O25   S    
C101  C102  S    
C93   C94   S    
C95   H66   S    
C92   H60   S    
C13   C15   A    
C84   H35   S    
C80   H27   S    
C94   H63   S    
C85   C86   S    
C99   H77   S    
C102  H85   S    
O21   C83   S    
O18   C77   S    
C22   C42   S    
C75   H14   S    
C45   C63   A    
C35   C61   S    
C99   C100  S    
C49   C53   T    
C9    C11   A    
C11   C35   A    
C81   C82   S    
C17   C19   A    
C107  H100  S    
C81   H28   S    
C106  H98   S    
C23   O5    A    
C85   H38   S    
C65   O19   S    
C3    C73   A    
C105  H94   S    
C11   O27   S    
O4    Zn1   S    
C94   H64   S    
C6    H4    S    
O6    Zn2   S    
C3    C39   A    
C92   H58   S    
C96   H70   S    
C36   C72   A    
C100  H80   S    
C79   H23   S    
C81   H29   S    
C79   C80   S    
N3    H91   S    
C7    C39   A    
C27   C63   A    
C16   O30   S    
C93   H61   S    
C8    C40   A    
C21   C47   S    
C26   C46   A    
C5    H3    S    
C41   C51   T    
C97   H72   S    
C21   C43   S    
O20   C81   S    
C108  H101  S    
C95   H67   S    
C109  H104  S    
C96   H69   S    
C24   C32   S    
