data_mof_unit_33135.cif
_audit_creation_date              2012-12-11T14:08:35-0500
_audit_creation_method            fapswitch 2.2
_symmetry_space_group_name_H-M    P1
_symmetry_Int_Tables_number       1
_space_group_crystal_system       triclinic
_cell_length_a                    10.940503
_cell_length_b                    10.957352
_cell_length_c                    18.742478
_cell_angle_alpha                 89.910048
_cell_angle_beta                  88.84708
_cell_angle_gamma                 60.681139
_cell_volume                      1958.54297085

loop_
_atom_site_label
_atom_site_type_symbol
_atom_type_description
_atom_site_fract_x
_atom_site_fract_y
_atom_site_fract_z
_atom_type_partial_charge
C1    C     C_R   0.237163 0.644673 0.609137 0.549003
C2    C     C_2   0.795853 0.145475 0.700760 -0.017804
C3    C     C_2   0.182614 0.660066 0.682109 -0.129733
C4    C     C_R   0.650994 0.620510 0.602966 0.543884
C5    C     C_2   0.195576 0.661800 0.839082 -0.132172
C6    C     C_2   0.192278 0.560509 0.800269 -0.172858
C7    C     C_2   0.222394 0.546868 0.723311 -0.175032
C8    C     C_2   0.650823 0.646058 0.317354 -0.108072
C9    C     C_2   0.632245 0.666107 0.160173 -0.112408
C10   C     C_2   0.703839 0.547005 0.195769 -0.164067
C11   C     C_2   0.682887 0.538811 0.272117 -0.158667
C12   C     C_3   0.732875 0.523272 0.798420 -0.271653
C13   C     C_2   0.677176 0.133231 0.333414 -0.023528
C14   C     C_2   0.634224 0.167547 0.176509 -0.104633
C15   C     C_2   0.555978 0.132047 0.220833 -0.025615
C16   C     C_R   0.627813 0.228281 0.601755 0.544886
C17   C     C_2   0.583082 0.112068 0.298118 -0.139556
C18   C     C_2   0.330139 0.592559 0.319699 -0.104963
C19   C     C_2   0.169330 0.651594 0.179447 0.002184
C20   C     C_2   0.254377 0.700931 0.202155 -0.143237
C21   C     C_2   0.294712 0.700265 0.276361 -0.167543
C22   C     C_R   0.707110 0.098414 0.896030 0.541030
C23   C     C_3   0.685571 0.676684 0.816193 0.065163
C24   C     C_R   0.717503 0.685737 0.891241 0.537417
C25   C     C_R   0.119650 0.706221 0.907428 0.536638
C26   C     C_R   0.672809 0.107404 0.104807 0.552289
C27   C     C_R   0.692160 0.688985 0.094989 0.548561
C28   C     C_R   0.306076 0.613253 0.396413 0.596193
C29   C     C_R   0.094695 0.707752 0.112985 0.556779
C30   C     C_R   0.641851 0.620846 0.392699 0.538326
C31   C     C_R   0.622098 0.222022 0.397290 0.544690
C32   C     C_3   0.524924 0.764664 0.795099 -0.102790
C33   C     C_3   0.518740 0.769771 0.711273 -0.083728
C34   C     C_3   0.662068 0.649205 0.679303 0.045654
C35   C     C_3   0.776332 0.723953 0.770350 -0.218600
C36   C     C_3   0.430558 0.909435 0.832697 -0.252929
C37   C     C_3   0.359464 0.897977 0.902585 -0.284110
C38   C     C_3   0.310511 0.026619 0.950822 -0.419681
C39   C     C_3   0.963759 0.048974 0.805129 -0.210359
C40   C     C_3   0.009626 0.154546 0.828948 -0.297261
C41   C     C_3   0.954148 0.219905 0.902535 -0.390887
C42   C     C_3   0.914498 0.147131 0.655236 -0.227200
C43   C     C_3   0.973298 0.031317 0.598334 -0.275790
C44   C     C_3   0.039114 0.068428 0.535493 -0.437872
C45   C     C_3   0.779895 0.685440 0.691151 -0.256811
C46   C     C_3   0.432363 0.117876 0.192296 -0.226314
C47   C     C_3   0.309160 0.151866 0.244510 -0.335447
C48   C     C_3   0.177389 0.181065 0.204114 -0.466017
C49   C     C_3   0.823252 0.093085 0.304841 -0.257773
C50   C     C_3   0.938571 0.015825 0.359552 -0.274653
C51   C     C_3   0.056523 0.050719 0.348079 -0.454806
C52   C     C_3   0.133910 0.551996 0.220579 -0.245929
C53   C     C_3   0.026386 0.625061 0.281376 -0.296694
C54   C     C_3   0.010310 0.519270 0.327872 -0.428335
C55   C     C_3   0.480858 0.915494 0.678211 -0.238425
C56   C     C_3   0.700601 0.511644 0.720825 -0.240463
C57   C     C_3   0.325423 0.000587 0.658432 -0.302617
C58   C     C_3   0.274545 0.157633 0.659121 -0.469035
C59   C     C_2   0.677920 0.158812 0.670129 -0.125547
C60   C     C_2   0.700812 0.158755 0.824622 -0.126487
C61   C     C_2   0.814461 0.119925 0.779420 -0.014099
Cr1   Cr    Cr6+3 0.393010 0.398050 0.501480 0.983124
Cr2   Cr    Cr6+3 0.398820 0.707980 0.501630 0.959338
Cr3   Cr    Cr6+3 0.708140 0.393940 0.496850 0.965222
Cr4   Cr    Cr6+3 0.937950 0.938450 0.008940 0.978692
Cr5   Cr    Cr6+3 0.626180 0.937030 0.994750 0.962031
Cr6   Cr    Cr6+3 0.937790 0.625760 0.001410 0.988694
H1    H     H_    0.886158 0.673931 0.789093 0.136575
H2    H     H_    0.400935 0.027496 0.975434 0.205759
H3    H     H_    0.252542 0.124670 0.920313 0.124419
H4    H     H_    0.241251 0.024323 0.994315 0.118713
H5    H     H_    0.267102 0.888004 0.888466 0.163932
H6    H     H_    0.428761 0.802784 0.933129 0.175677
H7    H     H_    0.488473 0.967769 0.839731 0.197121
H8    H     H_    0.343785 0.977269 0.798425 0.124371
H9    H     H_    0.796899 0.424141 0.698032 0.133636
H10   H     H_    0.883520 0.593424 0.677131 0.132494
H11   H     H_    0.837960 0.277951 0.904343 0.166169
H12   H     H_    0.158956 0.490709 0.823942 0.147409
H13   H     H_    0.994201 0.138102 0.944146 0.176737
H14   H     H_    0.991470 0.295242 0.914440 0.131083
H15   H     H_    0.124501 0.100996 0.829414 0.136774
H16   H     H_    0.978953 0.238402 0.789259 0.140331
H17   H     H_    0.981178 0.970565 0.844051 0.207881
H18   H     H_    0.037131 0.980833 0.762674 0.082371
H19   H     H_    0.109322 0.107501 0.553406 0.124699
H20   H     H_    0.100335 0.973800 0.501976 0.177903
H21   H     H_    0.956170 0.152085 0.503448 0.170174
H22   H     H_    0.052633 0.936007 0.623922 0.171438
H23   H     H_    0.475540 0.700434 0.811306 0.108706
H24   H     H_    0.892529 0.008086 0.577518 0.162350
H25   H     H_    0.882791 0.249101 0.630774 0.188753
H26   H     H_    0.003663 0.135632 0.686074 0.107562
H27   H     H_    0.595665 0.220881 0.804697 0.081210
H28   H     H_    0.606409 0.134493 0.699598 0.070342
H29   H     H_    0.277255 0.441919 0.700558 0.152569
H30   H     H_    0.234253 0.727128 0.815255 0.083750
H31   H     H_    0.790098 0.455379 0.170341 0.143697
H32   H     H_    0.708435 0.436476 0.292541 0.143182
H33   H     H_    0.540889 0.754615 0.184507 0.092934
H34   H     H_    0.126015 0.763922 0.705479 0.083630
H35   H     H_    0.623964 0.750146 0.299076 0.088917
H36   H     H_    0.153173 0.261613 0.162587 0.145373
H37   H     H_    0.192014 0.083486 0.178271 0.151526
H38   H     H_    0.085846 0.222025 0.241444 0.138650
H39   H     H_    0.336636 0.062058 0.280745 0.150033
H40   H     H_    0.285277 0.245182 0.277355 0.164118
H41   H     H_    0.386129 0.194252 0.148285 0.177401
H42   H     H_    0.471763 0.010150 0.171086 0.173613
H43   H     H_    0.695577 0.212175 0.196092 0.072734
H44   H     H_    0.096757 0.024714 0.292330 0.149370
H45   H     H_    0.501215 0.108737 0.329949 0.144684
H46   H     H_    0.017369 0.163737 0.358720 0.149576
H47   H     H_    0.144298 0.989872 0.384106 0.163343
H48   H     H_    0.898107 0.042267 0.415150 0.175617
H49   H     H_    0.981409 0.901722 0.353421 0.161736
H50   H     H_    0.851380 0.023134 0.257301 0.148529
H51   H     H_    0.822775 0.190978 0.288930 0.138750
H52   H     H_    0.278804 0.798849 0.297559 0.143562
H53   H     H_    0.971956 0.460288 0.295862 0.157051
H54   H     H_    0.112138 0.444589 0.351461 0.166441
H55   H     H_    0.934068 0.575219 0.372056 0.167775
H56   H     H_    0.271155 0.771981 0.168059 0.130553
H57   H     H_    0.058634 0.685235 0.315747 0.180065
H58   H     H_    0.923136 0.699377 0.258705 0.162417
H59   H     H_    0.087711 0.505403 0.184919 0.164118
H60   H     H_    0.229719 0.459522 0.238016 0.130934
H61   H     H_    0.368254 0.487987 0.298972 0.105005
H62   H     H_    0.291163 0.191550 0.712165 0.139190
H63   H     H_    0.331563 0.182779 0.617401 0.191727
H64   H     H_    0.160975 0.217312 0.648048 0.127089
H65   H     H_    0.314061 0.967325 0.604277 0.186901
H66   H     H_    0.256871 0.979460 0.694843 0.146665
H67   H     H_    0.435214 0.744313 0.696976 0.146855
H68   H     H_    0.511335 0.975597 0.714341 0.135501
H69   H     H_    0.542025 0.903405 0.628199 0.150411
H70   H     H_    0.769262 0.772789 0.656911 0.101108
H71   H     H_    0.847498 0.460745 0.806076 0.143774
H72   H     H_    0.614610 0.485262 0.717750 0.123510
H73   H     H_    0.732681 0.839015 0.776079 0.120411
H74   H     H_    0.679757 0.481373 0.834045 0.108281
O1    O     O_R   0.507110 0.256280 0.580300 -0.536317
O2    O     O_R   0.837080 0.593860 0.915300 -0.537269
O3    O     O_R   0.064770 0.636080 0.932550 -0.493112
O4    O     O_R   0.280830 0.527190 0.577940 -0.488970
O5    O     O_R   0.068250 0.829200 0.092940 -0.525332
O6    O     O_R   0.799650 0.057040 0.080330 -0.497539
O7    O     O_R   0.586130 0.079760 0.077080 -0.538599
O8    O     O_R   0.627700 0.809630 0.066580 -0.517368
O9    O     O_R   0.816140 0.597180 0.075920 -0.516877
O10   O     O_R   0.045360 0.639170 0.081440 -0.507088
O11   O     O_3   0.833980 0.833750 0.001700 -0.232978
O12   O     O_R   0.524640 0.695370 0.425100 -0.516576
O13   O     O_R   0.261360 0.738990 0.584270 -0.545561
O14   O     O_R   0.532590 0.694780 0.574370 -0.510892
O15   O     O_R   0.744470 0.503750 0.577000 -0.537382
O16   O     O_R   0.698520 0.277230 0.571620 -0.503845
O17   O     O_R   0.498530 0.256920 0.419280 -0.541672
O18   O     O_R   0.272880 0.527780 0.428680 -0.508841
O19   O     O_R   0.252780 0.739630 0.423250 -0.547371
O20   O     O_R   0.735890 0.504390 0.415980 -0.520333
O21   O     O_R   0.690560 0.277820 0.422350 -0.509579
O22   O     O_3   0.499990 0.499990 0.499980 -0.264086
O23   O     O_R   0.089190 0.825870 0.932320 -0.557299
O24   O     O_R   0.819070 0.053960 0.931440 -0.508673
O25   O     O_R   0.607070 0.076440 0.916460 -0.538661
O26   O     O_R   0.647110 0.806550 0.917690 -0.513044

loop_
_geom_bond_atom_site_label_1
_geom_bond_atom_site_label_2
_ccdc_geom_bond_type
C33   C55   S    
C14   H43   S    
C38   H3    S    
C34   C56   S    
C56   H9    S    
C54   H53   S    
C18   C21   D    
C57   H65   S    
C1    O4    A    
C19   C20   D    
Cr6   O2    S    
C41   H13   S    
C6    H12   S    
C53   C54   S    
Cr2   O22   S    
C7    H29   S    
C12   C23   S    
C51   H46   S    
Cr5   O26   S    
C32   C36   S    
C36   C37   S    
C2    C42   S    
C39   H17   S    
Cr6   O11   S    
C3    C7    D    
C22   C60   S    
C5    C6    D    
C24   O2    A    
C55   H69   S    
C48   H37   S    
Cr4   O24   S    
C28   O19   A    
C12   H74   S    
C11   H32   S    
C50   H48   S    
C10   H31   S    
Cr1   O22   S    
C20   H56   S    
C18   H61   S    
C46   C47   S    
C22   O24   A    
C33   H67   S    
C30   O12   A    
C49   H50   S    
C47   C48   S    
Cr1   O4    S    
C46   H41   S    
Cr3   O16   S    
C23   C24   S    
Cr1   O17   S    
Cr4   O6    S    
C44   H20   S    
C9    C10   D    
Cr5   O7    S    
C2    C61   S    
C3    H34   S    
C54   H55   S    
C38   H2    S    
C27   O8    A    
Cr6   O9    S    
C40   H16   S    
C57   H66   S    
C1    O13   A    
C59   H28   S    
Cr2   O19   S    
Cr1   O1    S    
Cr3   O22   S    
C44   H19   S    
Cr6   O3    S    
C19   C52   S    
C32   H23   S    
C52   H60   S    
C50   C51   S    
C39   C61   S    
C4    C34   S    
C51   H47   S    
Cr5   O25   S    
Cr6   O10   S    
C41   H11   S    
C40   H15   S    
C24   O26   A    
C18   C28   S    
Cr2   O12   S    
Cr5   O8    S    
Cr3   O21   S    
C39   C40   S    
C56   H72   S    
C52   H59   S    
C2    C59   D    
C48   H36   S    
C28   O18   A    
C43   H24   S    
C60   C61   D    
C1    C3    S    
C16   C59   S    
C16   O1    A    
C43   C44   S    
Cr5   O11   S    
C37   C38   S    
C36   H8    S    
C35   H73   S    
C29   O10   A    
C48   H38   S    
C58   H64   S    
C47   H39   S    
C41   H14   S    
C45   H70   S    
C33   C34   S    
C34   C45   S    
C43   H22   S    
C14   C26   S    
C26   O7    A    
C12   C56   S    
C53   H58   S    
C13   C49   S    
C42   H26   S    
C40   C41   S    
C4    O15   A    
C54   H54   S    
C5    H30   S    
C27   O9    A    
C23   C35   S    
C55   C57   S    
C12   H71   S    
C46   H42   S    
C25   O3    A    
C42   C43   S    
C39   H18   S    
C35   C45   S    
C17   H45   S    
C29   O5    A    
C52   C53   S    
C9    C27   S    
C15   C17   S    
C37   H6    S    
C38   H4    S    
C36   H7    S    
C51   H44   S    
C42   H25   S    
C16   O16   A    
Cr1   O18   S    
C58   H62   S    
C13   C31   S    
Cr2   O13   S    
Cr3   O20   S    
C53   H57   S    
C5    C25   S    
C6    C7    S    
C9    H33   S    
Cr3   O15   S    
C47   H40   S    
C30   O20   A    
C13   C17   D    
C8    C30   S    
C23   C32   S    
Cr4   O11   S    
Cr2   O14   S    
C21   H52   S    
C19   C29   S    
C32   C33   S    
C57   C58   S    
C35   H1    S    
C58   H63   S    
C8    C11   D    
C55   H68   S    
Cr4   O23   S    
C50   H49   S    
C26   O6    A    
C31   O21   A    
C31   O17   A    
C10   C11   S    
C22   O25   A    
C49   H51   S    
C4    O14   A    
C20   C21   S    
C49   C50   S    
C37   H5    S    
C14   C15   D    
C45   H10   S    
C25   O23   A    
C15   C46   S    
Cr4   O5    S    
C44   H21   S    
C8    H35   S    
C60   H27   S    
