data_mof_unit_49175.cif
_audit_creation_date              2012-12-10T19:04:12-0500
_audit_creation_method            fapswitch 2.2
_symmetry_space_group_name_H-M    P1
_symmetry_Int_Tables_number       1
_space_group_crystal_system       triclinic
_cell_length_a                    10.621433
_cell_length_b                    10.847236
_cell_length_c                    9.593124
_cell_angle_alpha                 90.671342
_cell_angle_beta                  88.822739
_cell_angle_gamma                 91.152762
_cell_volume                      1104.72683488

loop_
_atom_site_label
_atom_site_type_symbol
_atom_type_description
_atom_site_fract_x
_atom_site_fract_y
_atom_site_fract_z
_atom_type_partial_charge
C1    C     C_R   0.496197 0.262606 0.499206 0.789177
C2    C     C_3   0.962690 0.475675 0.369229 -0.142868
C3    C     C_3   0.041773 0.389891 0.458757 -0.179412
C4    C     C_3   0.122285 0.501928 0.502736 0.028631
C5    C     C_R   0.465158 0.065867 0.621730 0.115355
C6    C     C_R   0.481198 0.129665 0.497340 -0.099009
C7    C     C_R   0.479083 0.062833 0.371030 -0.223550
C8    C     C_R   0.480427 0.934203 0.372305 -0.218875
C9    C     C_R   0.484376 0.871190 0.499786 -0.099584
C10   C     C_R   0.466828 0.938896 0.623364 0.132300
C11   C     C_3   0.537830 0.940154 0.756228 -0.496464
C12   C     C_R   0.259383 0.501125 0.501147 0.776552
C13   C     C_3   0.534745 0.079541 0.754322 -0.454027
C14   C     C_R   0.602320 0.543967 0.071634 0.248142
C15   C     C_R   0.407752 0.441430 0.077741 -0.094328
C16   C     C_R   0.407023 0.439570 0.929544 0.244079
C17   C     C_R   0.602629 0.542517 0.924494 0.179357
C18   C     C_3   0.660506 0.667587 0.915760 -0.506189
C19   C     C_3   0.657746 0.672087 0.074378 -0.071464
C20   C     C_R   0.497658 0.737807 0.500506 0.789919
C21   C     C_R   0.740530 0.499420 0.498843 0.777417
C22   C     C_3   0.036847 0.525746 0.630556 -0.141550
C23   C     C_3   0.954233 0.413547 0.586624 -0.155094
C24   C     C_3   0.877452 0.499397 0.497131 0.023913
C25   C     C_3   0.957806 0.611462 0.540972 -0.183388
C26   C     C_3   0.045430 0.587834 0.413156 -0.157401
Cu1   Cu    Cu3+1 0.499990 0.499980 0.640670 0.932629
Cu2   Cu    Cu3+1 0.500010 0.500020 0.359330 0.932163
H1    H     H_    0.913943 0.342001 0.657342 0.126581
H2    H     H_    0.634781 0.904535 0.742180 0.196252
H3    H     H_    0.475466 0.119516 0.839665 0.197926
H4    H     H_    0.629426 0.123781 0.739813 0.200380
H5    H     H_    0.332311 0.396769 0.136922 0.152819
H6    H     H_    0.756057 0.666215 0.866095 0.202418
H7    H     H_    0.591708 0.741376 0.118095 0.172551
H8    H     H_    0.067521 0.548681 0.737679 0.124864
H9    H     H_    0.920121 0.702126 0.574294 0.120022
H10   H     H_    0.085563 0.659410 0.342382 0.132478
H11   H     H_    0.929938 0.453847 0.262519 0.134081
H12   H     H_    0.483519 0.109277 0.271660 0.165041
H13   H     H_    0.480445 0.901249 0.843991 0.192508
N1    N     N_R   0.500800 0.500930 0.147930 -0.219744
N2    N     N_R   0.500800 0.500890 0.852020 -0.184993
O1    O     O_R   0.500000 0.319640 0.618810 -0.587911
O2    O     O_R   0.500010 0.319680 0.381230 -0.583126
O3    O     O_R   0.316850 0.499950 0.618770 -0.584351
O4    O     O_R   0.316860 0.499990 0.381190 -0.588425
O5    O     O_R   0.499990 0.680320 0.618770 -0.576315
O6    O     O_R   0.500000 0.680360 0.381190 -0.586447
O7    O     O_R   0.683140 0.500010 0.618810 -0.578506
O8    O     O_R   0.683150 0.500050 0.381230 -0.580244
C27   C     C_3   0.297968 0.371298 0.864765 -0.806980
H14   H     H_    0.326679 0.316069 0.772997 0.263464
H15   H     H_    0.254011 0.304303 0.938766 0.171864
H16   H     H_    0.224105 0.437213 0.839245 0.228003
H17   H     H_    0.594958 0.731795 0.869717 0.194530
C28   C     C_3   0.789143 0.681122 0.136451 -0.826530
H18   H     H_    0.781797 0.680962 0.251827 0.250105
H19   H     H_    0.848600 0.603623 0.099804 0.224994
H20   H     H_    0.835622 0.769289 0.104723 0.227524
H21   H     H_    0.079294 0.299161 0.425451 0.121788
H22   H     H_    0.484790 0.885189 0.273516 0.156947

loop_
_geom_bond_atom_site_label_1
_geom_bond_atom_site_label_2
_ccdc_geom_bond_type
Cu1   O5    S    
C4    C26   S    
C23   C24   S    
C17   N2    A    
Cu2   O4    S    
C20   O6    A    
Cu1   N2    S    
C4    C12   S    
C4    C22   S    
C9    C10   A    
C1    C6    S    
C9    C20   S    
C5    C13   S    
C14   C17   A    
Cu1   O7    S    
C18   H17   S    
C7    H12   S    
C3    H21   S    
C17   C18   S    
C24   C25   S    
C5    C10   A    
C2    C26   S    
C19   H7    S    
C14   N1    A    
C19   C28   S    
C11   C13   S    
C16   N2    A    
C1    O2    A    
C28   H18   S    
C20   O5    A    
C12   O4    A    
C15   C16   A    
C14   C19   S    
Cu1   O3    S    
Cu2   N1    S    
C21   O7    A    
C27   H16   S    
C27   H15   S    
C11   H13   S    
C6    C7    A    
C2    C3    S    
C18   H6    S    
C2    C24   S    
C5    C6    A    
Cu2   O8    S    
Cu2   O2    S    
C28   H19   S    
C21   O8    A    
C10   C11   S    
C3    C4    S    
C23   H1    S    
C7    C8    A    
C22   H8    S    
C27   H14   S    
C15   N1    A    
C12   O3    A    
C18   C19   S    
Cu2   O6    S    
C21   C24   S    
C8    H22   S    
Cu1   Cu2   S    
C22   C23   S    
C26   H10   S    
C28   H20   S    
C1    O1    A    
C25   H9    S    
C25   C26   S    
Cu1   O1    S    
C13   H4    S    
C3    C23   S    
C2    H11   S    
C13   H3    S    
C16   C27   S    
C11   H2    S    
C15   H5    S    
C8    C9    A    
C22   C25   S    
