data_mof_unit_32324.cif
_audit_creation_date              2012-12-11T16:08:52-0500
_audit_creation_method            fapswitch 2.2
_symmetry_space_group_name_H-M    P1
_symmetry_Int_Tables_number       1
_space_group_crystal_system       triclinic
_cell_length_a                    12.971242
_cell_length_b                    13.271188
_cell_length_c                    27.73909
_cell_angle_alpha                 94.970603
_cell_angle_beta                  89.893771
_cell_angle_gamma                 119.327758
_cell_volume                      4142.90944386

loop_
_atom_site_label
_atom_site_type_symbol
_atom_type_description
_atom_site_fract_x
_atom_site_fract_y
_atom_site_fract_z
_atom_type_partial_charge
C1    C     C_R   0.625786 0.898301 0.426289 0.542888
C2    C     C_R   0.247956 0.785205 0.292062 0.006107
C3    C     C_R   0.219368 0.775693 0.191903 0.012441
C4    C     C_R   0.600859 0.221427 0.440343 0.546048
C5    C     C_R   0.257603 0.705300 0.211567 -0.131148
C6    C     C_R   0.271269 0.709632 0.261514 -0.134426
C7    C     C_R   0.188417 0.759441 0.142790 -0.129515
C8    C     C_R   0.136424 0.819791 0.124344 -0.003700
C9    C     C_R   0.209778 0.942747 0.353805 -0.135515
C10   C     C_R   0.197346 0.940677 0.303539 0.010447
C11   C     C_R   0.217059 0.861825 0.272673 0.059830
C12   C     C_R   0.573511 0.260127 0.220235 -0.109218
C13   C     C_R   0.165977 0.015905 0.283489 -0.136982
C14   C     C_R   0.148654 0.009101 0.233353 -0.141231
C15   C     C_R   0.163985 0.927968 0.202757 0.008423
C16   C     C_R   0.275025 0.878463 0.424097 0.546225
C17   C     C_R   0.202298 0.856780 0.222380 0.060761
C18   C     C_R   0.132783 0.910081 0.153421 -0.137814
C19   C     C_R   0.238634 0.864885 0.373021 -0.002082
C20   C     C_R   0.680171 0.972462 0.347870 -0.124834
C21   C     C_R   0.674285 0.956653 0.297876 0.010292
C22   C     C_R   0.686090 0.927861 0.197644 0.028913
C23   C     C_R   0.562500 0.244947 0.269622 -0.099522
C24   C     C_R   0.719169 0.038101 0.221112 -0.118956
C25   C     C_R   0.715012 0.052586 0.271083 -0.145235
C26   C     C_R   0.712839 0.914483 0.149200 0.262582
C27   C     C_R   0.674647 0.801626 0.126812 0.011462
C28   C     C_R   0.627397 0.898264 0.564683 0.547672
C29   C     C_R   0.583959 0.763884 0.352140 -0.118944
C30   C     C_R   0.580103 0.745774 0.301520 0.030236
C31   C     C_R   0.627188 0.843555 0.274429 0.021285
C32   C     C_R   0.530390 0.632583 0.277715 0.276546
C33   C     C_R   0.537302 0.619757 0.227032 -0.115656
C34   C     C_R   0.660571 0.308888 0.302189 0.039147
C35   C     C_R   0.589342 0.717094 0.200736 -0.050919
C36   C     C_R   0.631970 0.829238 0.224108 0.007347
C37   C     C_R   0.606931 0.704026 0.151817 -0.185787
C38   C     C_R   0.636429 0.876840 0.375029 -0.013101
C39   C     C_R   0.739402 0.302045 0.652224 -0.133837
C40   C     C_R   0.601973 0.225925 0.578815 0.546922
C41   C     C_R   0.752622 0.322337 0.702790 0.011202
C42   C     C_R   0.771801 0.351985 0.804548 0.005477
C43   C     C_R   0.866813 0.359187 0.777855 -0.142535
C44   C     C_R   0.856767 0.343106 0.727251 -0.140996
C45   C     C_R   0.682896 0.338799 0.203081 0.033243
C46   C     C_R   0.782720 0.374415 0.854962 -0.137825
C47   C     C_R   0.688580 0.372942 0.880679 -0.004654
C48   C     C_R   0.544362 0.285553 0.655602 -0.112510
C49   C     C_R   0.553435 0.299058 0.705661 0.015694
C50   C     C_R   0.657526 0.316868 0.729537 0.064187
C51   C     C_R   0.457408 0.289337 0.732076 -0.150462
C52   C     C_R   0.271704 0.879439 0.563449 0.548832
C53   C     C_R   0.464474 0.297703 0.782321 -0.146584
C54   C     C_R   0.568601 0.318443 0.806518 0.005056
C55   C     C_R   0.665800 0.328304 0.780212 0.059060
C56   C     C_1   0.692273 0.363315 0.153173 -0.055209
C57   C     C_R   0.579381 0.336579 0.856626 -0.133257
C58   C     C_R   0.633437 0.279546 0.628742 0.005017
C59   C     C_1   0.222204 0.863033 0.610241 -0.012620
C60   C     C_R   0.079164 0.745671 0.718438 -0.099612
C61   C     C_R   0.064490 0.735751 0.768062 -0.103796
C62   C     C_R   0.232316 0.929294 0.785880 -0.104934
C63   C     C_R   0.246979 0.939215 0.736211 -0.107550
C64   C     C_1   0.631503 0.265853 0.393995 -0.015708
C65   C     C_R   0.170732 0.847258 0.702401 0.034453
C66   C     C_R   0.141618 0.827068 0.801886 0.035001
C67   C     C_1   0.648288 0.290237 0.352757 -0.057183
C68   C     C_1   0.124739 0.814902 0.852773 -0.058791
C69   C     C_1   0.193562 0.854251 0.651681 -0.057295
C70   C     C_1   0.101068 0.797599 0.894344 -0.014373
C71   C     C_1   0.647137 0.860711 0.609000 -0.007163
C72   C     C_R   0.710800 0.910334 0.733923 -0.159763
C73   C     C_R   0.721171 0.894311 0.782345 -0.120329
C74   C     C_R   0.663942 0.692731 0.759214 -0.090398
C75   C     C_R   0.651029 0.707725 0.710394 0.296401
C76   C     C_R   0.770261 0.386610 0.284991 -0.109683
C77   C     C_R   0.676326 0.817819 0.697785 0.044870
C78   C     C_1   0.701919 0.392522 0.112673 -0.011795
C79   C     C_R   0.697575 0.785653 0.795165 -0.008873
C80   C     C_1   0.710809 0.771387 0.845215 -0.053621
C81   C     C_1   0.661370 0.837143 0.648571 -0.015371
C82   C     C_1   0.725375 0.762716 0.887240 -0.006999
C83   C     C_R   0.066519 0.774006 0.078589 0.549069
C84   C     C_R   0.716714 0.441128 0.067235 0.548763
C85   C     C_R   0.719377 0.782485 0.080639 0.585451
C86   C     C_R   0.056764 0.766357 0.941258 0.538493
C87   C     C_R   0.710240 0.433214 0.929301 0.539020
C88   C     C_R   0.781290 0.401737 0.235569 -0.108477
C89   C     C_R   0.255648 0.785405 0.341796 -0.127689
C90   C     C_R   0.748593 0.754686 0.936884 0.563237
C91   C     C_3   0.899164 0.062761 0.138095 -0.094470
C92   C     C_3   0.385245 0.440986 0.283777 -0.129317
C93   C     C_3   0.495697 0.545068 0.673673 -0.121191
Cr1   Cr    Cr6+3 0.416430 0.829200 0.492370 1.028756
Cr2   Cr    Cr6+3 0.674630 0.087020 0.504170 1.022182
Cr3   Cr    Cr6+3 0.408920 0.083740 0.503490 1.025102
Cr4   Cr    Cr6+3 0.914010 0.832750 0.013970 1.022666
Cr5   Cr    Cr6+3 0.922310 0.578600 0.003000 1.019950
Cr6   Cr    Cr6+3 0.656280 0.574630 0.003870 1.019661
H1    H     H_    0.846881 0.435690 0.309725 0.113066
H2    H     H_    0.866031 0.463801 0.222799 0.116467
H3    H     H_    0.546041 0.691186 0.373971 0.167247
H4    H     H_    0.866921 0.401288 0.873583 0.131953
H5    H     H_    0.808472 0.297971 0.631527 0.122847
H6    H     H_    0.948852 0.377586 0.796092 0.112133
H7    H     H_    0.930497 0.347522 0.707273 0.110101
H8    H     H_    0.505759 0.333184 0.876455 0.134582
H9    H     H_    0.389588 0.290497 0.802255 0.110781
H10   H     H_    0.376451 0.274036 0.713853 0.100774
H11   H     H_    0.462371 0.269161 0.637912 0.128968
H12   H     H_    0.119887 0.064765 0.218632 0.094395
H13   H     H_    0.020502 0.673626 0.692693 0.122776
H14   H     H_    0.496501 0.211931 0.195622 0.113409
H15   H     H_    0.993590 0.656493 0.780076 0.119909
H16   H     H_    0.292013 0.000642 0.811661 0.115057
H17   H     H_    0.318917 0.017723 0.724172 0.119974
H18   H     H_    0.728939 0.995021 0.724663 0.123635
H19   H     H_    0.747822 0.966837 0.809814 0.130518
H20   H     H_    0.647258 0.608811 0.768927 0.127091
H21   H     H_    0.477403 0.183741 0.282446 0.120264
H22   H     H_    0.194397 0.692048 0.119960 0.131031
H23   H     H_    0.151859 0.077761 0.306602 0.107931
H24   H     H_    0.281165 0.726771 0.356009 0.142187
H25   H     H_    0.272238 0.643708 0.188488 0.109502
H26   H     H_    0.297649 0.652267 0.276289 0.112242
H27   H     H_    0.095544 0.959060 0.138805 0.114695
H28   H     H_    0.927718 0.999117 0.146338 0.112855
H29   H     H_    0.921480 0.127681 0.169892 0.093650
H30   H     H_    0.952172 0.109791 0.107932 0.145877
H31   H     H_    0.409564 0.389799 0.257012 0.124259
H32   H     H_    0.323442 0.465006 0.266871 0.093186
H33   H     H_    0.337074 0.383860 0.312327 0.142477
H34   H     H_    0.199220 0.005736 0.377785 0.123636
H35   H     H_    0.449656 0.593751 0.664832 0.119422
H36   H     H_    0.465437 0.506088 0.708445 0.110669
H37   H     H_    0.469941 0.472840 0.644705 0.143425
H38   H     H_    0.714851 0.059690 0.365692 0.136197
H39   H     H_    0.752389 0.114027 0.201338 0.154315
H40   H     H_    0.746979 0.139221 0.288915 0.118833
H41   H     H_    0.577802 0.617310 0.134489 0.143367
H42   H     H_    0.507591 0.534540 0.208194 0.107004
O1    O     O_R   0.296680 0.802170 0.437540 -0.522130
O2    O     O_R   0.637200 0.461990 0.052510 -0.515534
O3    O     O_R   0.664790 0.681920 0.057970 -0.510605
O4    O     O_R   0.525380 0.838530 0.443500 -0.502390
O5    O     O_R   0.815840 0.852920 0.961840 -0.498429
O6    O     O_R   0.012100 0.822630 0.963670 -0.512433
O7    O     O_R   0.037010 0.668460 0.953040 -0.508819
O8    O     O_R   0.813390 0.478970 0.949660 -0.504303
O9    O     O_R   0.632250 0.456930 0.945520 -0.525581
O10   O     O_R   0.660200 0.677230 0.958780 -0.489121
O11   O     O_3   0.830870 0.661990 0.006950 -0.268775
O12   O     O_R   0.662610 0.183990 0.557860 -0.500785
O13   O     O_R   0.702130 0.995190 0.446810 -0.516485
O14   O     O_R   0.661770 0.181390 0.458760 -0.502750
O15   O     O_R   0.499820 0.198480 0.455280 -0.503080
O16   O     O_R   0.311660 0.976250 0.449080 -0.499728
O17   O     O_R   0.297580 0.804960 0.544440 -0.505876
O18   O     O_R   0.526220 0.841130 0.542590 -0.492811
O19   O     O_R   0.703030 0.997990 0.553710 -0.508972
O20   O     O_3   0.777599 0.010249 0.123767 -0.553603
O21   O     O_3   0.487907 0.538700 0.305519 -0.569704
O22   O     O_3   0.619652 0.616612 0.674920 -0.557502
O23   O     O_R   0.500730 0.201280 0.562180 -0.521066
O24   O     O_R   0.312500 0.978850 0.548170 -0.495709
O25   O     O_3   0.499990 0.999990 0.500010 -0.248488
O26   O     O_R   0.820790 0.857990 0.068830 -0.483160
O27   O     O_R   0.016700 0.827330 0.062850 -0.510381
O28   O     O_R   0.041970 0.673520 0.060040 -0.513807
O29   O     O_R   0.817980 0.483660 0.048840 -0.487648

loop_
_geom_bond_atom_site_label_1
_geom_bond_atom_site_label_2
_ccdc_geom_bond_type
C15   C18   A    
C66   C68   S    
C63   C65   A    
Cr1   O18   S    
C8    C83   S    
Cr4   O5    S    
C1    O4    A    
C35   C36   A    
C93   H37   S    
C86   O6    A    
Cr1   O25   S    
C88   H2    S    
C39   H5    S    
C39   C41   A    
Cr5   O11   S    
C53   C54   A    
C74   H20   S    
C21   C31   A    
C5    H25   S    
C26   C27   A    
C72   C77   A    
C91   H28   S    
C60   H13   S    
C5    C6    A    
Cr6   O2    S    
C25   H40   S    
C40   O23   A    
C3    C7    A    
C42   C46   A    
C30   C31   A    
C42   C55   A    
C4    O15   A    
C93   O22   S    
C28   O19   A    
C56   C78   T    
C75   O22   S    
C43   H6    S    
C27   C85   S    
C46   C47   A    
Cr5   O28   S    
C61   C66   A    
C9    C19   A    
C45   C56   S    
C49   C51   A    
C37   H41   S    
C32   O21   S    
C72   H18   S    
C29   C30   A    
C9    C10   A    
C76   C88   A    
Cr2   O14   S    
Cr1   O4    S    
Cr3   O16   S    
C83   O27   A    
Cr1   O17   S    
C13   C14   A    
Cr4   O6    S    
C2    C6    A    
C7    H22   S    
C2    C11   A    
C85   O3    A    
C52   O17   A    
C14   H12   S    
Cr6   O9    S    
C40   C58   S    
C91   H29   S    
C62   C66   A    
Cr2   O19   S    
C85   O26   A    
C64   C67   T    
Cr6   O3    S    
C7    C8    A    
C92   H32   S    
C24   C25   A    
C80   C82   T    
C93   H35   S    
C74   C75   A    
C23   H21   S    
C12   C45   A    
C89   H24   S    
C84   O2    A    
C24   H39   S    
Cr4   O26   S    
C39   C58   A    
Cr6   O10   S    
C87   O9    A    
C28   O18   A    
C8    C18   A    
Cr3   O23   S    
C90   O10   A    
C60   C61   A    
Cr2   O12   S    
Cr1   O1    S    
C20   H38   S    
C29   C38   A    
C2    C89   A    
C16   O1    A    
C43   C44   A    
C62   C63   A    
C19   C89   A    
C52   C59   S    
C52   O24   A    
C47   C57   A    
C20   C38   A    
C12   C23   A    
C77   C81   S    
C23   C34   A    
C45   C88   A    
C14   C15   A    
C73   C79   A    
C75   C77   A    
C1    C38   S    
C59   C69   T    
C63   H17   S    
C48   C49   A    
C57   H8    S    
C60   C65   A    
C74   C79   A    
C87   O8    A    
C41   C44   A    
Cr3   O25   S    
C40   O12   A    
C28   C71   S    
C42   C43   A    
C70   C86   S    
Cr2   O25   S    
C41   C50   A    
C12   H14   S    
Cr6   O11   S    
C92   O21   S    
C15   C17   A    
C21   C25   A    
C54   C55   A    
C11   C17   A    
C93   H36   S    
C73   H19   S    
C35   C37   A    
C16   O16   A    
C31   C36   A    
C46   H4    S    
C9    H34   S    
C6    H26   S    
C72   C73   A    
C3    C5    A    
C10   C13   A    
C86   O7    A    
C34   C67   S    
C48   C58   A    
C91   H30   S    
C44   H7    S    
C76   H1    S    
Cr4   O27   S    
C22   C36   A    
C92   H33   S    
C4    C64   S    
C26   O20   S    
C84   O29   A    
C50   C55   A    
C82   C90   S    
Cr2   O13   S    
C33   H42   S    
C32   C33   A    
C51   H10   S    
C62   H16   S    
C90   O5    A    
C18   H27   S    
C30   C32   A    
C13   H23   S    
C53   H9    S    
Cr3   O15   S    
Cr5   O7    S    
C27   C37   A    
C16   C19   S    
C65   C69   S    
C83   O28   A    
C33   C35   A    
Cr4   O11   S    
C29   H3    S    
C3    C17   A    
C22   C24   A    
C1    O13   A    
C10   C11   A    
C79   C80   S    
Cr5   O29   S    
C78   C84   S    
C4    O14   A    
C20   C21   A    
C68   C70   T    
C49   C50   A    
C22   C26   A    
C61   H15   S    
C92   H31   S    
C91   O20   S    
Cr3   O24   S    
C51   C53   A    
C48   H11   S    
Cr5   O8    S    
C34   C76   A    
C71   C81   T    
C54   C57   A    
C47   C87   S    
