data_mof_unit_63744.cif
_audit_creation_date              2012-12-10T17:16:45-0500
_audit_creation_method            fapswitch 2.2
_symmetry_space_group_name_H-M    P1
_symmetry_Int_Tables_number       1
_space_group_crystal_system       triclinic
_cell_length_a                    18.927784
_cell_length_b                    18.912513
_cell_length_c                    18.834311
_cell_angle_alpha                 109.090511
_cell_angle_beta                  109.637197
_cell_angle_gamma                 109.829416
_cell_volume                      5180.73035675

loop_
_atom_site_label
_atom_site_type_symbol
_atom_type_description
_atom_site_fract_x
_atom_site_fract_y
_atom_site_fract_z
_atom_type_partial_charge
C1    C     C_R   0.618729 0.120541 0.001595 0.745748
C2    C     C_R   0.817080 0.244784 0.998344 -0.155840
C3    C     C_R   0.809479 0.315064 0.996202 -0.100882
C4    C     C_R   0.738673 0.324299 0.997687 -0.043271
C5    C     C_R   0.675194 0.260848 0.000920 -0.044244
C6    C     C_R   0.684978 0.190609 0.003798 -0.095902
C7    C     C_R   0.518698 0.755374 0.830994 -0.159564
C8    C     C_R   0.520089 0.692045 0.768401 -0.032904
C9    C     C_R   0.499479 0.688128 0.686908 -0.173923
C10   C     C_R   0.479219 0.748977 0.670214 -0.042048
C11   C     C_R   0.478887 0.811484 0.734854 -0.183943
C12   C     C_R   0.500020 0.117318 0.118798 0.917526
C13   C     C_R   0.498510 0.814805 0.814549 -0.051103
C14   C     C_R   0.320711 0.824883 0.080962 -0.062811
C15   C     C_R   0.258341 0.758321 0.081040 -0.069433
C16   C     C_R   0.186648 0.685893 0.000782 -0.102015
C17   C     C_R   0.179145 0.677705 0.920769 -0.092207
C18   C     C_R   0.244884 0.741139 0.921017 -0.107456
C19   C     C_R   0.314508 0.815081 0.000934 -0.108797
C20   C     C_R   0.618764 0.500699 0.619369 0.807394
C21   C     C_R   0.496376 0.385071 0.381821 0.830660
C22   C     C_R   0.381201 0.503488 0.384718 0.774220
C23   C     C_R   0.381372 0.881762 0.000504 0.909388
C24   C     C_R   0.499406 0.621328 0.620474 0.884985
C25   C     C_R   0.883139 0.502521 0.881588 0.846135
C26   C     C_R   0.879479 0.381287 0.998396 0.721038
C27   C     C_R   0.118615 0.499511 0.118185 0.814913
C28   C     C_R   0.119040 0.618762 0.000275 0.939312
C29   C     C_R   0.756255 0.578760 0.755773 -0.188691
C30   C     C_R   0.823607 0.582800 0.820399 0.001143
C31   C     C_R   0.818409 0.504333 0.814124 -0.058144
C32   C     C_R   0.748650 0.424673 0.742108 -0.166834
C33   C     C_R   0.682357 0.420836 0.676155 -0.041372
C34   C     C_R   0.499438 0.881625 0.881588 0.826555
C35   C     C_R   0.686039 0.499141 0.684429 -0.077603
C36   C     C_R   0.321635 0.500203 0.243892 -0.094135
C37   C     C_R   0.257281 0.499577 0.178474 -0.017907
C38   C     C_R   0.185253 0.499515 0.185761 -0.193255
C39   C     C_R   0.176314 0.499182 0.257275 -0.068945
C40   C     C_R   0.240840 0.500122 0.322981 -0.018085
C41   C     C_R   0.313736 0.501938 0.316420 -0.159081
C42   C     C_2   0.431353 0.233052 0.265833 -0.062128
C43   C     C_2   0.483399 0.319665 0.303373 -0.364558
C44   C     C_2   0.426571 0.175134 0.187463 -0.138057
C45   C     C_2   0.500972 0.179651 0.190349 -0.209365
C46   C     C_R   0.755991 0.183720 0.003251 -0.143872
Cu1   Cu    Cu3+1 0.438200 0.000380 0.938580 1.063314
Cu2   Cu    Cu3+1 0.561800 0.999620 0.061420 1.053229
Cu3   Cu    Cu3+1 0.438220 0.441470 0.503160 1.056415
Cu4   Cu    Cu3+1 0.561830 0.565070 0.503150 1.043510
Cu5   Cu    Cu3+1 0.999900 0.438590 0.938490 1.042013
Cu6   Cu    Cu3+1 0.999930 0.561410 0.061340 1.070668
H1    H     H_    0.463431 0.858306 0.723361 0.194098
H2    H     H_    0.758876 0.638416 0.760400 0.153790
H3    H     H_    0.746226 0.365154 0.737576 0.187395
H4    H     H_    0.516510 0.344142 0.272103 0.169306
H5    H     H_    0.763092 0.129593 0.004595 0.154285
H6    H     H_    0.871757 0.238243 0.998216 0.153394
H7    H     H_    0.534521 0.759255 0.893577 0.191110
O1    O     O_R   0.537990 0.090490 0.948120 -0.595443
O2    O     O_R   0.642390 0.554900 0.592760 -0.581084
O3    O     O_R   0.447840 0.361480 0.413570 -0.551424
O4    O     O_R   0.552220 0.465860 0.413560 -0.591558
O5    O     O_R   0.357660 0.451630 0.413550 -0.603003
O6    O     O_R   0.462040 0.556010 0.413540 -0.554034
O7    O     O_R   0.447820 0.540680 0.592750 -0.568954
O8    O     O_R   0.552200 0.645050 0.592740 -0.561108
O9    O     O_R   0.909730 0.448730 0.858460 -0.579813
O10   O     O_R   0.909750 0.552440 0.962210 -0.570177
O11   O     O_R   0.909720 0.357980 0.948050 -0.581730
O12   O     O_R   0.642370 0.089850 0.051860 -0.571582
O13   O     O_R   0.909750 0.461690 0.051790 -0.594154
O14   O     O_R   0.090070 0.447560 0.037620 -0.586423
O15   O     O_R   0.090100 0.551270 0.141360 -0.559044
O16   O     O_R   0.090070 0.538310 0.948030 -0.575002
O17   O     O_R   0.090100 0.642020 0.051770 -0.545498
O18   O     O_R   0.447800 0.089920 0.037730 -0.581885
O19   O     O_R   0.552180 0.089280 0.141460 -0.536876
O20   O     O_R   0.357630 0.910150 0.948140 -0.558584
O21   O     O_R   0.462010 0.909510 0.051880 -0.575845
O22   O     O_R   0.447820 0.910720 0.858540 -0.572320
O23   O     O_R   0.552200 0.910080 0.962270 -0.600155
O24   O     O_R   0.538000 0.450530 0.592770 -0.567958
C47   C     C_2   0.385693 0.189945 0.303026 0.487681
H8    H     H_    0.318741 0.137379 0.261130 0.078104
O25   O     O_2   0.424288 0.207612 0.378457 -0.526012
C48   C     C_2   0.546645 0.633834 0.792418 0.851525
O26   O     O_2   0.585832 0.605861 0.762754 -0.618455
O27   O     O_R   0.529338 0.613449 0.851944 -0.731400
H9    H     H_    0.551271 0.574274 0.863993 0.355076
C49   C     C_2   0.457013 0.749721 0.586688 0.854865
O28   O     O_2   0.426978 0.683982 0.519024 -0.626677
O29   O     O_R   0.468689 0.826263 0.585240 -0.742580
H10   H     H_    0.450718 0.818787 0.524939 0.356012
C50   C     C_2   0.392695 0.903946 0.165385 0.380026
H11   H     H_    0.423733 0.898282 0.221624 0.078156
O30   O     O_2   0.415795 0.976143 0.173709 -0.525773
C51   C     C_2   0.268850 0.766067 0.165860 0.394345
H12   H     H_    0.290370 0.827929 0.219229 0.068758
O31   O     O_2   0.256702 0.704414 0.177880 -0.498113
C52   C     C_2   0.102724 0.602675 0.836429 0.919648
O32   O     O_2   0.029268 0.587302 0.820413 -0.562504
O33   O     O_R   0.115167 0.550056 0.775547 -0.724506
H13   H     H_    0.058410 0.501413 0.720822 0.348847
C53   C     C_2   0.240788 0.729820 0.837385 0.913883
O34   O     O_2   0.301836 0.732320 0.827036 -0.591425
O35   O     O_R   0.167050 0.716133 0.770763 -0.721791
H14   H     H_    0.171987 0.709208 0.717228 0.351485
C54   C     C_2   0.898459 0.670287 0.890143 0.416269
H15   H     H_    0.889957 0.726268 0.903421 0.064685
O36   O     O_2   0.970845 0.681927 0.930427 -0.510693
C55   C     C_2   0.612689 0.335419 0.597931 0.419080
H16   H     H_    0.568713 0.331502 0.540369 0.113710
O37   O     O_2   0.604194 0.267856 0.596335 -0.501223
C56   C     C_2   0.396281 0.496339 0.235934 0.483499
H17   H     H_    0.419622 0.456996 0.255526 0.053235
O38   O     O_2   0.434001 0.539033 0.210282 -0.491631
C57   C     C_2   0.264651 0.497214 0.101604 0.951985
O39   O     O_2   0.266308 0.554532 0.084401 -0.546872
O40   O     O_R   0.269671 0.429185 0.049164 -0.732949
H18   H     H_    0.274527 0.434656 0.998996 0.352580
C58   C     C_2   0.098408 0.496613 0.261850 0.514500
H19   H     H_    0.034418 0.453872 0.204101 0.040572
O41   O     O_2   0.105522 0.544625 0.328931 -0.484103
C59   C     C_2   0.232337 0.498292 0.398391 0.507451
H20   H     H_    0.288282 0.539226 0.463546 0.093297
O42   O     O_2   0.163744 0.448228 0.387840 -0.505691
C60   C     C_2   0.337665 0.108866 0.111833 0.880950
O43   O     O_2   0.319041 0.034112 0.069486 -0.551695
O44   O     O_R   0.273597 0.131811 0.092655 -0.755916
H21   H     H_    0.215255 0.081527 0.041238 0.343672
C61   C     C_2   0.587414 0.239144 0.272406 0.397055
H22   H     H_    0.592189 0.261827 0.335608 0.110367
O45   O     O_2   0.654617 0.262895 0.269746 -0.516998
C62   C     C_2   0.732225 0.399951 0.995510 0.500543
H23   H     H_    0.749551 0.422720 0.954580 0.039491
O46   O     O_2   0.711469 0.439748 0.042083 -0.484764
C63   C     C_2   0.598996 0.266807 0.001712 0.503755
H24   H     H_    0.576235 0.249809 0.042742 0.054780
O47   O     O_2   0.558772 0.286820 0.953927 -0.487627

loop_
_geom_bond_atom_site_label_1
_geom_bond_atom_site_label_2
_ccdc_geom_bond_type
C16   C28   S    
C48   O26   D    
C25   C31   S    
O29   H10   S    
C26   O13   A    
C50   H11   S    
Cu1   O20   S    
C60   O43   D    
C55   O37   D    
C5    C63   S    
C2    C46   A    
C53   O35   S    
C1    O12   A    
C39   C58   S    
C36   C37   A    
C47   O25   D    
Cu6   O15   S    
C54   O36   D    
C30   C31   A    
C22   C41   S    
C16   C17   A    
C29   H2    S    
C27   C38   S    
C15   C16   A    
C18   C19   A    
Cu2   O19   S    
C20   O2    A    
C17   C52   S    
C57   O39   D    
Cu6   O10   S    
C24   O8    A    
Cu1   O1    S    
C21   C43   S    
C20   C35   S    
C37   C57   S    
C31   C32   A    
C8    C9    A    
C56   O38   D    
C12   O19   A    
O35   H14   S    
Cu5   O11   S    
C23   O21   A    
C27   O15   A    
Cu4   O8    S    
C32   H3    S    
C11   H1    S    
C24   O7    A    
C52   O33   S    
Cu3   O5    S    
Cu4   O4    S    
C36   C41   A    
C25   O9    A    
C42   C44   S    
C7    H7    S    
C55   H16   S    
C38   C39   A    
Cu3   O7    S    
C30   C54   S    
C1    C6    S    
C52   O32   D    
C62   H23   S    
C42   C47   S    
C47   H8    S    
C63   H24   S    
C1    O1    A    
C49   O28   D    
C61   H22   S    
C22   O5    A    
Cu5   Cu6   S    
C19   C23   S    
C22   O6    A    
C37   C38   A    
Cu6   O13   S    
C49   O29   S    
Cu1   Cu2   S    
C12   O18   A    
C50   O30   D    
C17   C18   A    
C33   C55   S    
C21   O3    A    
C63   O47   D    
C4    C62   S    
C40   C41   A    
C34   O22   A    
C10   C49   S    
Cu3   Cu4   S    
C51   O31   D    
C48   O27   S    
C46   H5    S    
C59   H20   S    
C26   O11   A    
C25   O10   A    
C42   C43   D    
Cu1   O18   S    
C15   C51   S    
C58   O41   D    
C3    C4    A    
C28   O17   A    
C14   C50   S    
C39   C40   A    
O40   H18   S    
C9    C10   A    
C62   O46   D    
C44   C60   S    
Cu3   O3    S    
C6    C46   A    
C14   C19   A    
C3    C26   S    
C44   C45   D    
Cu5   O14   S    
Cu5   O16   S    
C4    C5    A    
Cu6   O17   S    
C60   O44   S    
C2    H6    S    
C9    C24   S    
C12   C45   S    
C53   O34   D    
C29   C35   A    
C8    C48   S    
C32   C33   A    
Cu2   O21   S    
C2    C3    A    
C58   H19   S    
C18   C53   S    
C13   C34   S    
C54   H15   S    
C11   C13   A    
Cu3   O24   S    
C5    C6    A    
C36   C56   S    
C40   C59   S    
C33   C35   A    
Cu2   O23   S    
O44   H21   S    
Cu5   O9    S    
Cu1   O22   S    
Cu4   O6    S    
C57   O40   S    
C21   O4    A    
C7    C8    A    
C10   C11   A    
C29   C30   A    
C43   H4    S    
C7    C13   A    
Cu2   O12   S    
C45   C61   S    
C61   O45   D    
C51   H12   S    
C20   O24   A    
O33   H13   S    
C59   O42   D    
Cu4   O2    S    
C14   C15   A    
C34   O23   A    
C23   O20   A    
O27   H9    S    
C27   O14   A    
C28   O16   A    
C56   H17   S    
