data_mof_unit_26401.cif
_audit_creation_date              2013-03-05T16:12:15-0500
_audit_creation_method            fapswitch 2.2
_symmetry_space_group_name_H-M    P1
_symmetry_Int_Tables_number       1
_space_group_crystal_system       triclinic
_cell_length_a                    10.718055
_cell_length_b                    9.404792
_cell_length_c                    27.773927
_cell_angle_alpha                 90.054287
_cell_angle_beta                  89.960574
_cell_angle_gamma                 90.067261
_cell_volume                      2799.63793323

loop_
_atom_site_label
_atom_site_type_symbol
_atom_site_description
_atom_site_fract_x
_atom_site_fract_y
_atom_site_fract_z
_atom_type_partial_charge
O1    O     O_R   0.317570 0.620260 0.500030 -0.591555
O2    O     O_R   0.317570 0.379740 0.500030 -0.588986
C1    C     C_R   0.259980 0.499896 0.502617 0.829984
O3    O     O_R   0.499900 0.620250 0.430280 -0.594198
O4    O     O_R   0.499900 0.379750 0.430280 -0.594400
C2    C     C_R   0.499859 0.499909 0.407423 0.804720
Cu1   Cu    Cu3+1 0.499860 0.642410 0.500020 0.910139
Cu2   Cu    Cu3+1 0.499860 0.357590 0.500020 0.911494
O5    O     O_R   0.682190 0.620260 0.500010 -0.597402
O6    O     O_R   0.682190 0.379740 0.500010 -0.597808
O7    O     O_R   0.499860 0.620280 0.569750 -0.586669
O8    O     O_R   0.499860 0.379720 0.569750 -0.586356
C3    C     C_R   0.740015 0.499991 0.501600 0.789521
C4    C     C_R   0.498862 0.500023 0.592593 0.853753
C5    C     C_R   0.384122 0.512041 0.178408 0.538881
O9    O     O_2   0.278199 0.530828 0.203933 -0.530431
N1    N     N_R   0.495410 0.496088 0.201836 -0.470476
C6    C     C_R   0.604313 0.475460 0.177114 0.552316
C7    C     C_R   0.510461 0.370016 0.278816 -0.102055
C8    C     C_R   0.511174 0.370713 0.329002 -0.224571
C9    C     C_R   0.486997 0.627263 0.328655 -0.224977
C10   C     C_R   0.485650 0.626125 0.278426 -0.100878
C11   C     C_R   0.497469 0.497555 0.253415 0.359499
C12   C     C_R   0.490845 0.488436 0.101688 -0.048620
C13   C     C_R   0.379549 0.507506 0.127920 -0.016789
C14   C     C_R   0.266446 0.521116 0.103319 -0.128811
C15   C     C_R   0.604105 0.471483 0.126565 -0.058336
C16   C     C_R   0.499493 0.499408 0.354405 -0.040880
H1    H     H_    0.477589 0.727939 0.347256 0.143272
H2    H     H_    0.475569 0.725026 0.258891 0.137714
H3    H     H_    0.179758 0.537652 0.122613 0.195976
C17   C     C_R   0.494996 0.499782 0.645571 -0.068943
C18   C     C_R   0.370673 0.479971 0.975139 0.005688
C19   C     C_R   0.599285 0.496506 0.974111 0.059279
C20   C     C_R   0.483812 0.489331 0.949236 0.077575
C21   C     C_R   0.259112 0.459533 0.949243 -0.227395
C22   C     C_R   0.256563 0.456653 0.899056 0.221842
C23   C     C_R   0.368303 0.477272 0.872560 -0.089296
C24   C     C_R   0.481785 0.494603 0.898148 -0.075027
C25   C     C_R   0.593917 0.518748 0.872778 -0.015725
C26   C     C_R   0.592657 0.520447 0.822452 0.573320
N2    N     N_R   0.483604 0.499827 0.798133 -0.470652
C27   C     C_R   0.372574 0.480908 0.821628 0.602519
C28   C     C_R   0.487053 0.369390 0.721093 0.217229
C29   C     C_R   0.491314 0.370445 0.670885 -0.205798
C30   C     C_R   0.493772 0.628522 0.671300 -0.176424
C31   C     C_R   0.489283 0.627761 0.721449 -0.101072
C32   C     C_R   0.485906 0.498683 0.746525 0.295768
O10   O     O_2   0.267890 0.466241 0.795337 -0.455636
C33   C     C_R   0.372723 0.492303 0.026083 0.067235
C34   C     C_R   0.488738 0.485556 0.050664 0.049121
C35   C     C_R   0.602434 0.474744 0.024628 -0.005570
C36   C     C_R   0.262767 0.512968 0.053365 -0.182549
H4    H     H_    0.492026 0.269919 0.651800 0.168468
H5    H     H_    0.171797 0.440530 0.967434 0.177342
H6    H     H_    0.172609 0.528100 0.036928 0.162964
O11   O     O_2   0.712392 0.459266 0.201404 -0.529270
C37   C     C_R   0.713456 0.444361 0.100713 -0.151511
H7    H     H_    0.521048 0.270601 0.347834 0.143340
H8    H     H_    0.519369 0.270317 0.259590 0.137540
H9    H     H_    0.799246 0.419996 0.119570 0.207766
C38   C     C_R   0.706302 0.535956 0.948024 -0.153658
C39   C     C_R   0.704444 0.544108 0.898145 -0.103638
O12   O     O_2   0.699782 0.541389 0.797834 -0.495978
C40   C     C_R   0.713298 0.440815 0.050521 0.122604
H10   H     H_    0.791208 0.567281 0.965978 0.179308
H11   H     H_    0.496296 0.729784 0.652741 0.165042
H12   H     H_    0.790013 0.571627 0.879570 0.208444
H13   H     H_    0.488746 0.727586 0.740950 0.168333
C41   C     C_3   0.069922 0.629689 0.533336 0.031164
C42   C     C_3   0.070039 0.355131 0.524179 0.026282
H14   H     H_    0.092475 0.727929 0.512694 0.126469
H15   H     H_    0.101604 0.268213 0.499794 0.122105
C43   C     C_3   0.926754 0.619717 0.536727 -0.389484
C44   C     C_3   0.926685 0.355924 0.523096 -0.388245
H16   H     H_    0.897506 0.597517 0.574411 0.200865
H17   H     H_    0.887974 0.337634 0.559739 0.194056
H18   H     H_    0.886299 0.724356 0.526557 0.154545
H19   H     H_    0.894247 0.266505 0.499967 0.151352
H20   H     H_    0.111942 0.612999 0.434927 0.176376
H21   H     H_    0.105222 0.423526 0.429618 0.177510
H22   H     H_    0.899127 0.627015 0.437535 0.174060
H23   H     H_    0.892350 0.438752 0.426964 0.171754
C45   C     C_3   0.073557 0.515073 0.451937 -0.483689
C46   C     C_3   0.122177 0.499603 0.504383 0.051836
C47   C     C_3   0.877922 0.499679 0.503163 0.076660
C48   C     C_3   0.929708 0.521903 0.451618 -0.386773
C49   C     C_3   0.617282 0.083963 0.521647 -0.187294
C50   C     C_3   0.617380 0.916369 0.521569 -0.188904
H24   H     H_    0.630827 0.124040 0.558980 0.149745
H25   H     H_    0.631178 0.876289 0.558858 0.148772
H26   H     H_    0.698887 0.120864 0.500383 0.142539
H27   H     H_    0.698906 0.879657 0.500200 0.142406
H28   H     H_    0.401467 0.123364 0.567716 0.171858
H29   H     H_    0.402146 0.877095 0.567881 0.168873
C51   C     C_3   0.395814 0.083705 0.530059 -0.171304
C52   C     C_3   0.395963 0.916087 0.530178 -0.172775
C53   C     C_3   0.487639 0.083491 0.451742 -0.192615
C54   C     C_3   0.487374 0.916249 0.451751 -0.192150
N3    N     N_3   0.500250 0.143650 0.501060 -0.125092
N4    N     N_3   0.500250 0.856350 0.501060 -0.124117
H30   H     H_    0.400065 0.122780 0.434892 0.141654
H31   H     H_    0.399504 0.876985 0.435034 0.139835
H32   H     H_    0.565926 0.121477 0.428774 0.142125
H33   H     H_    0.565316 0.878044 0.428663 0.144393
H34   H     H_    0.305117 0.120673 0.515418 0.157230
H35   H     H_    0.305055 0.878199 0.515868 0.154218
I1    I     I_    0.876096 0.343124 0.020616 -0.380923
I2    I     I_    0.151944 0.674634 0.602744 -0.319217
I3    I     I_    0.137163 0.287701 0.593909 -0.335391
I4    I     I_    0.485196 0.170545 0.756974 -0.270119
I5    I     I_    0.075236 0.419499 0.869681 -0.176244

loop_
_geom_bond_atom_site_label_1
_geom_bond_atom_site_label_2
_geom_bond_distance
_ccdc_geom_bond_type
C54   H31   1.112817 S    
C1    C46   1.477765 S    
C17   C29   1.406024 A    
H23   C48   1.113273 S    
C7    C8    1.393873 A    
C12   C15   1.406498 A    
H20   C45   1.113695 S    
Cu1   Cu2   2.678672 S    
Cu1   O7    1.948023 S    
N1    C11   1.432781 S    
C25   C39   1.398859 A    
C43   H16   1.112255 S    
C21   C22   1.394413 A    
C23   C24   1.418282 A    
O7    C4    1.297352 A    
C5    C13   1.403749 A    
C5    O9    1.349753 S    
C42   I3    2.162354 S    
C19   C38   1.405932 A    
C18   C21   1.408685 A    
Cu1   O5    1.965537 S    
C19   C20   1.419340 A    
C26   N2    1.363928 A    
O5    C3    1.291220 A    
C31   H13   1.083448 S    
C22   I5    2.136558 S    
C6    O11   1.349769 S    
C42   C46   1.568415 S    
C45   C46   1.554387 S    
C2    C16   1.472524 S    
C49   H26   1.110489 S    
C3    C47   1.478770 S    
C41   C43   1.540065 S    
C45   C48   1.543230 S    
C50   H25   1.112494 S    
C40   I1    2.139832 S    
C37   H9    1.083369 S    
C14   H3    1.083572 S    
C9    C10   1.395164 A    
C50   H27   1.111125 S    
O3    Cu1   1.947937 S    
C37   C40   1.394401 A    
N1    C6    1.367732 A    
C54   H33   1.112516 S    
C33   C36   1.414177 A    
C38   H10   1.078578 S    
C34   C35   1.420280 A    
C12   C13   1.408906 A    
O3    C2    1.297142 A    
C4    C17   1.471963 S    
C24   C25   1.411013 A    
C42   H15   1.113838 S    
C47   C48   1.549341 S    
C27   O10   1.345992 S    
C8    C16   1.406071 A    
C18   C33   1.419717 A    
C53   H30   1.112795 S    
C9    H1    1.082958 S    
O6    C3    1.289721 A    
O1    C1    1.290748 A    
C20   C24   1.420018 A    
C22   C23   1.418435 A    
C41   I2    2.160442 S    
C44   C47   1.552741 S    
C31   C32   1.400540 A    
Cu2   O8    1.947631 S    
C51   C52   1.576421 S    
C38   C39   1.387669 A    
C33   C34   1.420469 A    
N2    C32   1.433591 S    
C43   C47   1.553936 S    
C8    H7    1.082834 S    
H28   C51   1.111733 S    
C44   H17   1.112243 S    
C49   N3    1.489528 S    
C25   C26   1.397918 A    
C54   N4    1.487887 S    
C9    C16   1.406225 A    
O8    C4    1.296695 A    
C29   H4    1.083473 S    
C53   N3    1.487688 S    
C43   H18   1.112644 S    
N2    C27   1.368314 A    
C14   C36   1.390025 A    
H21   C45   1.113615 S    
C28   C29   1.395240 A    
C7    C11   1.399286 A    
C36   H6    1.078642 S    
C5    N1    1.367595 A    
C51   H34   1.110313 S    
C30   C31   1.393646 A    
C10   H2    1.082818 S    
C50   N4    1.489237 S    
O1    Cu1   1.964626 S    
C17   C30   1.405406 A    
O2    Cu2   1.965112 S    
C6    C15   1.404430 A    
C49   H24   1.112499 S    
C15   C37   1.397663 A    
O4    Cu2   1.948330 S    
H29   C52   1.111888 S    
C7    H8    1.082878 S    
C39   H12   1.083197 S    
C19   C35   1.418507 A    
O2    C1    1.290185 A    
C13   C14   1.398021 A    
C30   H11   1.083628 S    
C21   H5    1.078036 S    
C42   C44   1.536823 S    
O4    C2    1.296701 A    
C12   C34   1.417554 A    
C53   H32   1.112482 S    
C51   N3    1.489162 S    
C18   C20   1.412260 A    
Cu2   N3    2.012305 S    
C52   H35   1.110747 S    
C28   I4    2.119958 S    
C28   C32   1.405728 A    
C23   C27   1.415740 A    
C49   C50   1.576190 S    
Cu2   O6    1.965051 S    
C53   C54   1.572877 S    
Cu1   N4    2.012241 S    
C10   C11   1.399758 A    
C41   H14   1.114021 S    
C26   O12   1.350280 S    
C41   C46   1.567238 S    
C44   H19   1.113249 S    
C52   N4    1.489438 S    
C35   C40   1.425973 A    
H22   C48   1.113258 S    
