data_mof_unit_53835.cif
_audit_creation_date              2013-03-05T15:56:27-0500
_audit_creation_method            fapswitch 2.2
_symmetry_space_group_name_H-M    P1
_symmetry_Int_Tables_number       1
_space_group_crystal_system       triclinic
_cell_length_a                    7.062742
_cell_length_b                    14.764587
_cell_length_c                    15.989216
_cell_angle_alpha                 89.758846
_cell_angle_beta                  89.610058
_cell_angle_gamma                 90.490294
_cell_volume                      1667.21612102

loop_
_atom_site_label
_atom_site_type_symbol
_atom_site_description
_atom_site_fract_x
_atom_site_fract_y
_atom_site_fract_z
_atom_type_partial_charge
O1    O     O_R   0.494400 0.415640 0.412830 -0.627380
O2    O     O_R   0.823920 0.405510 0.586560 -0.558715
O3    O     O_R   0.994250 0.584360 0.587170 -0.570533
C1    C     C_R   0.653496 0.380326 0.612226 1.191231
O4    O     O_R   0.824110 0.404610 0.413450 -0.604042
O5    O     O_R   0.994440 0.583460 0.412820 -0.544315
C2    C     C_R   0.655065 0.382529 0.384628 1.049009
O6    O     O_R   0.494210 0.416540 0.587180 -0.547754
O7    O     O_3   0.660810 0.558680 0.500000 -0.223673
V1    V     V_3+5 0.935650 0.489110 0.500000 1.375258
O8    O     O_R   0.324150 0.594490 0.413440 -0.577549
C3    C     C_R   0.157361 0.615979 0.384172 1.115692
O9    O     O_R   0.323970 0.595390 0.586550 -0.547053
C4    C     C_R   0.157516 0.609261 0.621094 1.241912
V2    V     V_3+5 0.435660 0.510890 0.500000 1.387289
O10   O     O_3   0.160630 0.441320 0.500000 -0.297500
C5    C     C_3   0.950286 0.678313 0.735479 -0.051518
H1    H     H_    0.846202 0.683149 0.684744 0.240049
C6    C     C_3   0.923642 0.765281 0.793662 0.802015
C7    C     C_3   0.177232 0.776148 0.648978 0.648171
C8    C     C_3   0.293812 0.660429 0.770992 0.295372
C9    C     C_3   0.153207 0.678927 0.693019 -0.759198
C10   C     C_3   0.119413 0.816651 0.804958 -0.837081
C11   C     C_3   0.179869 0.859697 0.713720 0.289209
C12   C     C_3   0.272819 0.745397 0.832935 0.708864
C13   C     C_R   0.983915 0.741281 0.190487 0.169572
C14   C     C_R   0.002676 0.677305 0.255266 0.751660
C15   C     C_R   0.152486 0.682437 0.312954 -0.608164
C16   C     C_R   0.292930 0.751154 0.300910 0.180857
C17   C     C_R   0.270568 0.816440 0.237517 0.758997
C18   C     C_R   0.118136 0.812470 0.181345 -0.610656
C19   C     C_R   0.791561 0.248776 0.694055 0.193286
C20   C     C_R   0.787315 0.194101 0.766359 0.801156
C21   C     C_R   0.625905 0.188916 0.818700 -0.638843
C22   C     C_R   0.475154 0.249047 0.803495 0.179880
C23   C     C_R   0.479762 0.303906 0.731330 0.797401
C24   C     C_R   0.640481 0.308694 0.678710 -0.643591
C25   C     C_R   0.801451 0.261490 0.292814 -0.221449
H2    H     H_    0.933725 0.269311 0.325999 0.193301
C26   C     C_R   0.790794 0.197216 0.228136 0.823654
C27   C     C_R   0.621603 0.183901 0.182468 -0.588679
C28   C     C_R   0.463814 0.237173 0.204971 0.833294
C29   C     C_R   0.474990 0.300420 0.270485 -0.256975
H3    H     H_    0.350655 0.339823 0.285329 0.183245
C30   C     C_R   0.643858 0.313931 0.315358 -0.282005
O11   O     O_R   0.771300 0.080930 0.910090 -0.556984
O12   O     O_R   0.441270 0.092800 0.083770 -0.539587
O13   O     O_R   0.271080 0.913920 0.084380 -0.552256
C31   C     C_R   0.610319 0.115034 0.112800 1.072427
O14   O     O_R   0.441580 0.091910 0.910670 -0.566481
O15   O     O_R   0.271390 0.913020 0.910040 -0.535900
C32   C     C_R   0.612151 0.117076 0.884981 1.172756
O16   O     O_R   0.770990 0.081830 0.084440 -0.570687
O17   O     O_3   0.604750 0.938760 0.997250 -0.224912
V3    V     V_3+5 0.329850 0.008280 0.997210 1.451965
O18   O     O_R   0.941680 0.901940 0.910610 -0.537316
C33   C     C_R   0.109071 0.886549 0.876966 1.210317
O19   O     O_R   0.941370 0.902830 0.083720 -0.577607
C34   C     C_R   0.109089 0.880472 0.111969 1.137028
V4    V     V_3+5 0.829860 0.986420 0.997150 1.452491
O20   O     O_3   0.104830 0.056030 0.997180 -0.267108
F1    F     F_    0.437913 0.794549 0.827110 -0.599177
N1    N     N_R   0.332026 0.780621 0.586973 0.262340
O21   O     O_R   0.302431 0.819733 0.515234 -0.240903
O22   O     O_R   0.495783 0.744613 0.599782 -0.282888
N2    N     N_R   0.363369 0.909567 0.714273 0.297315
O23   O     O_R   0.443617 0.930469 0.643199 -0.216176
O24   O     O_R   0.388172 0.969827 0.772135 -0.309709
N3    N     N_R   0.830767 0.730694 0.132976 0.290809
O25   O     O_R   0.819046 0.657532 0.088212 -0.196419
O26   O     O_R   0.682469 0.781685 0.140377 -0.284053
F2    F     F_    0.876688 0.607337 0.259589 -0.621833
N4    N     N_R   0.463383 0.754395 0.349432 0.289676
O27   O     O_R   0.584822 0.689265 0.341836 -0.296851
O28   O     O_R   0.523589 0.831681 0.378207 -0.213406
F3    F     F_    0.401532 0.884098 0.230302 -0.615450
N5    N     N_R   0.939050 0.235740 0.632567 0.298135
O29   O     O_R   0.895328 0.230177 0.553782 -0.368892
O30   O     O_R   0.107912 0.211654 0.655156 -0.237816
F4    F     F_    0.943155 0.146201 0.785832 -0.582837
N6    N     N_R   0.327950 0.262250 0.865094 0.298562
O31   O     O_R   0.159473 0.287098 0.842666 -0.226619
O32   O     O_R   0.371875 0.267296 0.943886 -0.332461
N7    N     N_R   0.904971 0.589564 0.776084 0.305752
O33   O     O_R   0.900919 0.578193 0.856953 -0.151950
O34   O     O_R   0.866486 0.519282 0.730251 -0.319114
F5    F     F_    0.325170 0.352705 0.712275 -0.579632
F6    F     F_    0.946613 0.147017 0.211700 -0.617208
F7    F     F_    0.298256 0.229697 0.162925 -0.603238
F8    F     F_    0.856255 0.740972 0.871807 -0.548851
N8    N     N_R   0.780212 0.827204 0.758781 0.267539
O35   O     O_R   0.736280 0.826726 0.680429 -0.254214
O36   O     O_R   0.710450 0.892006 0.803639 -0.223715
F9    F     F_    0.016290 0.783568 0.599979 -0.619887
N9    N     N_R   0.045319 0.929351 0.685685 0.287625
O37   O     O_R   0.042288 0.952818 0.607054 -0.172865
O38   O     O_R   0.988425 0.989191 0.739066 -0.295181
N10   N     N_R   0.493512 0.652866 0.750727 0.259467
O39   O     O_R   0.549562 0.597562 0.693258 -0.336676
O40   O     O_R   0.594298 0.652734 0.817811 -0.230656
N11   N     N_R   0.253373 0.571697 0.811809 0.267827
O41   O     O_R   0.230411 0.502176 0.763526 -0.269092
O42   O     O_R   0.316886 0.553747 0.886289 -0.206116
N12   N     N_R   0.259068 0.719865 0.922817 0.241619
O43   O     O_R   0.403007 0.734420 0.971655 -0.219376
O44   O     O_R   0.109341 0.681997 0.955522 -0.275253

loop_
_geom_bond_atom_site_label_1
_geom_bond_atom_site_label_2
_geom_bond_distance
_ccdc_geom_bond_type
O13   V3    2.005434 S    
N2    O24   1.297953 A    
N1    O22   1.294255 A    
N11   O41   1.296700 A    
N4    O27   1.299530 A    
O2    C1    1.319014 A    
N9    O37   1.303093 A    
C1    O6    1.313966 A    
N12   O44   1.297775 A    
N6    O31   1.300478 A    
C22   N6    1.442257 S    
O12   C31   1.323196 A    
O17   V4    1.733130 S    
N5    O29   1.301810 A    
C5    N7    1.491234 S    
C13   C14   1.406539 A    
C3    C15   1.500789 S    
C2    C30   1.506000 S    
C15   C16   1.424393 A    
N7    O34   1.300763 A    
O5    C3    1.321329 A    
C17   C18   1.407713 A    
C16   N4    1.437202 S    
O19   V4    2.019036 S    
V2    O10   2.189545 S    
O11   C32   1.313023 A    
O18   C33   1.317454 A    
C21   C22   1.413795 A    
C27   C28   1.414906 A    
C18   C34   1.495087 S    
N3    O26   1.300143 A    
C25   C30   1.407100 A    
C8    C12   1.608845 S    
C19   N5    1.442148 S    
O8    V2    2.019018 S    
C7    C11   1.613757 S    
O14   C32   1.320001 A    
C10   C11   1.641190 S    
O15   C33   1.322499 A    
O7    V1    2.203899 S    
C11   N2    1.485187 S    
C8    N11   1.485827 S    
N2    O23   1.301224 A    
C13   C18   1.415823 A    
N11   O42   1.302416 A    
C8    C9    1.622874 S    
N4    O28   1.301286 A    
C27   C31   1.513429 S    
N12   O43   1.303040 A    
N6    O32   1.301793 A    
O16   V4    2.030749 S    
C20   C21   1.410968 A    
N5    O30   1.300505 A    
C23   F5    1.349155 S    
N7    O33   1.303283 A    
C11   N9    1.476566 S    
N8    O35   1.292713 A    
O4    C2    1.321435 A    
O19   C34   1.314873 A    
O18   V4    2.027474 S    
V4    O20   2.189448 S    
C22   C23   1.407004 A    
C6    C10   1.583129 S    
C29   H3    1.083055 S    
C16   C17   1.406423 A    
N8    O36   1.296796 A    
C17   F3    1.359609 S    
C5    H1    1.100942 S    
C20   F4    1.350809 S    
C19   C24   1.413965 A    
C29   C30   1.409192 A    
O3    C4    1.327396 A    
O1    V2    2.027587 S    
C26   C27   1.417320 A    
C7    C9    1.603369 S    
O6    V2    2.013946 S    
N10   O40   1.291361 A    
O9    V2    2.027412 S    
C28   C29   1.408419 A    
O2    V1    2.003962 S    
O13   C34   1.314943 A    
O12   V3    2.025983 S    
C10   C33   1.551173 S    
C7    F9    1.389752 S    
O17   V3    2.203928 S    
C23   C24   1.409432 A    
O11   V4    2.014273 S    
O1    C2    1.316942 A    
O14   V3    2.004013 S    
O5    V1    2.005472 S    
O8    C3    1.311477 A    
N9    O38   1.295490 A    
C12   N12   1.486557 S    
C21   C32   1.498336 S    
C5    C9    1.581604 S    
C28   F7    1.356644 S    
C19   C20   1.407249 A    
C26   F6    1.356896 S    
C7    N1    1.471725 S    
O7    V2    1.734166 S    
O4    V1    2.026022 S    
C6    F8    1.379040 S    
V1    O10   1.744104 S    
C25   C26   1.408475 A    
C8    N10   1.450355 S    
C4    C9    1.546444 S    
C25   H2    1.083076 S    
C31   O16   1.318356 A    
V3    O20   1.744121 S    
C5    C6    1.600460 S    
O15   V3    2.026246 S    
C12   F1    1.370543 S    
C10   C12   1.582058 S    
N3    O25   1.300687 A    
C6    N8    1.480665 S    
N1    O21   1.301003 A    
C1    C24   1.498183 S    
N10   O39   1.294111 A    
C14   C15   1.410153 A    
O3    V1    2.026343 S    
C13   N3    1.432419 S    
O9    C4    1.313518 A    
C14   F2    1.358897 S    
