data_mof_unit_11915.cif
_audit_creation_date              2012-12-10T20:25:41-0500
_audit_creation_method            fapswitch 2.2
_symmetry_space_group_name_H-M    P1
_symmetry_Int_Tables_number       1
_space_group_crystal_system       triclinic
_cell_length_a                    8.592876
_cell_length_b                    10.675183
_cell_length_c                    9.899789
_cell_angle_alpha                 89.766563
_cell_angle_beta                  98.729955
_cell_angle_gamma                 90.319963
_cell_volume                      897.573265373

loop_
_atom_site_label
_atom_site_type_symbol
_atom_type_description
_atom_site_fract_x
_atom_site_fract_y
_atom_site_fract_z
_atom_type_partial_charge
C1    C     C_R   0.505323 0.260015 0.500873 0.876882
C2    C     C_R   0.560981 0.935882 0.386761 -0.230998
C3    C     C_R   0.532545 0.871321 0.504306 -0.099624
C4    C     C_R   0.535040 0.935443 0.626773 0.128118
C5    C     C_3   0.425655 0.926792 0.730353 -0.478892
C6    C     C_3   0.424554 0.068665 0.730033 -0.496349
C7    C     C_R   0.422923 0.408685 0.060346 0.141226
C8    C     C_R   0.580785 0.588251 0.082163 -0.137759
C9    C     C_R   0.578470 0.589575 0.938105 -0.140240
C10   C     C_R   0.434336 0.402183 0.920154 0.183839
C11   C     C_3   0.269385 0.356738 0.884489 -0.525938
C12   C     C_R   0.201243 0.500687 0.464087 0.970673
C13   C     C_3   0.248498 0.383009 0.031469 -0.074207
C14   C     C_R   0.505689 0.739931 0.500514 0.874128
C15   C     C_R   0.798642 0.501982 0.535726 0.965781
C16   C     C_2   0.035882 0.499790 0.444762 -0.391453
C17   C     C_2   0.963648 0.508368 0.554184 -0.391248
C18   C     C_R   0.534551 0.063284 0.626939 0.141618
C19   C     C_R   0.531926 0.128669 0.504723 -0.102782
C20   C     C_R   0.560711 0.065481 0.386979 -0.230095
H1    H     H_    0.974035 0.489548 0.341039 0.184080
H2    H     H_    0.639714 0.663239 0.891916 0.143128
H3    H     H_    0.197790 0.414984 0.806380 0.229158
H4    H     H_    0.263588 0.255305 0.860609 0.172297
H5    H     H_    0.213499 0.299431 0.087449 0.167543
H6    H     H_    0.024906 0.521373 0.657300 0.168677
H7    H     H_    0.571459 0.114926 0.293026 0.169962
H8    H     H_    0.571799 0.887405 0.292727 0.165846
H9    H     H_    0.309744 0.884512 0.688725 0.206184
H10   H     H_    0.483661 0.886025 0.828619 0.198734
H11   H     H_    0.308119 0.108598 0.687244 0.201485
H12   H     H_    0.481539 0.109851 0.828295 0.202284
H13   H     H_    0.644906 0.660315 0.144297 0.142503
N1    N     N_R   0.498950 0.499140 0.142680 -0.110515
N2    N     N_R   0.498950 0.499180 0.857030 -0.096926
O1    O     O_R   0.500020 0.316790 0.614690 -0.613086
O2    O     O_R   0.500000 0.316760 0.385350 -0.627620
O3    O     O_R   0.271760 0.500010 0.587850 -0.618361
O4    O     O_R   0.271740 0.499970 0.358500 -0.638771
O5    O     O_R   0.500000 0.683240 0.614650 -0.622340
O6    O     O_R   0.499980 0.683210 0.385310 -0.630228
O7    O     O_R   0.728260 0.500030 0.641500 -0.627453
O8    O     O_R   0.728240 0.499990 0.412150 -0.613387
Zn1   Zn    Zn3+2 0.500010 0.500020 0.653130 0.934684
Zn2   Zn    Zn3+2 0.499990 0.499980 0.346870 0.927484
C21   C     C_3   0.144455 0.500144 0.037921 -0.337571
C22   C     C_3   0.970078 0.466121 0.010342 -0.884478
H14   H     H_    0.938572 0.425630 0.906567 0.275698
H15   H     H_    0.940763 0.397708 0.087605 0.256586
H16   H     H_    0.899975 0.552094 0.016926 0.246514
H17   H     H_    0.169019 0.546231 0.137805 0.242637
H18   H     H_    0.169437 0.572300 0.962471 0.202571

loop_
_geom_bond_atom_site_label_1
_geom_bond_atom_site_label_2
_ccdc_geom_bond_type
C7    C10   A    
C6    H12   S    
O3    Zn1   S    
C16   H1    S    
C20   H7    S    
C11   C13   S    
O2    Zn2   S    
C19   C20   A    
C1    O2    A    
O4    Zn2   S    
C4    C18   A    
C12   O4    A    
C7    C13   S    
C2    C3    A    
C15   O8    A    
C22   H15   S    
N1    Zn2   S    
C8    N1    A    
N2    Zn1   S    
O8    Zn2   S    
C13   H5    S    
C10   N2    A    
C3    C14   S    
O7    Zn1   S    
C14   O6    A    
C12   C16   S    
C17   H6    S    
C11   H3    S    
C6    H11   S    
C22   H16   S    
C5    H9    S    
C8    H13   S    
C12   O3    A    
C5    C6    S    
C6    C18   S    
C7    N1    A    
C9    H2    S    
O1    Zn1   S    
C1    C19   S    
C10   C11   S    
C14   O5    A    
C3    C4    A    
C16   C17   D    
C21   H18   S    
C11   H4    S    
O5    Zn1   S    
C1    O1    A    
C15   C17   S    
C18   C19   A    
C5    H10   S    
C9    N2    A    
O6    Zn2   S    
C13   C21   S    
C8    C9    A    
C2    H8    S    
C21   C22   S    
C2    C20   A    
C21   H17   S    
C22   H14   S    
C15   O7    A    
C4    C5    S    
