data_mof_unit_49285.cif
_audit_creation_date              2012-12-11T15:32:40-0500
_audit_creation_method            fapswitch 2.2
_symmetry_space_group_name_H-M    P1
_symmetry_Int_Tables_number       1
_space_group_crystal_system       triclinic
_cell_length_a                    6.96187
_cell_length_b                    20.486932
_cell_length_c                    24.355653
_cell_angle_alpha                 89.6856
_cell_angle_beta                  90.350738
_cell_angle_gamma                 89.696282
_cell_volume                      3473.61561039

loop_
_atom_site_label
_atom_site_type_symbol
_atom_type_description
_atom_site_fract_x
_atom_site_fract_y
_atom_site_fract_z
_atom_type_partial_charge
O1    O     O_R   0.507320 0.423560 0.460500 -0.538094
O2    O     O_R   0.170760 0.556250 0.437010 -0.530078
O3    O     O_R   0.004030 0.576440 0.539500 -0.536874
C1    C     C_R   0.338961 0.576508 0.421239 0.764045
O4    O     O_R   0.177370 0.422820 0.454110 -0.525782
O5    O     O_R   0.010680 0.442050 0.556720 -0.530089
C2    C     C_R   0.346047 0.398956 0.443503 0.841660
O6    O     O_R   0.500680 0.557950 0.443280 -0.528044
O7    O     O_3   0.340380 0.506470 0.533650 -0.383810
V1    V     V_3+5 0.064130 0.498800 0.493760 1.561570
O8    O     O_R   0.681160 0.443750 0.562990 -0.543228
C3    C     C_R   0.850246 0.423784 0.578853 0.723518
O9    O     O_R   0.674560 0.577180 0.545890 -0.542982
C4    C     C_R   0.842876 0.601183 0.556525 0.747610
V2    V     V_3+5 0.564560 0.501200 0.506240 1.523444
O10   O     O_3   0.838180 0.493530 0.466350 -0.363301
C5    C     C_R   0.975967 0.836338 0.913013 -0.116401
C6    C     C_R   0.848229 0.663223 0.587444 -0.116495
C7    C     C_R   0.038911 0.720207 0.907641 -0.147526
C8    C     C_R   0.024081 0.776874 0.939291 -0.047711
C9    C     C_R   0.937361 0.837113 0.856239 -0.213858
C10   C     C_R   0.950663 0.779633 0.823630 0.091478
C11   C     C_R   0.009747 0.720814 0.850197 0.042890
C12   C     C_R   0.908878 0.778916 0.765642 0.060785
C13   C     C_R   0.927978 0.719591 0.735026 0.041050
C14   C     C_R   0.992489 0.663264 0.763040 -0.219031
C15   C     C_R   0.035169 0.663237 0.819168 -0.030457
C16   C     C_R   0.847108 0.835575 0.737204 -0.173038
C17   C     C_R   0.807220 0.834711 0.681321 -0.172565
C18   C     C_R   0.824417 0.777419 0.651075 0.108305
C19   C     C_R   0.884212 0.718719 0.677062 0.107718
C20   C     C_R   0.780174 0.778992 0.594787 -0.189305
C21   C     C_R   0.791651 0.722802 0.562395 -0.029628
C22   C     C_R   0.894511 0.661678 0.643881 -0.228497
H1    H     H_    0.932385 0.614582 0.660682 0.107970
H2    H     H_    0.760601 0.879687 0.661560 0.144332
H3    H     H_    0.069875 0.674852 0.928812 0.184192
H4    H     H_    0.902271 0.884066 0.838722 0.100837
H5    H     H_    0.017135 0.618105 0.741774 0.148833
H6    H     H_    0.826755 0.881958 0.756869 0.132456
H7    H     H_    0.736682 0.824866 0.575939 0.164694
C23   C     C_3   0.826718 0.303180 0.768736 -0.011550
C24   C     C_3   0.022289 0.277242 0.790355 -0.214470
H8    H     H_    0.111017 0.299585 0.823225 0.179224
C25   C     C_1   0.964282 0.121838 0.875485 -0.152321
C26   C     C_1   0.860430 0.378526 0.624693 -0.097513
C27   C     C_3   0.741384 0.233343 0.770479 -0.171494
C28   C     C_3   0.938273 0.207294 0.791189 0.056959
C29   C     C_3   0.809166 0.222933 0.710463 -0.068257
C30   C     C_3   0.890267 0.292899 0.708839 -0.009478
C31   C     C_3   0.004226 0.196585 0.731498 -0.099576
C32   C     C_3   0.084813 0.266584 0.729970 -0.047680
C33   C     C_1   0.954788 0.160298 0.837453 0.061253
C34   C     C_1   0.871166 0.340196 0.662758 0.112447
H9    H     H_    0.599034 0.219670 0.787213 0.160283
C35   C     C_3   0.497364 0.720054 0.208888 0.013551
C36   C     C_3   0.300909 0.699776 0.232887 -0.231037
H10   H     H_    0.210562 0.658694 0.218500 0.161031
C37   C     C_1   0.348872 0.621984 0.375308 -0.113287
C38   C     C_1   0.475104 0.878252 0.124879 -0.125492
C39   C     C_3   0.582711 0.727175 0.267394 -0.145872
C40   C     C_3   0.385565 0.707899 0.291428 0.061650
C41   C     C_3   0.519779 0.800330 0.267439 -0.170300
C42   C     C_3   0.436150 0.792373 0.208780 0.036427
C43   C     C_3   0.323477 0.780231 0.291621 -0.047262
C44   C     C_3   0.240928 0.772824 0.233087 -0.039190
C45   C     C_1   0.363063 0.660436 0.337313 0.048306
C46   C     C_1   0.460295 0.839809 0.162866 0.053258
H11   H     H_    0.606553 0.841993 0.282307 0.191000
H12   H     H_    0.724748 0.708165 0.281214 0.150879
C47   C     C_R   0.470031 0.162276 0.087535 -0.061643
C48   C     C_R   0.351047 0.339210 0.409838 -0.252950
C49   C     C_R   0.484321 0.280626 0.088527 -0.013354
C50   C     C_R   0.489413 0.221532 0.060016 -0.197989
C51   C     C_R   0.447787 0.161145 0.144575 -0.199936
C52   C     C_R   0.437271 0.219808 0.175295 0.079117
C53   C     C_R   0.451972 0.280159 0.146167 0.053907
C54   C     C_R   0.409274 0.220523 0.233752 0.060445
C55   C     C_R   0.405106 0.281330 0.262475 0.088521
C56   C     C_R   0.396899 0.339038 0.231016 -0.124366
C57   C     C_R   0.422254 0.338589 0.174630 -0.138275
C58   C     C_R   0.376023 0.162840 0.264152 -0.167093
C59   C     C_R   0.332591 0.164903 0.319655 -0.130184
C60   C     C_R   0.334642 0.223695 0.348209 0.028180
C61   C     C_R   0.387746 0.282406 0.321327 0.043233
C62   C     C_R   0.281965 0.223901 0.403567 -0.206737
C63   C     C_R   0.281398 0.281561 0.433263 0.617461
C64   C     C_R   0.416840 0.339236 0.354715 -0.151282
H13   H     H_    0.411057 0.384917 0.153387 0.169700
H14   H     H_    0.297470 0.119691 0.340570 0.143101
H15   H     H_    0.512451 0.221464 0.016003 0.141186
H16   H     H_    0.440069 0.113596 0.163461 0.097656
H17   H     H_    0.360146 0.385436 0.248933 0.145905
H18   H     H_    0.372284 0.115189 0.245840 0.128317
H19   H     H_    0.236049 0.179334 0.423655 0.163876
O11   O     O_R   0.323550 0.942140 0.056770 -0.525405
O12   O     O_R   0.647080 0.077200 0.045890 -0.542175
O13   O     O_R   0.813610 0.057920 0.943260 -0.540316
C65   C     C_R   0.478309 0.101272 0.056163 0.693573
O14   O     O_R   0.653470 0.943760 0.063000 -0.527071
O15   O     O_R   0.820050 0.923540 0.960490 -0.528232
C66   C     C_R   0.485196 0.923720 0.078931 0.735875
O16   O     O_R   0.317110 0.076520 0.039540 -0.538658
O17   O     O_3   0.483830 0.993580 0.966380 -0.374206
V3    V     V_3+5 0.760140 0.001190 0.006240 1.492933
O18   O     O_R   0.149510 0.922740 0.954070 -0.538566
C67   C     C_R   0.981140 0.898813 0.943366 0.761294
O19   O     O_R   0.143120 0.056170 0.936970 -0.538493
C68   C     C_R   0.974093 0.076298 0.921189 0.708166
V4    V     V_3+5 0.259690 0.998700 0.993700 1.487037
O20   O     O_3   0.986130 0.006420 0.033620 -0.363326
C69   C     C_2   0.114734 0.601905 0.843250 0.772754
O21   O     O_2   0.040514 0.549551 0.832249 -0.536408
O22   O     O_R   0.279434 0.603646 0.876372 -0.654231
H20   H     H_    0.320832 0.558682 0.889582 0.323371
C70   C     C_2   0.732827 0.362835 0.791943 0.894351
O23   O     O_2   0.685935 0.363402 0.840206 -0.528772
O24   O     O_R   0.700234 0.417502 0.758565 -0.652225
H21   H     H_    0.636238 0.454609 0.779017 0.317852
C71   C     C_2   0.269589 0.288685 0.705383 0.772660
O25   O     O_2   0.385868 0.317776 0.733604 -0.572278
O26   O     O_R   0.302328 0.279440 0.649464 -0.617296
H22   H     H_    0.423952 0.301631 0.636651 0.318834
C72   C     C_2   0.106899 0.137761 0.709631 0.833304
O27   O     O_2   0.147971 0.135395 0.660972 -0.504406
O28   O     O_R   0.155291 0.086118 0.744836 -0.665893
H23   H     H_    0.224495 0.049435 0.725234 0.309234
C73   C     C_2   0.693868 0.189861 0.666667 0.844613
O29   O     O_2   0.609477 0.139269 0.677400 -0.539297
O30   O     O_R   0.687954 0.215849 0.613556 -0.641246
H24   H     H_    0.606175 0.188957 0.587674 0.337320
C74   C     C_2   0.594189 0.684136 0.163250 0.792488
O31   O     O_2   0.644941 0.627510 0.170329 -0.541806
O32   O     O_R   0.624358 0.715088 0.112810 -0.655000
H25   H     H_    0.691588 0.685812 0.085460 0.321482
C75   C     C_2   0.053336 0.798469 0.211459 0.757814
O33   O     O_2   0.950278 0.831715 0.240621 -0.559860
O34   O     O_R   0.000060 0.785482 0.157291 -0.646020
H26   H     H_    0.874418 0.807421 0.146628 0.328573
C76   C     C_2   0.228356 0.815331 0.338101 0.813652
O35   O     O_2   0.197774 0.873985 0.334389 -0.531792
O36   O     O_R   0.175621 0.781054 0.385360 -0.658486
H27   H     H_    0.112437 0.810088 0.413660 0.313070
C77   C     C_2   0.537208 0.394565 0.335811 0.761196
O37   O     O_2   0.691381 0.383614 0.313779 -0.538146
O38   O     O_R   0.474158 0.458874 0.342672 -0.681699
H28   H     H_    0.568940 0.491975 0.328001 0.295257
F1    F     F_    0.220428 0.280537 0.486138 -0.659913
C78   C     C_2   0.519725 0.341438 0.056709 0.779549
O39   O     O_2   0.451192 0.347909 0.010619 -0.528229
O40   O     O_R   0.638363 0.389997 0.078240 -0.652972
H29   H     H_    0.653012 0.428529 0.052332 0.323129
C79   C     C_2   0.743369 0.728494 0.502753 0.744024
O41   O     O_2   0.802265 0.688153 0.469988 -0.558759
O42   O     O_R   0.632471 0.781215 0.483764 -0.655976
H30   H     H_    0.609399 0.779900 0.442626 0.311877
C80   C     C_2   0.060439 0.771777 0.999650 0.766102
O43   O     O_2   0.997020 0.812885 0.031019 -0.548105
O44   O     O_R   0.165542 0.718863 0.020856 -0.648158
H31   H     H_    0.180856 0.720690 0.062255 0.333159

loop_
_geom_bond_atom_site_label_1
_geom_bond_atom_site_label_2
_ccdc_geom_bond_type
C39   H12   S    
O15   C67   A    
C65   O16   A    
C12   C13   A    
C41   C43   S    
C13   C19   A    
O28   H23   S    
C58   H18   S    
O11   C66   A    
C49   C50   A    
C4    C6    S    
O2    C1    A    
C7    C8    A    
C36   C44   S    
C1    O6    A    
C73   O29   D    
C69   O22   S    
O22   H20   S    
C36   C40   S    
C27   C29   S    
C35   C36   S    
C17   H2    S    
C14   C15   A    
C80   O43   D    
O13   V3    S    
C40   C45   S    
O16   V4    S    
C42   C46   S    
C27   H9    S    
C16   C17   A    
C52   C54   A    
C78   O40   S    
O5    C3    A    
C18   C19   A    
C21   C79   S    
C14   H5    S    
O18   C67   A    
C16   H6    S    
V2    O10   S    
C5    C8    A    
O19   C68   A    
C22   H1    S    
C39   C41   S    
V4    O20   S    
O17   V3    S    
C7    H3    S    
C37   C45   T    
O24   H21   S    
C43   C76   S    
O8    V2    S    
C28   C31   S    
C9    H4    S    
C41   H11   S    
C70   O24   S    
C74   O31   D    
C29   C31   S    
C30   C32   S    
O40   H29   S    
C35   C42   S    
O1    V2    S    
C11   C15   A    
C79   O42   S    
C24   C28   S    
O12   V3    S    
V3    O20   S    
C25   C33   T    
C80   O44   S    
O13   C68   A    
O1    C2    A    
C9    C10   A    
C31   C72   S    
C38   C66   S    
C69   O21   D    
O12   C65   A    
C71   O26   S    
C52   C53   A    
O15   V3    S    
C28   C33   S    
C63   F1    S    
C31   C32   S    
C18   C20   A    
C27   C28   S    
C76   O35   D    
C77   O38   S    
O34   H26   S    
C2    C48   S    
O4    C2    A    
C62   C63   A    
C56   C57   A    
C13   C14   A    
C47   C65   S    
C59   H14   S    
C5    C9    A    
C55   C56   A    
C42   C44   S    
C50   H15   S    
C7    C11   A    
C51   C52   A    
C17   C18   A    
C54   C58   A    
O44   H31   S    
C53   C57   A    
C20   H7    S    
C26   C34   T    
O14   C66   A    
O14   V3    S    
C19   C22   A    
C30   C34   S    
C60   C61   A    
C6    C22   A    
C35   C74   S    
O3    C4    A    
C51   H16   S    
C23   C30   S    
C74   O32   S    
C44   C75   S    
C32   C71   S    
C3    C26   S    
C15   C69   S    
C29   C30   S    
O6    V2    S    
C8    C80   S    
O9    V2    S    
C24   H8    S    
C10   C12   A    
C59   C60   A    
C23   C24   S    
O2    V1    S    
C55   C61   A    
C48   C63   A    
C71   O25   D    
O17   V4    S    
C75   O34   S    
C72   O28   S    
O38   H28   S    
O7    V1    S    
C61   C64   A    
C23   C70   S    
C29   C73   S    
C40   C43   S    
C49   C78   S    
C35   C39   S    
C12   C16   A    
C60   C62   A    
C75   O33   D    
C73   O30   S    
O5    V1    S    
C47   C50   A    
O8    C3    A    
O26   H22   S    
O32   H25   S    
C76   O36   S    
C77   O37   D    
C20   C21   A    
C5    C67   S    
O30   H24   S    
O7    V2    S    
C57   H13   S    
O4    V1    S    
O3    V1    S    
V1    O10   S    
C78   O39   D    
C47   C51   A    
C54   C55   A    
C36   H10   S    
O11   V4    S    
C1    C37   S    
O19   V4    S    
C70   O23   D    
C25   C68   S    
C23   C27   S    
C48   C64   A    
C39   C40   S    
C24   C32   S    
C6    C21   A    
C62   H19   S    
C41   C42   S    
C38   C46   T    
O18   V4    S    
C43   C44   S    
O42   H30   S    
O36   H27   S    
C49   C53   A    
C10   C11   A    
C58   C59   A    
C56   H17   S    
O9    C4    A    
C64   C77   S    
C72   O27   D    
C79   O41   D    
