data_mof_unit_38270.cif
_audit_creation_date              2012-12-10T16:50:58-0500
_audit_creation_method            fapswitch 2.2
_symmetry_space_group_name_H-M    P1
_symmetry_Int_Tables_number       1
_space_group_crystal_system       triclinic
_cell_length_a                    8.058797
_cell_length_b                    8.528083
_cell_length_c                    10.919108
_cell_angle_alpha                 91.791148
_cell_angle_beta                  87.089214
_cell_angle_gamma                 93.084164
_cell_volume                      748.067687727

loop_
_atom_site_label
_atom_site_type_symbol
_atom_type_description
_atom_site_fract_x
_atom_site_fract_y
_atom_site_fract_z
_atom_type_partial_charge
C1    C     C_R   0.544247 0.793083 0.496976 0.957598
C2    C     C_R   0.916464 0.484465 0.061505 -0.122320
C3    C     C_R   0.080200 0.536969 0.067989 -0.177551
C4    C     C_R   0.919799 0.463042 0.932011 -0.177549
C5    C     C_R   0.196849 0.454070 0.128754 0.172757
C6    C     C_R   0.803149 0.545942 0.871246 0.172756
C7    C     C_R   0.353580 0.467965 0.068971 0.029492
C8    C     C_R   0.646418 0.532046 0.931029 0.029492
C9    C     C_R   0.358805 0.447137 0.940479 0.046269
C10   C     C_R   0.641193 0.552873 0.059522 0.046269
C11   C     C_R   0.495459 0.515995 0.129507 -0.180663
C12   C     C_R   0.455753 0.206917 0.503024 0.957600
C13   C     C_R   0.504540 0.484012 0.870493 -0.180663
C14   C     C_2   0.566942 0.957219 0.495328 -0.346010
C15   C     C_2   0.433058 0.042781 0.504672 -0.346013
C16   C     C_R   0.501898 0.493316 0.737998 0.883088
C17   C     C_R   0.498102 0.506686 0.262002 0.883088
C18   C     C_R   0.204818 0.418982 0.888810 -0.148241
C19   C     C_R   0.795180 0.581028 0.111190 -0.148246
C20   C     C_R   0.083534 0.515547 0.938495 -0.122318
H1    H     H_    0.185163 0.348042 0.806160 0.185726
H2    H     H_    0.100031 0.660485 0.095354 0.168561
H3    H     H_    0.814832 0.651959 0.193845 0.185728
H4    H     H_    0.114090 0.626876 0.894739 0.205601
H5    H     H_    0.885910 0.373136 0.105261 0.205602
H6    H     H_    0.693958 0.007020 0.486409 0.195417
H7    H     H_    0.306042 0.992980 0.513591 0.195416
H8    H     H_    0.008150 0.374312 0.412669 0.220322
H9    H     H_    0.991850 0.625687 0.587332 0.220322
H10   H     H_    0.899967 0.339528 0.904646 0.168560
I1    I     I_    0.145998 0.221198 0.194536 -0.413079
I2    I     I_    0.853999 0.778811 0.805459 -0.413079
N1    N     N_2   0.950330 0.457950 0.466250 -0.182008
N2    N     N_2   0.049670 0.542050 0.533750 -0.182008
O1    O     O_R   0.389250 0.738570 0.508280 -0.607886
O2    O     O_R   0.610750 0.261430 0.491720 -0.607885
O3    O     O_R   0.678390 0.711630 0.486650 -0.618646
O4    O     O_R   0.321610 0.288370 0.513350 -0.618646
O5    O     O_R   0.355430 0.513480 0.694040 -0.628656
O6    O     O_R   0.644570 0.486520 0.305960 -0.628658
O7    O     O_R   0.644570 0.486540 0.672410 -0.607809
O8    O     O_R   0.355430 0.513460 0.327590 -0.607808
Zn1   Zn    Zn3+2 0.306940 0.517990 0.514440 0.968040
Zn2   Zn    Zn3+2 0.693060 0.482010 0.485560 0.968040

loop_
_geom_bond_atom_site_label_1
_geom_bond_atom_site_label_2
_ccdc_geom_bond_type
C2    C4    A    
C5    C7    A    
C8    C13   A    
C12   O2    A    
C18   H1    S    
O1    Zn1   S    
O6    Zn2   S    
C15   H7    S    
C14   C15   D    
C12   C15   S    
C1    O3    A    
C10   C19   A    
O3    Zn2   S    
C2    C3    A    
C3    C20   A    
C14   H6    S    
C7    C11   A    
C6    C8    A    
C16   O7    A    
C4    C6    A    
H8    N1    S    
N1    N2    D    
C2    H5    S    
C18   C20   A    
C12   O4    A    
O7    Zn2   S    
O2    Zn2   S    
C10   C11   A    
C16   O5    A    
C4    C20   A    
C9    C18   A    
O4    Zn1   S    
C1    O1    A    
C8    C10   A    
C6    I2    S    
O8    Zn1   S    
C13   C16   S    
C7    C9    A    
C9    C13   A    
C19   H3    S    
C11   C17   S    
C3    H2    S    
O5    Zn1   S    
C1    C14   S    
C3    C5    A    
C2    C19   A    
C17   O8    A    
N1    Zn2   S    
H9    N2    S    
C4    H10   S    
N2    Zn1   S    
C20   H4    S    
C5    I1    S    
C17   O6    A    
