data_mof_unit_7593.cif
_audit_creation_date              2012-12-11T20:00:15-0500
_audit_creation_method            fapswitch 2.2
_symmetry_space_group_name_H-M    P1
_symmetry_Int_Tables_number       1
_space_group_crystal_system       triclinic
_cell_length_a                    8.416276
_cell_length_b                    16.312124
_cell_length_c                    26.751934
_cell_angle_alpha                 73.032606
_cell_angle_beta                  96.826216
_cell_angle_gamma                 96.166893
_cell_volume                      3477.68528266

loop_
_atom_site_label
_atom_site_type_symbol
_atom_type_description
_atom_site_fract_x
_atom_site_fract_y
_atom_site_fract_z
_atom_type_partial_charge
Ba1   Ba    Ba6+2 0.337820 0.939830 0.518500 1.844844
Ba2   Ba    Ba6+2 0.851970 0.060110 0.481480 1.820395
C1    C     C_3   0.953089 0.539626 0.625509 0.617749
C2    C     C_3   0.966622 0.636876 0.618690 0.712985
C3    C     C_3   0.114890 0.050508 0.659494 0.946636
C4    C     C_3   0.123420 0.045184 0.719241 0.917571
C5    C     C_3   0.660358 0.394139 0.362322 1.022329
C6    C     C_3   0.709588 0.480654 0.323886 -0.145778
C7    C     C_3   0.127685 0.392761 0.378144 0.640977
C8    C     C_3   0.168544 0.482094 0.341268 0.280336
C9    C     C_R   0.587581 0.284185 0.181478 0.623390
C10   C     C_R   0.457525 0.401199 0.189619 0.603869
C11   C     C_2   0.302953 0.283604 0.280224 -0.149100
C12   C     C_3   0.431772 0.635345 0.621934 0.355158
C13   C     C_3   0.281595 0.249431 0.338080 0.016987
C14   C     C_1   0.468780 0.141294 0.342255 0.008288
C15   C     C_2   0.482469 0.171352 0.290410 0.345885
C16   C     C_2   0.427116 0.260356 0.260089 0.138887
C17   C     C_R   0.564141 0.412846 0.106441 -0.080878
C18   C     C_R   0.618670 0.330670 0.129078 -0.087584
C19   C     C_R   0.709956 0.297755 0.099830 -0.110438
C20   C     C_R   0.486170 0.448965 0.137565 -0.033055
C21   C     C_2   0.368756 0.171327 0.366455 0.037137
C22   C     C_2   0.863546 0.855516 0.640104 0.258801
C23   C     C_3   0.425407 0.558197 0.670315 -0.363902
C24   C     C_R   0.688266 0.469118 0.968386 0.036817
C25   C     C_R   0.591275 0.597029 0.982394 0.021368
C26   C     C_R   0.654668 0.557036 0.949353 0.039789
C27   C     C_R   0.728327 0.429487 0.931491 -0.044152
C28   C     C_R   0.753999 0.476541 0.879990 -0.074887
C29   C     C_R   0.736644 0.565192 0.862227 -0.036085
C30   C     C_R   0.684051 0.605359 0.896643 -0.076736
C31   C     C_R   0.660350 0.693776 0.878345 -0.042228
C32   C     C_R   0.695537 0.741475 0.826840 0.614628
C33   C     C_R   0.767896 0.614087 0.810501 0.591330
C34   C     C_3   0.619333 0.894113 0.369443 0.587046
C35   C     C_2   0.946839 0.755148 0.728580 -0.093092
C36   C     C_3   0.001509 0.816542 0.677894 -0.057711
C37   C     C_1   0.726164 0.861937 0.658032 0.046326
C38   C     C_2   0.679389 0.809589 0.703030 -0.203439
C39   C     C_2   0.795278 0.753147 0.741625 0.211576
C40   C     C_R   0.674309 0.423363 0.022714 0.011759
C41   C     C_R   0.595712 0.460939 0.053923 -0.002030
C42   C     C_R   0.551898 0.547171 0.033615 0.035189
C43   C     C_R   0.741692 0.343243 0.047943 0.373518
C44   C     C_R   0.439711 0.533104 0.116430 -0.050821
C45   C     C_3   0.614882 0.846978 0.326672 0.603694
C46   C     C_R   0.569657 0.686042 0.962833 -0.094256
C47   C     C_R   0.604204 0.733134 0.912230 -0.045894
C48   C     C_R   0.470796 0.580865 0.065715 -0.086680
C49   C     C_2   0.387044 0.254433 0.502005 -0.207887
C50   C     C_R   0.800435 0.760379 0.486997 0.122208
C51   C     C_2   0.228757 0.326021 0.545538 -0.050885
C52   C     C_2   0.251308 0.255876 0.531548 -0.006381
C53   C     C_2   0.492473 0.322641 0.487481 0.050871
C54   C     C_3   0.445223 0.409370 0.488407 -0.112827
C55   C     C_3   0.344495 0.404402 0.533529 0.120214
C56   C     C_3   0.575926 0.113830 0.616555 0.664155
C57   C     C_2   0.578689 0.478190 0.486481 -0.174176
C58   C     C_2   0.553177 0.562552 0.466319 0.418451
C59   C     C_R   0.824032 0.625150 0.444908 -0.021777
C60   C     C_R   0.686362 0.627756 0.468799 -0.078644
C61   C     C_R   0.946832 0.691369 0.439697 0.283960
C62   C     C_R   0.930000 0.761252 0.458748 0.009429
C63   C     C_R   0.674141 0.696024 0.490371 0.100026
C64   C     C_3   0.600879 0.180547 0.647623 0.671101
C65   C     C_3   0.116568 0.992681 0.358536 0.381202
C66   C     C_3   0.094970 0.035617 0.299593 0.217987
H1    H     H_    0.487232 0.830534 0.314688 0.098432
H2    H     H_    0.446479 0.103074 0.605015 -0.023630
H3    H     H_    0.732038 0.190190 0.659355 -0.000883
H4    H     H_    0.246233 0.991595 0.371430 -0.093717
H5    H     H_    0.168463 0.097804 0.290382 -0.060694
H6    H     H_    0.366657 0.574189 0.700944 0.124174
H7    H     H_    0.239920 0.360408 0.392027 -0.009005
H8    H     H_    0.733183 0.360910 0.940615 0.150500
H9    H     H_    0.377346 0.562599 0.139085 0.129801
H10   H     H_    0.426659 0.643933 0.052443 0.073492
H11   H     H_    0.136148 0.323714 0.571011 0.082620
H12   H     H_    0.695298 0.459744 0.506229 0.125775
N1    N     N_R   0.488290 0.314444 0.209444 -0.413443
N2    N     N_R   0.750143 0.701824 0.793488 -0.423067
O1    O     O_2   0.431310 0.922990 0.623550 -0.454601
O2    O     O_3   0.046528 0.907989 0.369630 -0.655482
O3    O     O_3   0.504314 0.613937 0.583540 -0.622170
O4    O     O_2   0.758370 0.077020 0.376420 -0.438935
O5    O     O_3   0.526390 0.016840 0.436620 -0.466925
O6    O     O_3   0.063420 0.187310 0.425160 -0.489507
O7    O     O_3   0.535087 0.967278 0.347609 -0.601518
O8    O     O_3   0.173250 0.067890 0.537260 -0.461168
O9    O     O_3   0.672100 0.202370 0.454860 -0.450266
O10   O     O_2   0.815657 0.303840 0.509238 -0.464241
O11   O     O_3   0.758775 0.384637 0.410252 -0.592394
O12   O     O_3   0.663280 0.983100 0.563360 -0.412173
O13   O     O_3   0.016420 0.932050 0.462720 -0.476803
O14   O     O_2   0.959730 0.164640 0.549160 -0.394742
O15   O     O_3   0.181939 0.131754 0.631789 -0.649206
O16   O     O_2   0.944647 0.201937 0.326099 -0.424076
O17   O     O_3   0.011071 0.346499 0.351923 -0.575902
O18   O     O_2   0.655312 0.218726 0.202343 -0.536279
O19   O     O_2   0.810612 0.578381 0.780597 -0.570618
O20   O     O_2   0.412012 0.438985 0.217851 -0.559704
O21   O     O_2   0.680040 0.818733 0.812082 -0.565013
O22   O     O_3   0.126250 0.812630 0.574830 -0.447144
O23   O     O_2   0.305335 0.772754 0.665901 -0.519378
O24   O     O_3   0.634441 0.037011 0.649207 -0.619571
O25   O     O_3   0.083462 0.655309 0.657032 -0.648055
O26   O     O_2   0.229950 0.835370 0.450810 -0.421686
O27   O     O_3   0.517580 0.797570 0.545130 -0.450140
O28   O     O_2   0.337620 0.691762 0.497341 -0.415493
P1    P     P_3+3 0.610630 0.953360 0.619150 1.125032
P2    P     P_3+3 0.057260 0.861390 0.437850 1.057732
P3    P     P_3+3 0.504435 0.701536 0.527123 1.102838
P4    P     P_3+3 0.579040 0.046590 0.380840 1.128357
P5    P     P_3+3 0.682014 0.305098 0.464033 1.023523
P6    P     P_3+3 0.128131 0.766660 0.643413 0.996533
P7    P     P_3+3 0.144532 0.153441 0.562798 1.039361
P8    P     P_3+3 0.073919 0.244286 0.358863 1.001646
H13   H     H_    0.003523 0.668330 0.578575 -0.039241
O29   O     O_3   0.681496 0.900197 0.281415 -0.671420
H14   H     H_    0.798997 0.907121 0.289934 0.330183
O30   O     O_3   0.689581 0.769500 0.345767 -0.744469
H15   H     H_    0.806653 0.784293 0.350062 0.288661
O31   O     O_3   0.663422 0.145499 0.572826 -0.747809
H16   H     H_    0.602952 0.125396 0.544191 0.295417
O32   O     O_3   0.520302 0.150319 0.693038 -0.653960
H17   H     H_    0.550989 0.192081 0.713731 0.321042
O33   O     O_3   0.541754 0.258586 0.617089 -0.768279
H18   H     H_    0.630416 0.292382 0.596924 0.291605
H19   H     H_    0.060004 0.031892 0.378188 0.038845
H20   H     H_    0.073710 0.520905 0.622010 -0.006559
H21   H     H_    0.135734 0.993794 0.278133 0.072447
O34   O     O_3   0.933753 0.051235 0.283871 -0.669453
H22   H     H_    0.927639 0.079565 0.245516 0.335975
O35   O     O_3   0.817893 0.664763 0.622882 -0.762177
H23   H     H_    0.797325 0.644181 0.660453 0.316719
O36   O     O_3   0.846443 0.519200 0.585601 -0.787678
H24   H     H_    0.736043 0.518753 0.595171 0.345595
O37   O     O_3   0.954295 0.038946 0.641168 -0.764536
H25   H     H_    0.904502 0.090518 0.642424 0.300855
O38   O     O_3   0.200445 0.987103 0.651184 -0.722869
H26   H     H_    0.219049 0.940927 0.684358 0.290052
O39   O     O_3   0.054626 0.116039 0.725925 -0.753281
H27   H     H_    0.130128 0.167508 0.714246 0.315299
O40   O     O_3   0.039738 0.968558 0.746308 -0.730880
H28   H     H_    0.923082 0.975971 0.737971 0.330701
O41   O     O_3   0.284259 0.044238 0.740491 -0.672620
H29   H     H_    0.284192 0.040602 0.778192 0.341741
O42   O     O_3   0.904152 0.494311 0.675221 -0.702994
H30   H     H_    0.912779 0.432520 0.679056 0.314048
O43   O     O_3   0.682533 0.329940 0.339129 -0.688392
H31   H     H_    0.649390 0.274203 0.363332 0.298547
O44   O     O_3   0.498693 0.393222 0.369374 -0.782450
H32   H     H_    0.490255 0.440772 0.384828 0.248354
H33   H     H_    0.820332 0.476491 0.306535 0.080855
H34   H     H_    0.614256 0.498583 0.291051 0.148146
H35   H     H_    0.729186 0.532112 0.344032 0.051130
O45   O     O_3   0.068063 0.403053 0.422314 -0.749334
H36   H     H_    0.052906 0.344497 0.446602 0.316655
H37   H     H_    0.266426 0.516221 0.360646 0.067243
H38   H     H_    0.064957 0.522403 0.332889 0.029909
H39   H     H_    0.308016 0.652560 0.606774 0.033746
O46   O     O_3   0.219531 0.475701 0.294658 -0.685129
H40   H     H_    0.121184 0.469133 0.271256 0.312825
O47   O     O_3   0.476025 0.109267 0.264238 -0.664225
H41   H     H_    0.413017 0.129872 0.229820 0.307533
H42   H     H_    0.760007 0.236310 0.117748 0.118360
H43   H     H_    0.035099 0.717838 0.756448 0.114689
H44   H     H_    0.786879 0.442683 0.853870 0.136066
O48   O     O_3   0.850394 0.313606 0.023716 -0.743053
H45   H     H_    0.887297 0.258169 0.046741 0.307787
H46   H     H_    0.228816 0.334415 0.257855 0.156239
H47   H     H_    0.529833 0.722184 0.986242 0.077170
H48   H     H_    0.502787 0.689321 0.633708 0.069636
H49   H     H_    0.586175 0.801172 0.899664 0.133904
H50   H     H_    0.561102 0.812348 0.714291 0.150782
O49   O     O_3   0.367519 0.144577 0.419900 -0.725128
H51   H     H_    0.284749 0.095660 0.427119 0.295997
O50   O     O_3   0.891591 0.897658 0.588924 -0.639191
H52   H     H_    0.001351 0.926192 0.589136 0.348885
O51   O     O_3   0.076911 0.691809 0.412737 -0.675974
H53   H     H_    0.066785 0.638500 0.401462 0.318950
H54   H     H_    0.408463 0.193503 0.497222 0.088174
O52   O     O_3   0.797088 0.823593 0.510997 -0.651331
H55   H     H_    0.733616 0.868400 0.485943 0.329425
H56   H     H_    0.356267 0.502508 0.660074 0.121859
O53   O     O_3   0.408299 0.592037 0.440727 -0.685846
H57   H     H_    0.324739 0.544046 0.442868 0.308563
H58   H     H_    0.548860 0.540364 0.686284 0.165057
H59   H     H_    0.745569 0.911157 0.382077 -0.030613
O54   O     O_3   0.543310 0.841203 0.412463 -0.793987
H60   H     H_    0.436173 0.820860 0.398901 0.321474

loop_
_geom_bond_atom_site_label_1
_geom_bond_atom_site_label_2
_ccdc_geom_bond_type
C25   C46   A    
C34   O7    S    
C53   C54   S    
Ba1   O5    S    
O47   H41   S    
C61   O51   S    
C34   O54   S    
O23   P6    D    
C17   C18   A    
O33   H18   S    
C16   N1    S    
O40   H28   S    
O35   H23   S    
C27   H8    S    
O51   H53   S    
C9    N1    Am   
O2    P2    S    
C11   C16   D    
C34   H59   S    
C66   O34   S    
C51   H11   S    
C35   C36   S    
C65   H4    S    
C49   H54   S    
O13   P2    S    
Ba1   P2    S    
C28   C29   A    
C62   P2    S    
O48   H45   S    
C31   C47   A    
O39   H27   S    
C10   C20   A    
O12   P1    S    
C22   C37   D    
O52   H55   S    
C34   C45   S    
C58   C60   S    
Ba1   Ba2   S    
O11   P5    S    
C59   C61   A    
C6    H33   S    
C45   H1    S    
O5    P4    S    
O41   H29   S    
Ba1   O27   S    
O22   P6    S    
C25   C42   A    
C56   C64   S    
C11   H46   S    
O46   H40   S    
C64   O33   S    
Ba1   O12   S    
C22   C36   S    
O43   H31   S    
C2    H13   S    
Ba2   O6    S    
C1    O36   S    
C7    C8    S    
C49   C53   D    
O27   P3    S    
C13   C21   S    
C57   C58   D    
C7    O17   S    
C43   O48   S    
O15   P7    S    
Ba2   O9    S    
C6    H35   S    
C48   H10   S    
C24   C26   A    
C33   N2    Am   
C17   C41   A    
C3    O37   S    
C35   H43   S    
C19   C43   A    
O24   P1    S    
C5    O11   S    
C2    O25   S    
C4    O41   S    
C9    C18   A    
C1    O42   S    
C65   C66   S    
O8    P7    S    
O14   P7    D    
Ba2   O12   S    
C17   C20   A    
C31   C32   A    
C50   C62   A    
Ba1   O22   S    
C37   C38   D    
C38   H50   S    
C4    O40   S    
C51   C55   S    
C14   C15   D    
C45   O30   S    
C66   H5    S    
C51   C52   D    
C64   O32   S    
C9    O18   D    
C56   O24   S    
C40   C43   A    
C66   H21   S    
O45   H36   S    
C12   H39   S    
C41   C42   A    
C28   H44   S    
C10   O20   D    
C27   C28   A    
C36   P6    S    
C3    O38   S    
C64   H3    S    
C5    O44   S    
C26   C30   A    
Ba1   O13   S    
C22   O50   S    
C15   C16   S    
Ba2   O5    S    
O28   P3    D    
C2    O35   S    
C5    O43   S    
C46   C47   A    
C20   C44   A    
C3    O15   S    
C14   C21   D    
O3    P3    S    
C11   C13   S    
O34   H22   S    
C1    H20   S    
C65   H19   S    
Ba1   O1    S    
C40   C41   A    
O6    P8    S    
C1    C2    S    
Ba1   O8    S    
C8    H37   S    
C47   H49   S    
O29   H14   S    
C24   C40   A    
C46   H47   S    
C42   C48   A    
O54   H60   S    
C54   C55   S    
O7    P4    S    
C38   C39   S    
C60   C63   A    
C63   P3    S    
C29   C30   A    
C56   H2    S    
C50   O52   S    
C12   O3    S    
C61   C62   A    
C33   O19   D    
C14   P4    S    
C57   H12   S    
C44   H9    S    
O37   H25   S    
C54   C57   S    
C8    H38   S    
C7    H7    S    
O36   H24   S    
C44   C48   A    
C56   O31   S    
C32   O21   D    
C19   H42   S    
C13   P8    S    
O4    P4    D    
C23   H6    S    
C30   C31   A    
C49   C52   S    
Ba2   O14   S    
C4    O39   S    
O53   H57   S    
C12   H48   S    
C15   O47   S    
O38   H26   S    
Ba1   P1    S    
O17   P8    S    
C58   O53   S    
Ba2   P4    S    
C3    C4    S    
C53   P5    S    
C7    O45   S    
O32   H17   S    
C39   N2    S    
C29   C33   A    
C37   P1    S    
O9    P5    S    
C10   N1    Am   
Ba2   O4    S    
O1    P1    D    
C12   C23   S    
C35   C39   D    
C59   C60   A    
C6    H34   S    
O10   P5    D    
O25   P6    S    
C21   O49   S    
C5    C6    S    
C23   H56   S    
Ba1   O26   S    
O50   H52   S    
O26   P2    D    
C65   O2    S    
C18   C19   A    
C24   C27   A    
Ba2   O8    S    
O49   H51   S    
C52   P7    S    
C25   C26   A    
C45   O29   S    
C23   H58   S    
C32   N2    Am   
Ba2   O13   S    
O30   H15   S    
O42   H30   S    
C50   C63   A    
O16   P8    D    
O31   H16   S    
O44   H32   S    
C8    O46   S    
