data_mof_unit_33779.cif
_audit_creation_date              2012-12-11T16:08:38-0500
_audit_creation_method            fapswitch 2.2
_symmetry_space_group_name_H-M    P1
_symmetry_Int_Tables_number       1
_space_group_crystal_system       triclinic
_cell_length_a                    12.922974
_cell_length_b                    13.283225
_cell_length_c                    27.68218
_cell_angle_alpha                 94.946282
_cell_angle_beta                  90.080191
_cell_angle_gamma                 119.021286
_cell_volume                      4134.66575213

loop_
_atom_site_label
_atom_site_type_symbol
_atom_type_description
_atom_site_fract_x
_atom_site_fract_y
_atom_site_fract_z
_atom_type_partial_charge
C1    C     C_R   0.626518 0.898104 0.426244 0.537155
C2    C     C_R   0.618274 0.233116 0.218156 0.096437
C3    C     C_R   0.608109 0.216678 0.267517 -0.082064
C4    C     C_R   0.664915 0.311100 0.302851 0.014341
C5    C     C_R   0.686538 0.345346 0.203953 0.068021
C6    C     C_1   0.693948 0.365661 0.153441 0.048325
C7    C     C_1   0.650408 0.292178 0.353341 -0.012638
C8    C     C_1   0.702606 0.392742 0.112584 0.063782
C9    C     C_R   0.190649 0.755797 0.347159 0.414822
C10   C     C_R   0.189409 0.754510 0.296807 -0.029636
C11   C     C_R   0.187774 0.752186 0.195746 -0.037012
C12   C     C_R   0.601071 0.221988 0.440548 0.547562
C13   C     C_R   0.190287 0.662039 0.217834 0.450288
C14   C     C_R   0.187060 0.661326 0.267761 0.449640
C15   C     C_R   0.173266 0.744518 0.145571 0.377388
C16   C     C_R   0.138749 0.816943 0.124851 0.014396
C17   C     C_R   0.219076 0.950897 0.355005 -0.171839
C18   C     C_R   0.208003 0.948484 0.304395 -0.005369
C19   C     C_R   0.196515 0.850512 0.275215 -0.078743
C20   C     C_R   0.216052 0.044237 0.282394 0.083642
C21   C     C_R   0.206020 0.039139 0.231250 0.172904
C22   C     C_R   0.185672 0.937026 0.202274 0.023400
C23   C     C_R   0.269665 0.876542 0.425260 0.559411
C24   C     C_R   0.190806 0.847209 0.224449 -0.132320
C25   C     C_R   0.152905 0.917472 0.152239 0.345654
C26   C     C_R   0.216297 0.857649 0.376191 -0.015948
C27   C     C_R   0.725979 0.965253 0.351054 -0.109810
C28   C     C_R   0.723794 0.958893 0.300616 -0.013249
C29   C     C_R   0.723132 0.937179 0.199140 0.016473
C30   C     C_R   0.795053 0.046408 0.225128 0.109651
C31   C     C_R   0.797144 0.056909 0.276184 0.088270
C32   C     C_R   0.733618 0.918833 0.149450 -0.073743
C33   C     C_R   0.673211 0.807532 0.125248 0.007370
C34   C     C_R   0.626775 0.899427 0.565290 0.547464
C35   C     C_R   0.564869 0.768137 0.349349 -0.084658
C36   C     C_R   0.565627 0.756366 0.298764 0.013348
C37   C     C_R   0.644150 0.852667 0.274318 -0.021007
C38   C     C_R   0.488121 0.650805 0.272126 0.417545
C39   C     C_R   0.491782 0.638988 0.221823 -0.040736
C40   C     C_R   0.571362 0.732629 0.197575 -0.036211
C41   C     C_R   0.644974 0.841489 0.223665 0.019511
C42   C     C_R   0.585371 0.716624 0.148194 -0.087687
C43   C     C_R   0.644008 0.872891 0.375465 -0.027807
C44   C     C_R   0.743774 0.302837 0.651362 0.358598
C45   C     C_R   0.603951 0.229239 0.578300 0.579211
C46   C     C_R   0.758628 0.324438 0.702326 0.015372
C47   C     C_R   0.770540 0.347006 0.804903 -0.002163
C48   C     C_R   0.864997 0.350239 0.779131 -0.076464
C49   C     C_R   0.859813 0.337680 0.728462 0.116149
C50   C     C_R   0.779523 0.366626 0.855601 0.356158
C51   C     C_R   0.685012 0.366031 0.881090 0.014406
C52   C     C_R   0.565878 0.322614 0.653114 0.037697
C53   C     C_R   0.568381 0.324658 0.703724 0.004863
C54   C     C_R   0.665174 0.326486 0.728466 -0.035144
C55   C     C_R   0.473612 0.319965 0.729994 -0.069931
C56   C     C_R   0.271598 0.879514 0.563371 0.549596
C57   C     C_R   0.472904 0.315049 0.779797 -0.074490
C58   C     C_R   0.570546 0.322641 0.805308 0.007668
C59   C     C_R   0.668823 0.332054 0.779564 -0.018052
C60   C     C_R   0.574731 0.327090 0.856135 0.037417
C61   C     C_R   0.643037 0.293461 0.627074 0.003179
C62   C     C_1   0.221869 0.862709 0.610094 0.038150
C63   C     C_R   0.177556 0.756101 0.724208 -0.118446
C64   C     C_R   0.166857 0.750104 0.774035 -0.122570
C65   C     C_R   0.139526 0.919521 0.781083 0.127170
C66   C     C_R   0.151327 0.926155 0.730514 0.108761
C67   C     C_1   0.632247 0.267241 0.394458 0.025904
C68   C     C_R   0.170235 0.843574 0.702284 0.012563
C69   C     C_R   0.148549 0.831501 0.802666 0.008445
C70   C     C_1   0.128758 0.816756 0.853390 0.003876
C71   C     C_1   0.193049 0.852585 0.651510 0.002364
C72   C     C_1   0.103039 0.798126 0.894732 0.047907
C73   C     C_1   0.639490 0.869180 0.612525 0.046551
C74   C     C_R   0.737904 0.919421 0.735435 -0.088677
C75   C     C_R   0.739187 0.911095 0.785196 0.384904
C76   C     C_R   0.550172 0.732664 0.775324 0.058504
C77   C     C_R   0.547304 0.743189 0.724982 0.112532
C78   C     C_R   0.733250 0.422480 0.288884 -0.044960
C79   C     C_R   0.643546 0.835437 0.705105 -0.045812
C80   C     C_R   0.647095 0.817200 0.805261 0.017340
C81   C     C_1   0.659920 0.804152 0.855745 0.063755
C82   C     C_1   0.643210 0.850869 0.654210 0.010009
C83   C     C_1   0.679754 0.792551 0.896862 0.059442
C84   C     C_R   0.067486 0.773858 0.078638 0.589510
C85   C     C_R   0.716645 0.440428 0.067011 0.553899
C86   C     C_R   0.718832 0.783100 0.080228 0.546029
C87   C     C_R   0.056931 0.766221 0.941340 0.545406
C88   C     C_R   0.709069 0.430907 0.929554 0.574808
C89   C     C_R   0.744155 0.440208 0.239654 0.096265
C90   C     C_R   0.715745 0.776494 0.943263 0.544714
Cr1   Cr    Cr6+3 0.416430 0.829200 0.492370 1.118341
Cr2   Cr    Cr6+3 0.674630 0.087020 0.504170 1.123407
Cr3   Cr    Cr6+3 0.408920 0.083740 0.503490 1.085486
Cr4   Cr    Cr6+3 0.914010 0.832750 0.013970 1.141148
Cr5   Cr    Cr6+3 0.922310 0.578600 0.003000 1.169787
Cr6   Cr    Cr6+3 0.656280 0.574630 0.003870 1.095397
H1    H     H_    0.776988 0.495657 0.316157 0.157954
H2    H     H_    0.237349 0.027458 0.378416 0.177121
H3    H     H_    0.797542 0.987906 0.130024 0.180678
H4    H     H_    0.786559 0.045176 0.371933 0.179483
H5    H     H_    0.536144 0.630902 0.128969 0.156609
H6    H     H_    0.434563 0.555637 0.201935 0.192093
H7    H     H_    0.500919 0.697488 0.368382 0.211558
H8    H     H_    0.944104 0.362976 0.798415 0.214863
H9    H     H_    0.397205 0.310724 0.798040 0.190911
H10   H     H_    0.396502 0.315079 0.712333 0.194002
H11   H     H_    0.192650 0.692762 0.702708 0.176630
H12   H     H_    0.171874 0.681055 0.790237 0.168038
H13   H     H_    0.810470 0.992311 0.720552 0.183998
H14   H     H_    0.554908 0.130203 0.278318 0.133966
O1    O     O_R   0.296680 0.802170 0.437540 -0.422244
O2    O     O_R   0.662610 0.183990 0.557860 -0.427372
O3    O     O_R   0.500730 0.201280 0.562180 -0.487053
O4    O     O_R   0.312500 0.978850 0.548170 -0.485431
O5    O     O_3   0.499990 0.999990 0.500010 -0.291871
O6    O     O_R   0.820790 0.857990 0.068830 -0.481280
O7    O     O_R   0.016700 0.827330 0.062850 -0.437690
O8    O     O_R   0.041970 0.673520 0.060040 -0.436917
O9    O     O_R   0.817980 0.483660 0.048840 -0.478302
O10   O     O_R   0.637200 0.461990 0.052510 -0.496230
O11   O     O_R   0.664790 0.681920 0.057970 -0.502456
O12   O     O_R   0.525380 0.838530 0.443500 -0.492960
O13   O     O_R   0.815840 0.852920 0.961840 -0.479932
O14   O     O_R   0.012100 0.822630 0.963670 -0.490353
O15   O     O_R   0.037010 0.668460 0.953040 -0.470176
O16   O     O_R   0.813390 0.478970 0.949660 -0.432425
O17   O     O_R   0.632250 0.456930 0.945520 -0.487650
O18   O     O_R   0.660200 0.677230 0.958780 -0.490462
O19   O     O_3   0.830870 0.661990 0.006950 -0.303203
O20   O     O_R   0.702130 0.995190 0.446810 -0.511420
O21   O     O_R   0.661770 0.181390 0.458760 -0.492130
O22   O     O_R   0.499820 0.198480 0.455280 -0.492988
O23   O     O_R   0.311660 0.976250 0.449080 -0.518715
O24   O     O_R   0.297580 0.804960 0.544440 -0.487629
O25   O     O_R   0.526220 0.841130 0.542590 -0.489916
O26   O     O_R   0.703030 0.997990 0.553710 -0.467691
I1    I     I_    0.237916 0.192799 0.198992 -0.031970
I2    I     I_    0.242415 0.197413 0.326298 -0.167748
I3    I     I_    0.901870 0.196096 0.187632 -0.113214
I4    I     I_    0.911335 0.222199 0.315753 -0.151983
F1    F     F_    0.411589 0.557960 0.294798 -0.542734
I5    I     I_    0.845735 0.613062 0.221616 -0.379812
F2    F     F_    0.882724 0.392971 0.879696 -0.595975
F3    F     F_    0.822270 0.283780 0.625190 -0.578944
I6    I     I_    0.014917 0.348030 0.697154 -0.123808
I7    I     I_    0.413942 0.267327 0.894590 -0.221891
I8    I     I_    0.451862 0.371959 0.617043 -0.213513
I9    I     I_    0.526169 0.085793 0.167110 -0.358174
I10   I     I_    0.106308 0.039659 0.825169 -0.135271
I11   I     I_    0.141397 0.059495 0.696172 -0.263691
F4    F     F_    0.831358 0.994384 0.813895 -0.578527
I12   I     I_    0.410717 0.589932 0.806648 -0.290748
I13   I     I_    0.397541 0.623912 0.678859 -0.255004
F5    F     F_    0.178412 0.657912 0.117508 -0.526161
F6    F     F_    0.176242 0.661028 0.368035 -0.522825
F7    F     F_    0.188665 0.570315 0.191269 -0.497189
F8    F     F_    0.184178 0.569789 0.287413 -0.457968
F9    F     F_    0.122023 0.987896 0.130988 -0.578558

loop_
_geom_bond_atom_site_label_1
_geom_bond_atom_site_label_2
_ccdc_geom_bond_type
C66   C68   A    
C12   O21   A    
C90   O13   A    
C57   H9    S    
C35   C36   A    
Cr5   O16   S    
C21   I1    S    
C74   H13   S    
C45   O2    A    
C53   C54   A    
C50   F2    S    
C46   C49   A    
Cr6   O11   S    
C5    C6    S    
C33   C42   A    
C34   O25   A    
C36   C37   A    
C8    C85   S    
C29   C32   A    
Cr3   O23   S    
C52   C61   A    
C38   C39   A    
Cr4   O7    S    
C76   I12   S    
C3    H14   S    
C58   C60   A    
C89   I5    S    
C48   H8    S    
C11   C24   A    
C16   C84   S    
Cr6   O18   S    
C86   O6    A    
C18   C19   A    
Cr3   O5    S    
C23   C26   S    
C20   I2    S    
C85   O9    A    
C1    O12   A    
C15   F5    S    
C88   O16   A    
C77   I13   S    
C11   C15   A    
C1    C43   S    
C75   F4    S    
C84   O7    A    
Cr1   O12   S    
Cr3   O22   S    
C35   C43   A    
C9    C10   A    
C18   C20   A    
Cr4   O13   S    
C40   C42   A    
C78   C89   A    
C21   C22   A    
C37   C41   A    
Cr2   O26   S    
C60   I7    S    
C86   O11   A    
C4    C7    S    
C81   C83   T    
C44   C46   A    
C9    C26   A    
C64   H12   S    
C47   C50   A    
C54   C59   A    
C53   C55   A    
Cr5   O8    S    
C12   C67   S    
C27   H4    S    
Cr4   O19   S    
C74   C75   A    
C23   O23   A    
C14   F8    S    
Cr2   O21   S    
C76   C77   A    
C1    O20   A    
C10   C14   A    
C39   C40   A    
Cr4   O6    S    
Cr2   O2    S    
C6    C8    T    
C55   H10   S    
Cr5   O9    S    
C58   C59   A    
C47   C59   A    
C22   C25   A    
Cr6   O17   S    
C85   O10   A    
Cr2   O20   S    
C33   C86   S    
C13   F7    S    
C4    C78   A    
C29   C30   A    
C27   C43   A    
Cr5   O15   S    
C47   C48   A    
C34   O26   A    
C10   C19   A    
C44   F3    S    
C46   C54   A    
C78   H1    S    
C17   C18   A    
C77   C79   A    
C49   I6    S    
C50   C51   A    
Cr3   O3    S    
C64   C69   A    
C48   C49   A    
C52   I8    S    
C74   C79   A    
C55   C57   A    
C38   F1    S    
C22   C24   A    
C2    C5    A    
C17   C26   A    
C63   H11   S    
C3    C4    A    
C42   H5    S    
C73   C82   T    
C87   O15   A    
C72   C87   S    
C52   C53   A    
C39   H6    S    
C75   C80   A    
C16   C25   A    
C83   C90   S    
C63   C68   A    
C40   C41   A    
C90   O18   A    
C30   I3    S    
C12   O22   A    
C29   C41   A    
Cr6   O10   S    
C28   C31   A    
C76   C80   A    
C80   C81   S    
C51   C88   S    
C79   C82   S    
C56   O24   A    
C66   I11   S    
C44   C61   A    
C88   O17   A    
C23   O1    A    
C35   H7    S    
C32   H3    S    
C32   C33   A    
C36   C38   A    
C19   C24   A    
C11   C13   A    
C30   C31   A    
C57   C58   A    
C87   O14   A    
Cr1   O24   S    
C28   C37   A    
C68   C71   S    
C65   C69   A    
C45   C61   S    
Cr1   O5    S    
C62   C71   T    
C2    C3    A    
C56   C62   S    
Cr3   O4    S    
C65   I10   S    
C69   C70   S    
Cr2   O5    S    
C34   C73   S    
C7    C67   T    
C63   C64   A    
C45   O3    A    
Cr1   O25   S    
C20   C21   A    
C9    F6    S    
C84   O8    A    
C65   C66   A    
C25   F9    S    
Cr5   O19   S    
C56   O4    A    
C70   C72   T    
C51   C60   A    
C31   I4    S    
C13   C14   A    
C17   H2    S    
C2    I9    S    
C5    C89   A    
C15   C16   A    
Cr6   O19   S    
C27   C28   A    
Cr1   O1    S    
Cr4   O14   S    
