data_mof_unit_32557.cif
_audit_creation_date              2012-12-10T16:37:25-0500
_audit_creation_method            fapswitch 2.2
_symmetry_space_group_name_H-M    P1
_symmetry_Int_Tables_number       1
_space_group_crystal_system       triclinic
_cell_length_a                    16.848741
_cell_length_b                    16.877758
_cell_length_c                    16.739745
_cell_angle_alpha                 66.299483
_cell_angle_beta                  65.471456
_cell_angle_gamma                 65.374512
_cell_volume                      3782.90733672

loop_
_atom_site_label
_atom_site_type_symbol
_atom_type_description
_atom_site_fract_x
_atom_site_fract_y
_atom_site_fract_z
_atom_type_partial_charge
C1    C     C_R   0.396752 0.071972 0.655351 -0.222548
C2    C     C_R   0.404090 0.668733 0.040798 -0.220452
C3    C     C_3   0.628533 0.722605 0.227183 -0.906545
C4    C     C_3   0.304625 0.299326 0.854746 -0.364698
C5    C     C_3   0.297510 0.373321 0.765324 -0.891843
C6    C     C_R   0.981861 0.579573 0.336268 -0.218189
C7    C     C_R   0.100605 0.393481 0.650142 -0.212953
C8    C     C_R   0.001701 0.165347 0.425574 0.927239
C9    C     C_R   0.031749 0.821560 0.564179 0.946659
C10   C     C_R   0.179948 0.437277 0.962193 0.898413
C11   C     C_R   0.820174 0.562146 0.038889 0.899256
C12   C     C_R   0.438859 0.961100 0.179450 0.905256
C13   C     C_R   0.561050 0.040530 0.820254 0.890386
C14   C     C_R   0.562348 0.820475 0.038058 0.905917
C15   C     C_R   0.597896 0.960778 0.332678 -0.221441
C16   C     C_R   0.437863 0.179467 0.962217 0.888241
C17   C     C_R   0.033208 0.563781 0.821270 0.920248
C18   C     C_R   0.974695 0.432503 0.178228 0.909543
C19   C     C_R   0.820201 0.039460 0.562097 0.940348
C20   C     C_R   0.178199 0.974770 0.431867 0.864348
C21   C     C_R   0.442321 0.079889 0.703534 -0.166372
C22   C     C_R   0.555946 0.937087 0.292716 -0.164464
C23   C     C_R   0.074786 0.706232 0.443054 -0.173603
C24   C     C_R   0.056391 0.251931 0.514624 -0.187328
C25   C     C_R   0.708779 0.446751 0.063244 -0.157355
C26   C     C_R   0.062233 0.660551 0.398189 -0.225106
C27   C     C_R   0.290281 0.551381 0.943329 -0.156565
C28   C     C_R   0.263590 0.052454 0.495375 -0.169622
C29   C     C_R   0.711531 0.065088 0.444008 -0.157890
C30   C     C_R   0.553347 0.288818 0.943185 -0.157193
C31   C     C_R   0.446240 0.709959 0.062013 -0.164146
C32   C     C_R   0.958588 0.535268 0.298650 -0.167387
C33   C     C_R   0.098652 0.444521 0.699088 -0.187418
C34   C     C_R   0.537305 0.046491 0.532194 0.029700
C35   C     C_R   0.452384 0.007907 0.443210 0.031277
C36   C     C_R   0.066052 0.529601 0.529409 0.030062
C37   C     C_R   0.073184 0.295753 0.557401 -0.223532
C38   C     C_R   0.035631 0.436996 0.442522 0.028083
C39   C     C_R   0.540726 0.540790 0.027745 0.028775
C40   C     C_R   0.457829 0.456900 0.979748 0.029549
C41   C     C_R   0.586611 0.027126 0.446647 0.048074
C42   C     C_R   0.399546 0.042679 0.519992 0.049278
C43   C     C_R   0.076813 0.435865 0.567920 0.049045
C44   C     C_R   0.024953 0.530775 0.405329 0.044382
C45   C     C_R   0.452002 0.586245 0.017605 0.048806
C46   C     C_R   0.546482 0.411358 0.990136 0.048171
C47   C     C_R   0.546663 0.998869 0.406845 0.046490
C48   C     C_R   0.668192 0.404334 0.041585 -0.224551
C49   C     C_R   0.443444 0.053544 0.569741 0.047443
C50   C     C_R   0.412021 0.545685 0.990057 0.048090
C51   C     C_R   0.586361 0.451836 0.017897 0.048044
C52   C     C_R   0.063883 0.388691 0.522674 0.053906
C53   C     C_R   0.049903 0.574391 0.443681 0.046581
C54   C     C_R   0.537002 0.069077 0.669109 0.052762
C55   C     C_R   0.460631 0.952210 0.323631 0.041855
C56   C     C_R   0.062817 0.672364 0.538316 0.027521
C57   C     C_R   0.029756 0.297778 0.434098 0.044087
C58   C     C_R   0.672614 0.540165 0.057593 0.046679
C59   C     C_R   0.330341 0.593318 0.966178 -0.223181
C60   C     C_R   0.326571 0.458101 0.948161 0.031768
C61   C     C_R   0.314758 0.001217 0.431612 0.031182
C62   C     C_R   0.672899 0.063013 0.537560 0.026463
C63   C     C_R   0.459869 0.325308 0.947782 0.049318
C64   C     C_R   0.539900 0.673555 0.056674 0.034551
C65   C     C_R   0.985971 0.439644 0.321717 0.028495
C66   C     C_R   0.072055 0.539964 0.668435 0.028749
C67   C     C_R   0.587223 0.071327 0.719124 -0.201514
C68   C     C_R   0.413396 0.937118 0.279333 -0.146730
C69   C     C_R   0.041135 0.726180 0.596781 -0.181122
C70   C     C_R   0.304255 0.069393 0.541357 -0.217704
C71   C     C_R   0.017025 0.253509 0.385223 -0.185230
C72   C     C_R   0.719425 0.589109 0.066449 -0.199266
C73   C     C_R   0.280523 0.409568 0.937307 -0.145996
C74   C     C_R   0.275053 0.966083 0.396710 -0.175212
C75   C     C_R   0.719795 0.068436 0.588905 -0.153684
C76   C     C_R   0.411619 0.279280 0.936541 -0.193860
C77   C     C_R   0.589122 0.720496 0.065152 -0.150840
C78   C     C_R   0.987625 0.389596 0.268528 -0.172652
C79   C     C_R   0.044279 0.597600 0.724716 -0.177516
C80   C     C_R   0.670484 0.090208 0.671938 0.072919
C81   C     C_R   0.672218 0.042040 0.401451 -0.227077
C82   C     C_R   0.329741 0.921492 0.328704 0.067377
C83   C     C_R   0.011887 0.690902 0.690618 0.050058
C84   C     C_R   0.020096 0.294795 0.294900 0.052691
C85   C     C_R   0.670765 0.671505 0.087692 0.078232
C86   C     C_R   0.330537 0.328206 0.913906 0.080398
C87   C     C_R   0.582197 0.060064 0.579529 0.068257
C88   C     C_R   0.409763 0.985060 0.400874 0.068987
C89   C     C_R   0.067458 0.580410 0.578456 0.082652
C90   C     C_R   0.018090 0.391382 0.398976 0.077416
C91   C     C_R   0.584227 0.584680 0.047829 0.066325
C92   C     C_R   0.594763 0.329254 0.966248 -0.223801
C93   C     C_R   0.414847 0.413515 0.958329 0.063048
C94   C     C_3   0.702238 0.138985 0.707420 -0.353548
C95   C     C_3   0.724802 0.223981 0.635176 -0.853736
C96   C     C_3   0.299455 0.859889 0.307731 -0.343429
C97   C     C_3   0.376532 0.774805 0.287034 -0.907912
C98   C     C_3   0.925185 0.747073 0.748545 -0.312819
C99   C     C_3   0.942947 0.795740 0.797054 -0.715541
C100  C     C_3   0.084624 0.239632 0.225809 -0.315896
C101  C     C_3   0.037607 0.199710 0.196284 -0.721219
C102  C     C_3   0.703017 0.702250 0.140339 -0.348134
H1    H     H_    0.324983 0.078056 0.688148 0.133254
H2    H     H_    0.332297 0.701253 0.046697 0.135186
H3    H     H_    0.961701 0.652898 0.313538 0.138792
H4    H     H_    0.118635 0.321184 0.680268 0.130658
H5    H     H_    0.741016 0.260489 0.665999 0.246001
H6    H     H_    0.665155 0.270061 0.609709 0.255780
H7    H     H_    0.784838 0.206665 0.576675 0.271480
H8    H     H_    0.646899 0.163714 0.765308 0.200602
H9    H     H_    0.761274 0.092756 0.733512 0.226821
H10   H     H_    0.426318 0.792051 0.219246 0.249931
H11   H     H_    0.412118 0.740139 0.340466 0.270300
H12   H     H_    0.671390 0.945966 0.306301 0.136668
H13   H     H_    0.347664 0.727163 0.285659 0.251794
H14   H     H_    0.246561 0.833868 0.368236 0.212146
H15   H     H_    0.269376 0.898145 0.250253 0.223230
H16   H     H_    0.017234 0.781805 0.783360 0.256875
H17   H     H_    0.911356 0.870191 0.774100 0.233706
H18   H     H_    0.911130 0.773618 0.872054 0.234856
H19   H     H_    0.881009 0.798159 0.705041 0.181668
H20   H     H_    0.882266 0.702957 0.800305 0.187244
H21   H     H_    0.961896 0.226830 0.220527 0.258975
H22   H     H_    0.059707 0.215866 0.120572 0.221120
H23   H     H_    0.064711 0.692319 0.327069 0.137963
H24   H     H_    0.057678 0.124640 0.223435 0.228142
H25   H     H_    0.123507 0.282022 0.164492 0.201124
H26   H     H_    0.138468 0.183059 0.254701 0.167436
H27   H     H_    0.572998 0.784884 0.210250 0.251651
H28   H     H_    0.599804 0.664908 0.268491 0.269208
H29   H     H_    0.658000 0.733321 0.268964 0.245906
H30   H     H_    0.760423 0.647473 0.164457 0.206014
H31   H     H_    0.728602 0.761447 0.096654 0.224957
H32   H     H_    0.240286 0.434969 0.778307 0.246388
H33   H     H_    0.362264 0.391601 0.728644 0.268047
H34   H     H_    0.093371 0.254036 0.618205 0.127942
H35   H     H_    0.285578 0.347981 0.720752 0.249107
H36   H     H_    0.358190 0.238934 0.834028 0.202127
H37   H     H_    0.240450 0.280452 0.891719 0.224122
H38   H     H_    0.400535 0.099228 0.765926 0.162014
H39   H     H_    0.599774 0.904665 0.238769 0.167817
H40   H     H_    0.090929 0.768552 0.401307 0.173333
H41   H     H_    0.067327 0.180955 0.546909 0.166267
H42   H     H_    0.766566 0.403288 0.088661 0.169501
H43   H     H_    0.233253 0.595509 0.916987 0.171741
H44   H     H_    0.191601 0.082012 0.510329 0.161920
H45   H     H_    0.700503 0.332763 0.047599 0.136149
H46   H     H_    0.770836 0.087581 0.400403 0.173683
H47   H     H_    0.598037 0.231125 0.917056 0.165339
H48   H     H_    0.402067 0.768397 0.087040 0.173594
H49   H     H_    0.918806 0.577939 0.251812 0.165437
H50   H     H_    0.116692 0.407157 0.761641 0.177930
H51   H     H_    0.297952 0.664827 0.960459 0.136594
H52   H     H_    0.259469 0.107426 0.590601 0.132302
H53   H     H_    0.707413 0.041655 0.330886 0.136031
H54   H     H_    0.666482 0.296722 0.960725 0.136374
O1    O     O_R   0.982940 0.138950 0.510160 -0.654145
O2    O     O_R   0.982940 0.510160 0.138950 -0.640093
O3    O     O_R   0.861050 0.017060 0.489840 -0.636110
O4    O     O_R   0.138950 0.982940 0.510160 -0.647214
O5    O     O_R   0.867700 0.025880 0.612340 -0.623954
O6    O     O_R   0.132300 0.974120 0.387660 -0.656953
O7    O     O_R   0.025880 0.612340 0.867700 -0.615662
O8    O     O_R   0.974120 0.387660 0.132300 -0.616457
O9    O     O_R   0.612340 0.867700 0.025880 -0.621635
O10   O     O_R   0.387660 0.132300 0.974120 -0.631718
O11   O     O_R   0.387660 0.974120 0.132300 -0.619815
O12   O     O_R   0.017060 0.861050 0.489840 -0.645810
O13   O     O_R   0.612340 0.025880 0.867700 -0.631998
O14   O     O_R   0.132300 0.387660 0.974120 -0.635169
O15   O     O_R   0.867700 0.612340 0.025880 -0.637962
O16   O     O_R   0.974120 0.132300 0.387660 -0.618209
O17   O     O_R   0.025880 0.867700 0.612340 -0.608108
O18   O     O_R   0.138950 0.510160 0.982940 -0.636665
O19   O     O_R   0.861050 0.489840 0.017060 -0.626547
O20   O     O_R   0.510160 0.982940 0.138950 -0.631989
O21   O     O_R   0.489840 0.017060 0.861050 -0.626838
O22   O     O_R   0.489840 0.861050 0.017060 -0.635515
O23   O     O_R   0.510160 0.138950 0.982940 -0.632935
O24   O     O_R   0.017060 0.489840 0.861050 -0.634050
Zn1   Zn    Zn3+2 0.004880 0.004880 0.583590 0.897620
Zn2   Zn    Zn3+2 0.995120 0.995120 0.416410 0.888226
Zn3   Zn    Zn3+2 0.004880 0.583590 0.004880 0.900095
Zn4   Zn    Zn3+2 0.995120 0.416410 0.995120 0.902949
Zn5   Zn    Zn3+2 0.583590 0.004880 0.004880 0.913367
Zn6   Zn    Zn3+2 0.416410 0.995120 0.995120 0.915462

loop_
_geom_bond_atom_site_label_1
_geom_bond_atom_site_label_2
_ccdc_geom_bond_type
C36   C89   A    
C10   O18   A    
C98   H19   S    
C39   C51   A    
C11   O15   A    
C3    H28   S    
C3    H27   S    
C64   C77   A    
C94   H9    S    
C6    C32   A    
C17   C79   S    
C40   C93   A    
C35   C47   A    
C29   H46   S    
C72   C85   A    
C59   H51   S    
O20   Zn5   S    
C98   C99   S    
C1    C21   A    
C66   C79   A    
C12   C68   S    
C101  H21   S    
C3    H29   S    
C50   C59   A    
O15   Zn3   S    
C102  H30   S    
O6    Zn2   S    
C27   C60   A    
C13   C67   S    
C54   C87   A    
C10   C73   S    
C13   O21   A    
C43   C52   A    
C23   C26   A    
C4    C86   S    
C63   C76   A    
C24   H41   S    
C100  H25   S    
C48   H45   S    
C60   C73   A    
C42   C70   A    
C5    H33   S    
C19   O5    A    
C14   C77   S    
C55   C88   A    
C35   C42   A    
C36   C53   A    
C17   O7    A    
C99   H18   S    
C18   O8    A    
C44   C53   A    
C15   C22   A    
C64   C91   A    
C16   O10   A    
C24   C57   A    
C8    C71   S    
C83   C98   S    
C23   H40   S    
C9    O17   A    
C7    C43   A    
C97   H13   S    
C58   C91   A    
C1    H1    S    
C16   O23   A    
C27   H43   S    
C12   O20   A    
C60   C93   A    
C13   O13   A    
C77   C85   A    
C100  H26   S    
C30   C63   A    
C7    C33   A    
C65   C90   A    
C34   C41   A    
O1    Zn1   S    
C12   O11   A    
C8    O1    A    
C39   C91   A    
C18   O2    A    
C33   C66   A    
C55   C68   A    
C66   C89   A    
C19   O3    A    
C48   C51   A    
C2    C45   A    
C5    H32   S    
C28   C70   A    
C15   H12   S    
C101  H22   S    
C82   C96   S    
C57   C90   A    
C37   C52   A    
O7    Zn3   S    
C84   C100  S    
C96   H15   S    
C23   C56   A    
C8    O16   A    
C30   C92   A    
C95   H7    S    
C31   H48   S    
C11   C72   S    
C30   H47   S    
C54   C67   A    
O11   Zn6   S    
C99   H17   S    
C46   C51   A    
C94   H8    S    
O9    Zn5   S    
O21   Zn6   S    
C2    C31   A    
C26   H23   S    
C70   H52   S    
C40   C46   A    
C38   C44   A    
O8    Zn4   S    
C61   C88   A    
O16   Zn2   S    
O10   Zn6   S    
C35   C88   A    
C2    H2    S    
C18   C78   S    
C41   C81   A    
C96   C97   S    
C101  H24   S    
C41   C47   A    
C7    H4    S    
C20   C74   S    
C92   H54   S    
C57   C71   A    
C14   O9    A    
C25   C48   A    
C14   O22   A    
C95   H5    S    
C17   O24   A    
C56   C89   A    
C29   C81   A    
C97   H10   S    
O12   Zn2   S    
C20   O6    A    
C62   C75   A    
C25   H42   S    
C25   C58   A    
C80   C94   S    
C26   C53   A    
C76   C86   A    
O4    Zn1   S    
C3    C102  S    
C71   C84   A    
C75   C80   A    
C24   C37   A    
C98   H20   S    
C63   C93   A    
C29   C62   A    
C34   C49   A    
C37   H34   S    
C65   C78   A    
O14   Zn4   S    
C16   C76   S    
C11   O19   A    
C31   C64   A    
C9    O12   A    
C69   C83   A    
C67   C80   A    
C9    C69   S    
C4    C5    S    
C36   C43   A    
C33   H50   S    
O18   Zn3   S    
C5    H35   S    
C22   C55   A    
O23   Zn5   S    
C61   C74   A    
C10   O14   A    
C62   C87   A    
C38   C90   A    
C28   H44   S    
C81   H53   S    
C39   C45   A    
C68   C82   A    
C32   C65   A    
C19   C75   S    
C102  H31   S    
O13   Zn5   S    
C27   C59   A    
C28   C61   A    
C99   H16   S    
C79   C83   A    
C58   C72   A    
C21   C54   A    
C32   H49   S    
C1    C49   A    
C45   C50   A    
C40   C50   A    
C22   H39   S    
C100  C101  S    
C6    H3    S    
C34   C87   A    
O17   Zn1   S    
O3    Zn2   S    
O5    Zn1   S    
C94   C95   S    
C73   C86   A    
C95   H6    S    
C42   C49   A    
C4    H36   S    
O22   Zn6   S    
C78   C84   A    
C46   C92   A    
C56   C69   A    
C20   O4    A    
C38   C52   A    
C96   H14   S    
C15   C47   A    
C6    C44   A    
C21   H38   S    
C97   H11   S    
C74   C82   A    
C85   C102  S    
O24   Zn4   S    
O2    Zn3   S    
O19   Zn4   S    
C4    H37   S    
