data_mof_unit_39209.cif
_audit_creation_date              2012-12-11T16:56:16-0500
_audit_creation_method            fapswitch 2.2
_symmetry_space_group_name_H-M    P1
_symmetry_Int_Tables_number       1
_space_group_crystal_system       triclinic
_cell_length_a                    6.973696
_cell_length_b                    14.513764
_cell_length_c                    16.20182
_cell_angle_alpha                 90.373552
_cell_angle_beta                  89.978403
_cell_angle_gamma                 90.104875
_cell_volume                      1639.8226647

loop_
_atom_site_label
_atom_site_type_symbol
_atom_type_description
_atom_site_fract_x
_atom_site_fract_y
_atom_site_fract_z
_atom_type_partial_charge
O1    O     O_R   0.505830 0.583360 0.413880 -0.536944
O2    O     O_R   0.175830 0.595460 0.585520 -0.528707
O3    O     O_R   0.005520 0.416640 0.586120 -0.538666
C1    C     C_R   0.345389 0.618425 0.613631 0.719386
O4    O     O_R   0.176120 0.594390 0.414490 -0.549758
O5    O     O_R   0.005810 0.415570 0.413870 -0.546495
C2    C     C_R   0.345028 0.614952 0.385233 0.708614
O6    O     O_R   0.505540 0.584430 0.586130 -0.557659
O7    O     O_3   0.339200 0.441330 0.500000 -0.362639
V1    V     V_3+5 0.064350 0.510880 0.500000 1.392254
O8    O     O_R   0.676100 0.404540 0.414480 -0.541709
C3    C     C_R   0.845105 0.382502 0.385959 0.703615
O9    O     O_R   0.675810 0.405610 0.585510 -0.513551
C4    C     C_R   0.845020 0.381319 0.611874 0.790085
V2    V     V_3+5 0.564340 0.489120 0.500000 1.398871
O10   O     O_3   0.839360 0.558670 0.500000 -0.395666
C5    C     C_2   0.743774 0.174202 0.758935 0.314155
C6    C     C_2   0.880916 0.177583 0.818993 -0.412342
H1    H     H_    0.985367 0.232898 0.820627 0.114724
C7    C     C_2   0.716866 0.249543 0.696729 0.286618
C8    C     C_2   0.861189 0.307403 0.674656 -0.388870
H2    H     H_    0.003322 0.297619 0.700164 0.106232
C9    C     C_R   0.739644 0.179064 0.244124 0.045575
C10   C     C_R   0.881731 0.186234 0.183154 -0.201505
C11   C     C_R   0.021792 0.257210 0.193224 0.348145
C12   C     C_R   0.013099 0.316826 0.262188 -0.163571
H3    H     H_    0.119643 0.370835 0.267753 0.140632
C13   C     C_R   0.859450 0.313447 0.318604 -0.172095
C14   C     C_R   0.727478 0.241492 0.309488 0.077609
C15   C     C_3   0.513922 0.243841 0.306133 -0.379065
C16   C     C_3   0.526829 0.175916 0.234589 -0.344201
H4    H     H_    0.457791 0.312396 0.287908 0.185900
H5    H     H_    0.447432 0.213850 0.362269 0.158151
H6    H     H_    0.479917 0.204944 0.174707 0.221117
H7    H     H_    0.466261 0.107083 0.248989 0.159612
C17   C     C_R   0.515861 0.687485 0.736780 0.047275
C18   C     C_R   0.357034 0.684957 0.683770 -0.135551
C19   C     C_R   0.207400 0.746572 0.700968 -0.117823
H8    H     H_    0.090427 0.751341 0.658420 0.185486
C20   C     C_R   0.215556 0.807697 0.768805 -0.164135
H9    H     H_    0.100530 0.856698 0.777316 0.124050
C21   C     C_R   0.377028 0.810521 0.821097 -0.098239
C22   C     C_R   0.524557 0.747640 0.804805 0.008378
C23   C     C_3   0.732282 0.767909 0.793291 -0.340432
C24   C     C_3   0.722076 0.706581 0.716599 0.565219
H10   H     H_    0.819235 0.738165 0.844066 0.177948
H11   H     H_    0.760241 0.842127 0.783218 0.128805
C25   C     C_R   0.479913 0.754085 0.316867 -0.096184
C26   C     C_R   0.353731 0.679508 0.314720 -0.242606
C27   C     C_R   0.248186 0.665030 0.240621 0.368265
C28   C     C_R   0.257124 0.729860 0.175473 0.337274
C29   C     C_R   0.377910 0.809219 0.182043 -0.276300
C30   C     C_R   0.485164 0.820189 0.254506 -0.017842
C31   C     C_3   0.697424 0.834537 0.264795 0.578880
C32   C     C_3   0.694871 0.755013 0.326731 0.111449
H12   H     H_    0.742501 0.774448 0.389932 0.078981
O11   O     O_R   0.229930 0.912420 0.917160 -0.545661
O12   O     O_R   0.559420 0.902500 0.088780 -0.507148
O13   O     O_R   0.729660 0.081330 0.089380 -0.536893
C33   C     C_R   0.390283 0.879655 0.116317 0.729721
O14   O     O_R   0.559650 0.901420 0.917750 -0.545469
O15   O     O_R   0.729880 0.080250 0.917130 -0.526529
C34   C     C_R   0.390547 0.879634 0.888842 0.698268
O16   O     O_R   0.229700 0.913500 0.089410 -0.543661
O17   O     O_3   0.396250 0.055540 0.003280 -0.368132
V3    V     V_3+5 0.671130 0.986010 0.003260 1.477081
O18   O     O_R   0.059600 0.091310 0.917720 -0.540838
C35   C     C_R   0.891005 0.110751 0.887694 0.741591
O19   O     O_R   0.059370 0.092380 0.088750 -0.539847
C36   C     C_R   0.890391 0.116684 0.115542 0.683130
V4    V     V_3+5 0.171120 0.007820 0.003230 1.445894
O20   O     O_3   0.896130 0.938240 0.003240 -0.361650
O21   O     O_3   0.615987 0.101208 0.753384 -0.644568
H13   H     H_    0.681151 0.044038 0.771139 0.277342
O22   O     O_3   0.838112 0.628144 0.724693 -0.644153
H14   H     H_    0.801566 0.584788 0.679860 0.292948
N1    N     N_2   0.751079 0.753123 0.637439 -0.538448
H15   H     H_    0.742610 0.711088 0.586161 0.270468
C37   C     C_3   0.680630 0.845881 0.624075 -0.613719
H16   H     H_    0.684747 0.861624 0.557184 0.191413
H17   H     H_    0.774701 0.896790 0.655537 0.205253
H18   H     H_    0.530823 0.853571 0.645779 0.215588
O23   O     O_3   0.155471 0.582884 0.224227 -0.626023
H19   H     H_    0.187129 0.536776 0.266665 0.265755
O24   O     O_3   0.155378 0.708798 0.104538 -0.600137
H20   H     H_    0.202426 0.746520 0.058140 0.286765
N2    N     N_2   0.747356 0.924820 0.299783 -0.554541
H21   H     H_    0.778116 0.973079 0.255210 0.263061
C38   C     C_3   0.631536 0.963202 0.366066 -0.620518
H22   H     H_    0.698182 0.028203 0.388593 0.212988
H23   H     H_    0.622162 0.915281 0.418765 0.196076
H24   H     H_    0.484894 0.978962 0.343647 0.197108
O25   O     O_3   0.802120 0.815466 0.192660 -0.614816
H25   H     H_    0.938535 0.826183 0.206836 0.306625
N3    N     N_2   0.791638 0.671470 0.296461 -0.490548
H26   H     H_    0.848444 0.631649 0.342738 0.277890
C39   C     C_3   0.712772 0.616850 0.228587 -0.346180
H27   H     H_    0.607049 0.566221 0.251922 0.140631
H28   H     H_    0.826000 0.576179 0.198096 0.236971
H29   H     H_    0.647138 0.660495 0.180543 0.214072
N4    N     N_2   0.534722 0.255614 0.656917 -0.471169
H30   H     H_    0.420799 0.241429 0.695461 0.268810
C40   C     C_3   0.521590 0.205502 0.579500 -0.469895
H31   H     H_    0.380664 0.219446 0.550283 0.178443
H32   H     H_    0.534366 0.130216 0.590204 0.196588
H33   H     H_    0.636086 0.227688 0.536223 0.176679
O26   O     O_3   0.160017 0.275836 0.134752 -0.648029
H34   H     H_    0.112984 0.255104 0.080088 0.290665

loop_
_geom_bond_atom_site_label_1
_geom_bond_atom_site_label_2
_ccdc_geom_bond_type
C25   C32   S    
C15   H4    S    
C32   H12   S    
O25   H25   S    
O21   H13   S    
N3    H26   S    
C1    O6    A    
C28   O24   S    
C39   H27   S    
C10   C36   S    
C30   C31   S    
C23   C24   S    
C12   H3    S    
N4    H30   S    
C3    C13   S    
C9    C14   A    
C4    C8    S    
C17   C18   A    
C18   C19   A    
O13   V3    S    
O24   H20   S    
C31   N2    S    
O12   C33   A    
V2    O10   S    
C5    C7    S    
O14   C34   A    
C6    H1    S    
O16   V4    S    
O19   V4    S    
C31   O25   S    
C29   C33   S    
O8    V2    S    
O14   V3    S    
O12   V3    S    
V3    O20   S    
C1    C18   S    
O26   H34   S    
O1    V2    S    
C38   H23   S    
O7    V1    S    
C23   H11   S    
C20   C21   A    
N4    C40   S    
O9    C4    A    
C5    O21   S    
O5    C3    A    
C39   H28   S    
C23   H10   S    
C27   O23   S    
O11   C34   A    
N1    C37   S    
C25   C30   A    
O15   V3    S    
C28   C29   A    
C10   C11   A    
C2    C26   S    
C32   N3    S    
C37   H17   S    
C7    N4    S    
C27   C28   A    
C11   C12   A    
N1    H15   S    
O18   C35   A    
C9    C16   S    
O2    C1    A    
O22   H14   S    
C14   C15   S    
O23   H19   S    
C15   C16   S    
C9    C10   A    
C5    C6    D    
C16   H6    S    
C17   C24   S    
C40   H32   S    
O11   V4    S    
C38   H24   S    
C24   O22   S    
O3    C4    A    
C20   H9    S    
O17   V3    S    
O6    V2    S    
N2    C38   S    
C22   C23   S    
C16   H7    S    
C21   C22   A    
O2    V1    S    
C39   H29   S    
C29   C30   A    
C11   O26   S    
O4    C2    A    
C31   C32   S    
C13   C14   A    
C15   H5    S    
O1    C2    A    
O5    V1    S    
C37   H18   S    
C24   N1    S    
O8    C3    A    
N3    C39   S    
C12   C13   A    
O15   C35   A    
C33   O16   A    
O9    V2    S    
O7    V2    S    
O4    V1    S    
O3    V1    S    
O17   V4    S    
C19   C20   A    
C19   H8    S    
C25   C26   A    
C40   H33   S    
O18   V4    S    
O19   C36   A    
O13   C36   A    
C37   H16   S    
V4    O20   S    
C7    C8    D    
N2    H21   S    
C26   C27   A    
C40   H31   S    
C17   C22   A    
V1    O10   S    
C38   H22   S    
C8    H2    S    
C6    C35   S    
C21   C34   S    
