data_mof_unit_54807.cif
_audit_creation_date              2012-12-10T18:22:33-0500
_audit_creation_method            fapswitch 2.2
_symmetry_space_group_name_H-M    P1
_symmetry_Int_Tables_number       1
_space_group_crystal_system       triclinic
_cell_length_a                    23.526898
_cell_length_b                    10.61005
_cell_length_c                    9.474435
_cell_angle_alpha                 90.368464
_cell_angle_beta                  89.687751
_cell_angle_gamma                 90.047854
_cell_volume                      2364.93850245

loop_
_atom_site_label
_atom_site_type_symbol
_atom_type_description
_atom_site_fract_x
_atom_site_fract_y
_atom_site_fract_z
_atom_type_partial_charge
C1    C     C_R   0.499893 0.259746 0.499497 0.866985
C2    C     C_R   0.700568 0.554637 0.607887 -0.241631
C3    C     C_R   0.240001 0.444847 0.389155 0.147274
C4    C     C_R   0.759956 0.555512 0.610940 0.147037
C5    C     C_R   0.209433 0.505145 0.498450 0.196188
C6    C     C_R   0.790566 0.495199 0.501731 0.196284
C7    C     C_3   0.549470 0.042106 0.547734 0.426348
C8    C     C_3   0.450529 0.957894 0.452267 0.426383
C9    C     C_3   0.542474 0.957188 0.416439 -0.204589
C10   C     C_3   0.457526 0.042811 0.583561 -0.204536
C11   C     C_3   0.500195 0.877068 0.501521 -0.136880
C12   C     C_R   0.500107 0.740254 0.500503 0.866949
C13   C     C_3   0.499804 0.122932 0.498480 -0.136899
C14   C     C_3   0.507844 0.960284 0.633582 -0.219137
C15   C     C_3   0.492155 0.039715 0.366418 -0.219149
C16   C     C_R   0.391222 0.503079 0.500498 0.893283
C17   C     C_R   0.608778 0.496950 0.499504 0.893301
C18   C     C_3   0.543862 0.557737 0.049577 0.492418
C19   C     C_3   0.456137 0.442264 0.950423 0.492453
C20   C     C_3   0.499516 0.614311 0.949683 -0.156320
C21   C     C_3   0.500484 0.385689 0.050317 -0.156343
C22   C     C_3   0.544400 0.444498 0.949947 0.086650
C23   C     C_R   0.238369 0.568612 0.607136 0.359291
C24   C     C_3   0.455601 0.555503 0.050053 0.086688
C25   C     C_R   0.879078 0.599950 0.448851 0.603591
C26   C     C_R   0.120920 0.400466 0.551494 0.603560
C27   C     C_R   0.880116 0.395934 0.552147 0.650146
C28   C     C_R   0.119881 0.604562 0.448400 0.650252
C29   C     C_R   0.940031 0.391215 0.545929 -0.124025
C30   C     C_R   0.059970 0.609378 0.454876 -0.123964
C31   C     C_R   0.969876 0.499789 0.499497 -0.086976
C32   C     C_R   0.030122 0.500823 0.501320 -0.087072
C33   C     C_R   0.939384 0.605944 0.448019 -0.057955
C34   C     C_R   0.761674 0.431649 0.393033 0.359457
C35   C     C_R   0.060615 0.394667 0.552772 -0.057843
C36   C     C_R   0.970535 0.282157 0.586035 0.417841
C37   C     C_R   0.029476 0.718549 0.415115 0.417991
C38   C     C_R   0.030095 0.286613 0.600922 0.032782
C39   C     C_R   0.969903 0.714185 0.400332 0.032449
C40   C     C_3   0.596565 0.375683 0.893912 -0.588241
C41   C     C_3   0.403437 0.624321 0.106096 -0.588246
C42   C     C_3   0.059983 0.176291 0.670425 -0.547911
C43   C     C_3   0.939981 0.824879 0.331634 -0.547578
C44   C     C_3   0.209515 0.380326 0.269478 -0.669727
C45   C     C_R   0.297965 0.571601 0.607757 0.356711
C46   C     C_3   0.790394 0.620164 0.730603 -0.669773
C47   C     C_R   0.702077 0.428581 0.392325 0.356612
C48   C     C_R   0.328721 0.507108 0.501148 -0.199183
C49   C     C_R   0.671280 0.493044 0.498881 -0.199167
C50   C     C_R   0.299392 0.445616 0.392139 -0.241626
Cl1   Cl    Cl    0.935866 0.133376 0.599684 -0.497098
Cl2   Cl    Cl    0.384192 0.899073 0.390516 -0.553962
Cl3   Cl    Cl    0.064210 0.867283 0.401807 -0.496810
Cl4   Cl    Cl    0.603660 0.642179 0.115466 -0.551279
Cl5   Cl    Cl    0.396340 0.357824 0.884534 -0.551266
Cl6   Cl    Cl    0.199189 0.644554 0.742581 -0.445221
Cl7   Cl    Cl    0.800909 0.355698 0.257697 -0.445084
Cl8   Cl    Cl    0.332930 0.663379 0.737355 -0.479483
Cl9   Cl    Cl    0.667163 0.336753 0.262688 -0.479372
Cl10  Cl    Cl    0.615807 0.100926 0.609486 -0.554030
Cu1   Cu    Cu3+1 0.500010 0.499990 0.643150 1.030314
Cu2   Cu    Cu3+1 0.499990 0.500010 0.356850 1.030311
H1    H     H_    0.499029 0.710465 0.904235 0.170496
H2    H     H_    0.584024 0.307751 0.810438 0.258908
H3    H     H_    0.627835 0.444230 0.851983 0.239767
H4    H     H_    0.383211 0.676981 0.019144 0.261983
H5    H     H_    0.372164 0.555775 0.148009 0.239730
H6    H     H_    0.415980 0.692239 0.189583 0.258908
H7    H     H_    0.031037 0.106763 0.719286 0.252054
H8    H     H_    0.086470 0.124915 0.591660 0.284825
H9    H     H_    0.086177 0.210878 0.759760 0.243826
H10   H     H_    0.968873 0.895049 0.283768 0.252354
H11   H     H_    0.913968 0.790817 0.241726 0.244096
H12   H     H_    0.500970 0.289535 0.095765 0.170486
H13   H     H_    0.913311 0.875459 0.410662 0.284413
H14   H     H_    0.183171 0.301770 0.310598 0.250578
H15   H     H_    0.181660 0.448926 0.215221 0.240207
H16   H     H_    0.239744 0.340879 0.190326 0.245074
H17   H     H_    0.818259 0.551646 0.784961 0.240249
H18   H     H_    0.816724 0.698729 0.689446 0.250388
H19   H     H_    0.760136 0.659622 0.809678 0.245150
H20   H     H_    0.322956 0.396809 0.309777 0.192338
H21   H     H_    0.676972 0.603439 0.690198 0.192352
H22   H     H_    0.577452 0.919568 0.349297 0.215257
H23   H     H_    0.422547 0.080431 0.650704 0.215270
H24   H     H_    0.514751 0.925879 0.742565 0.187482
H25   H     H_    0.485248 0.074120 0.257435 0.187484
H26   H     H_    0.616795 0.323042 0.980875 0.261949
N1    N     N_R   0.851651 0.497250 0.501259 -0.451727
N2    N     N_R   0.148348 0.503154 0.499060 -0.451799
N3    N     N_3   0.500040 0.499970 0.858290 -0.215241
N4    N     N_3   0.499960 0.500030 0.141710 -0.215250
O1    O     O_R   0.500030 0.316850 0.620870 -0.562098
O2    O     O_2   0.152771 0.304336 0.599028 -0.513714
O3    O     O_2   0.849846 0.302415 0.612242 -0.418164
O4    O     O_2   0.150140 0.698068 0.388244 -0.418132
O5    O     O_R   0.499970 0.683150 0.379130 -0.562117
O6    O     O_R   0.500000 0.316860 0.379090 -0.582407
O7    O     O_R   0.500000 0.683140 0.620910 -0.582399
O8    O     O_R   0.417890 0.499960 0.620920 -0.495930
O9    O     O_R   0.582110 0.500040 0.379080 -0.495933
O10   O     O_R   0.417870 0.499970 0.379140 -0.604024
O11   O     O_R   0.582130 0.500030 0.620860 -0.604042
O12   O     O_2   0.847219 0.695858 0.400810 -0.513822

loop_
_geom_bond_atom_site_label_1
_geom_bond_atom_site_label_2
_ccdc_geom_bond_type
C43   H11   S    
C46   H18   S    
C10   H23   S    
C26   O2    S    
C43   H10   S    
C23   C45   A    
C27   C29   A    
C27   O3    S    
C16   C48   S    
C23   Cl6   S    
C47   C49   A    
C4    C46   S    
C29   C36   A    
C33   C39   A    
C44   H15   S    
C19   C21   S    
C38   C42   S    
C46   H17   S    
C11   C14   S    
Cu1   O1    S    
Cu2   O5    S    
C42   H8    S    
C44   H14   S    
C17   O9    A    
C12   O7    A    
Cu2   O6    S    
C7    C14   S    
C20   C24   S    
Cu2   N4    S    
C34   Cl7   S    
C22   N3    S    
C31   C33   A    
C8    Cl2   S    
C5    N2    S    
Cu2   O9    S    
C37   Cl3   S    
C48   C50   A    
C21   C22   S    
C24   C41   S    
C2    H21   S    
Cu1   O7    S    
C24   N4    S    
C3    C50   A    
C41   H6    S    
C43   H13   S    
C45   Cl8   S    
C20   N3    S    
C3    C44   S    
C32   C35   A    
C35   C38   A    
C14   H24   S    
C4    C6    A    
C10   C14   S    
C17   C49   S    
C16   O8    A    
C39   C43   S    
C21   H12   S    
C42   H7    S    
C6    C34   A    
C30   C37   A    
C2    C4    A    
C2    C49   A    
C46   H19   S    
C31   C32   A    
C5    C23   A    
C7    C13   S    
C22   C40   S    
C9    C11   S    
C12   O5    A    
C36   Cl1   S    
C16   O10   A    
C8    C15   S    
C40   H3    S    
C13   C15   S    
Cu1   O8    S    
C1    C13   S    
C7    Cl10  S    
C50   H20   S    
C15   H25   S    
C45   C48   A    
C19   Cl5   S    
C7    C9    S    
Cu1   O11   S    
C18   C22   S    
C8    C10   S    
C3    C5    A    
C10   C13   S    
C1    O6    A    
C11   C12   S    
C25   O12   S    
C41   H4    S    
C26   N2    A    
C6    N1    S    
C25   N1    A    
C40   H2    S    
C28   O4    S    
C18   N4    S    
C40   H26   S    
C20   H1    S    
C36   C38   A    
C19   C24   S    
C9    C15   S    
C28   C30   A    
C29   C31   A    
C30   C32   A    
C8    C11   S    
C44   H16   S    
C42   H9    S    
C27   N1    A    
C18   C20   S    
C41   H5    S    
C17   O11   A    
Cu1   Cu2   S    
C19   N3    S    
C18   Cl4   S    
C9    H22   S    
C47   Cl9   S    
C26   C35   A    
C37   C39   A    
C1    O1    A    
C28   N2    A    
C34   C47   A    
Cu1   N3    S    
C25   C33   A    
Cu2   O10   S    
C21   N4    S    
