data_mof_unit_57451.cif
_audit_creation_date              2012-10-26T20:21:46-0400
_audit_creation_method            fapswitch 2.2
_symmetry_space_group_name_H-M    P1
_symmetry_Int_Tables_number       1
_space_group_crystal_system       triclinic
_cell_length_a                    15.714198
_cell_length_b                    15.079672
_cell_length_c                    9.593693
_cell_angle_alpha                 90.236667
_cell_angle_beta                  90.054038
_cell_angle_gamma                 90.051208
_cell_volume                      2273.34767616

loop_
_atom_site_label
_atom_site_type_symbol
_atom_type_description
_atom_site_fract_x
_atom_site_fract_y
_atom_site_fract_z
_atom_type_partial_charge
Br1   Br    Br    0.010650 0.309052 0.167110 -0.282191
Br2   Br    Br    0.018437 0.690216 0.834734 -0.309388
Br3   Br    Br    0.992226 0.691076 0.169865 -0.305144
Br4   Br    Br    0.996355 0.308866 0.830362 -0.286826
Br5   Br    Br    0.504597 0.809429 0.168196 -0.292253
Br6   Br    Br    0.507112 0.191127 0.832868 -0.260159
Br7   Br    Br    0.488820 0.190983 0.168888 -0.287000
Br8   Br    Br    0.494523 0.808802 0.830698 -0.280329
C1    C     C_R   0.125529 0.388819 0.501468 0.567734
C2    C     C_R   0.003066 0.578070 0.926708 0.254772
C3    C     C_R   0.999287 0.578164 0.074704 0.270001
C4    C     C_R   0.999030 0.421798 0.925443 0.281096
C5    C     C_R   0.500873 0.921870 0.073713 0.251758
C6    C     C_R   0.501310 0.078184 0.926427 0.281442
C7    C     C_R   0.498270 0.078173 0.074500 0.256632
C8    C     C_R   0.498769 0.921806 0.925535 0.262746
C9    C     C_R   0.772942 0.290396 0.368057 0.013701
C10   C     C_R   0.233596 0.706237 0.622319 0.023089
C11   C     C_R   0.228337 0.707177 0.368085 0.009258
C12   C     C_R   0.876411 0.613627 0.501613 0.566694
C13   C     C_R   0.763874 0.298542 0.621507 0.018284
C14   C     C_R   0.228077 0.288873 0.633385 0.007415
C15   C     C_R   0.760196 0.695468 0.383795 0.002316
C16   C     C_R   0.786589 0.725972 0.630638 0.013385
C17   C     C_R   0.237479 0.301489 0.380378 0.015857
C18   C     C_R   0.275201 0.786552 0.367333 0.005917
C19   C     C_R   0.729298 0.212921 0.625069 0.023925
C20   C     C_R   0.725699 0.211435 0.369900 0.013470
C21   C     C_R   0.268014 0.791950 0.621763 0.023233
C22   C     C_R   0.738665 0.803796 0.620054 0.007934
C23   C     C_R   0.875009 0.388162 0.499240 0.579726
C24   C     C_R   0.278515 0.219137 0.373444 0.014301
C25   C     C_R   0.268935 0.206509 0.625736 0.032174
C26   C     C_R   0.715684 0.775291 0.372848 0.011857
C27   C     C_R   0.199719 0.672194 0.496784 -0.056249
C28   C     C_R   0.799824 0.328747 0.495764 -0.051164
C29   C     C_R   0.803989 0.675905 0.507562 -0.051932
C30   C     C_R   0.201026 0.329825 0.506828 -0.066934
C31   C     C_R   0.697367 0.176071 0.498979 -0.054115
C32   C     C_R   0.302191 0.824662 0.495797 -0.053396
C33   C     C_R   0.303707 0.177022 0.498663 -0.050012
C34   C     C_R   0.124882 0.612140 0.499670 0.575666
C35   C     C_R   0.695967 0.823557 0.495573 -0.046428
C36   C     C_2   0.786378 0.337037 0.233303 0.657779
C37   C     C_2   0.254180 0.646676 0.742085 0.638191
C38   C     C_2   0.217529 0.655944 0.236224 0.658933
C39   C     C_2   0.745464 0.360803 0.739720 0.632387
C40   C     C_2   0.238525 0.337062 0.769953 0.644416
C41   C     C_2   0.747191 0.626138 0.276231 0.674152
C42   C     C_2   0.806272 0.693148 0.773479 0.659824
C43   C     C_2   0.254173 0.366328 0.267762 0.667529
C44   C     C_2   0.285247 0.835159 0.233851 0.658710
C45   C     C_R   0.623496 0.886129 0.498878 0.571547
C46   C     C_2   0.748337 0.158082 0.751426 0.655663
C47   C     C_2   0.716465 0.160429 0.238157 0.656467
C48   C     C_2   0.247491 0.852477 0.741167 0.640622
C49   C     C_2   0.744191 0.871543 0.731218 0.681109
C50   C     C_2   0.272419 0.169138 0.239283 0.641404
C51   C     C_2   0.254489 0.143264 0.741578 0.649560
C52   C     C_2   0.711294 0.817979 0.233780 0.645772
C53   C     C_R   0.375841 0.113426 0.499670 0.580383
C54   C     C_R   0.375630 0.886858 0.499242 0.582117
C55   C     C_R   0.624393 0.113207 0.500150 0.580482
C56   C     C_R   0.001725 0.421805 0.073596 0.283628
Cu1   Cu    Cu3+1 0.000000 0.500000 0.640660 1.183372
Cu2   Cu    Cu3+1 1.000000 0.500000 0.359340 1.161937
Cu3   Cu    Cu3+1 0.500000 0.000000 0.640660 1.164165
Cu4   Cu    Cu3+1 0.500000 0.000000 0.359340 1.153067
H1    H     H_    0.829240 0.332901 0.035635 0.366822
H2    H     H_    0.819394 0.144490 0.925907 0.384911
H3    H     H_    0.675048 0.156009 0.039515 0.357374
H4    H     H_    0.185235 0.869466 0.923610 0.381163
H5    H     H_    0.692363 0.924707 0.903037 0.338066
H6    H     H_    0.236359 0.174335 0.038420 0.376922
H7    H     H_    0.303229 0.072350 0.900679 0.349547
H8    H     H_    0.731252 0.929202 0.123489 0.358819
H9    H     H_    0.317483 0.630753 0.923763 0.374872
H10   H     H_    0.176019 0.652261 0.037650 0.368375
H11   H     H_    0.688002 0.380375 0.925729 0.379911
H12   H     H_    0.311859 0.354683 0.941206 0.383008
H13   H     H_    0.784760 0.570938 0.094698 0.376654
H14   H     H_    0.844174 0.722150 0.969538 0.397467
H15   H     H_    0.342093 0.441938 0.171341 0.372373
H16   H     H_    0.325482 0.835037 0.034608 0.366486
N1    N     N_R   0.000000 0.500000 0.852070 -0.253351
N2    N     N_R   0.000000 0.500000 0.147930 -0.262301
N3    N     N_R   0.500000 0.000000 0.852070 -0.270881
N4    N     N_R   0.500000 0.000000 0.147930 -0.276261
O1    O     O_R   0.090170 0.409820 0.618740 -0.438175
O2    O     O_R   0.409830 0.090180 0.381260 -0.456785
O3    O     O_R   0.409830 0.090180 0.618740 -0.441395
O4    O     O_R   0.590170 0.909820 0.381260 -0.462348
O5    O     O_R   0.409830 0.909820 0.381260 -0.471147
O6    O     O_R   0.590170 0.090180 0.618740 -0.449116
O7    O     O_R   0.590170 0.090180 0.381260 -0.474727
O8    O     O_R   0.409830 0.909820 0.618740 -0.455169
O9    O     O_2   0.765517 0.414670 0.222483 -0.474302
O10   O     O_R   0.821989 0.292833 0.119314 -0.610267
O11   O     O_2   0.235777 0.568012 0.738074 -0.465574
O12   O     O_R   0.909830 0.590180 0.381260 -0.456432
O13   O     O_R   0.303356 0.678441 0.853234 -0.611569
O14   O     O_2   0.239825 0.578403 0.231726 -0.487438
O15   O     O_R   0.181628 0.695278 0.118545 -0.592492
O16   O     O_2   0.762625 0.439544 0.730423 -0.448574
O17   O     O_R   0.699956 0.331252 0.855974 -0.617568
O18   O     O_2   0.189022 0.393757 0.810045 -0.418008
O19   O     O_R   0.309301 0.317498 0.853041 -0.605066
O20   O     O_2   0.685818 0.576724 0.285684 -0.411644
O21   O     O_R   0.802111 0.619360 0.162571 -0.643633
O22   O     O_2   0.790242 0.616390 0.804237 -0.437079
O23   O     O_R   0.909830 0.590180 0.618740 -0.463319
O24   O     O_R   0.837038 0.751326 0.875603 -0.601292
O25   O     O_2   0.199524 0.384398 0.181857 -0.416288
O26   O     O_R   0.335877 0.402119 0.255584 -0.622664
O27   O     O_2   0.260927 0.911797 0.225997 -0.435223
O28   O     O_R   0.320032 0.793508 0.116872 -0.600917
O29   O     O_2   0.717694 0.084576 0.767180 -0.487490
O30   O     O_R   0.808222 0.188594 0.848539 -0.612422
O31   O     O_2   0.745062 0.085399 0.231356 -0.462886
O32   O     O_R   0.677869 0.198387 0.121613 -0.602121
O33   O     O_2   0.264934 0.931300 0.736026 -0.486322
O34   O     O_R   0.090170 0.409820 0.381260 -0.451755
O35   O     O_R   0.199329 0.821267 0.853337 -0.602319
O36   O     O_2   0.799701 0.928179 0.725030 -0.417689
O37   O     O_R   0.687922 0.869475 0.843364 -0.599375
O38   O     O_2   0.268873 0.088311 0.239822 -0.434577
O39   O     O_R   0.260289 0.214001 0.113908 -0.621347
O40   O     O_2   0.183405 0.111975 0.757840 -0.438288
O41   O     O_R   0.319867 0.121048 0.833426 -0.610048
O42   O     O_2   0.696363 0.774717 0.128476 -0.414926
O43   O     O_R   0.731044 0.907793 0.223089 -0.613190
O44   O     O_R   0.909830 0.409820 0.381260 -0.479975
O45   O     O_R   0.090170 0.590180 0.618740 -0.448360
O46   O     O_R   0.090170 0.590180 0.381260 -0.473885
O47   O     O_R   0.909830 0.409820 0.618740 -0.455543
O48   O     O_R   0.590170 0.909820 0.618740 -0.463330

loop_
_geom_bond_atom_site_label_1
_geom_bond_atom_site_label_2
_ccdc_geom_bond_type
C14   C40   S    
C10   C37   S    
C2    N1    A    
C54   O8    A    
H9    O13   S    
C33   C53   S    
C19   C46   S    
C13   C28   A    
C47   O31   D    
Cu1   O1    S    
C38   O14   D    
C55   O6    A    
C43   O25   D    
C4    N1    A    
C34   O45   A    
C6    N3    A    
Cu3   O6    S    
C49   O37   S    
C4    C56   A    
H8    O43   S    
C15   C41   S    
C40   O19   S    
C3    N2    A    
C14   C30   A    
C22   C49   S    
C55   O7    A    
C42   O22   D    
C32   C54   S    
H11   O17   S    
Cu2   O12   S    
C11   C18   A    
C27   C34   S    
Cu1   O23   S    
Cu2   O46   S    
C36   O10   S    
C35   C45   S    
C40   O18   D    
C19   C31   A    
C39   O17   S    
C8    N3    A    
Cu4   O2    S    
C24   C33   A    
Cu2   O34   S    
C9    C28   A    
C24   C50   S    
Br4   C4    S    
C10   C27   A    
Br5   C5    S    
H1    O10   S    
C17   C24   A    
Br7   C7    S    
C13   C19   A    
C50   O39   S    
C25   C51   S    
C26   C52   S    
H15   O26   S    
C45   O48   A    
C52   O43   S    
C56   N2    A    
C20   C47   S    
H16   O28   S    
C16   C29   A    
C41   O20   D    
Cu2   O44   S    
C47   O32   S    
C44   O28   S    
C16   C42   S    
C11   C38   S    
C43   O26   S    
Cu3   O3    S    
Cu3   Cu4   S    
Cu4   O7    S    
C48   O35   S    
C23   O47   A    
C37   O11   D    
C1    O1    A    
C20   C31   A    
C51   O40   D    
C15   C29   A    
H14   O24   S    
C17   C43   S    
C23   O44   A    
C18   C44   S    
C17   C30   A    
Br6   C6    S    
C12   O23   A    
C36   O9    D    
H6    O39   S    
C12   O12   A    
C15   C26   A    
C45   O4    A    
C42   O24   S    
C1    O34   A    
C10   C21   A    
Cu1   O47   S    
C37   O13   S    
H3    O32   S    
H13   O21   S    
C50   O38   D    
C46   O30   S    
H4    O35   S    
Cu3   O8    S    
Cu4   N4    S    
C22   C35   A    
C46   O29   D    
C52   O42   D    
Br2   C2    S    
Br1   C56   S    
C53   O2    A    
C41   O21   S    
C44   O27   D    
C14   C25   A    
C51   O41   S    
C39   O16   D    
H10   O15   S    
C23   C28   S    
C9    C20   A    
C26   C35   A    
Cu2   N2    S    
Cu1   N1    S    
C21   C48   S    
C31   C55   S    
C38   O15   S    
C54   O5    A    
Cu3   N3    S    
Cu4   O5    S    
C34   O46   A    
C25   C33   A    
C48   O33   D    
Cu3   O48   S    
C9    C36   S    
C11   C27   A    
C49   O36   D    
H12   O19   S    
C12   C29   S    
C18   C32   A    
H2    O30   S    
H5    O37   S    
C5    N4    A    
C1    C30   S    
Cu4   O4    S    
C16   C22   A    
Br3   C3    S    
C2    C3    A    
C53   O3    A    
Br8   C8    S    
Cu1   Cu2   S    
C5    C8    A    
C6    C7    A    
C21   C32   A    
Cu1   O45   S    
H7    O41   S    
C7    N4    A    
C13   C39   S    
