data_mof_unit_44670.cif
_audit_creation_date              2013-03-05T16:07:04-0500
_audit_creation_method            fapswitch 2.2
_symmetry_space_group_name_H-M    P1
_symmetry_Int_Tables_number       1
_space_group_crystal_system       triclinic
_cell_length_a                    16.921936
_cell_length_b                    7.256771
_cell_length_c                    16.864611
_cell_angle_alpha                 91.305985
_cell_angle_beta                  100.446906
_cell_angle_gamma                 88.578573
_cell_volume                      2035.64223

loop_
_atom_site_label
_atom_site_type_symbol
_atom_site_description
_atom_site_fract_x
_atom_site_fract_y
_atom_site_fract_z
_atom_type_partial_charge
O1    O     O_R   0.413450 0.494370 0.415710 -0.585832
O2    O     O_R   0.586550 0.994370 0.584290 -0.586800
O3    O     O_R   0.578420 0.819350 0.429360 -0.590847
O4    O     O_R   0.421580 0.319350 0.570640 -0.597320
C1    C     C_R   0.604601 0.652010 0.413891 0.929083
C2    C     C_R   0.395222 0.158952 0.586312 0.927096
O5    O     O_R   0.413570 0.823780 0.406240 -0.594994
O6    O     O_R   0.586430 0.323780 0.593760 -0.594861
O7    O     O_R   0.420530 0.998740 0.561000 -0.585592
O8    O     O_R   0.579470 0.498740 0.439000 -0.593312
C3    C     C_R   0.385862 0.655489 0.383943 0.923014
C4    C     C_R   0.614131 0.155238 0.616159 0.923292
O9    O     O_3   0.502480 0.662320 0.550800 -0.290465
O10   O     O_3   0.497520 0.162320 0.449200 -0.289137
V1    V     V_3+5 0.499540 0.935370 0.490580 1.143014
V2    V     V_3+5 0.500460 0.435370 0.509420 1.142591
C5    C     C_R   0.734817 0.988264 0.694798 0.191575
C6    C     C_R   0.265197 0.493198 0.305586 0.180385
C7    C     C_R   0.685335 0.146699 0.682245 -0.230115
C8    C     C_R   0.314599 0.647510 0.317858 -0.227499
C9    C     C_R   0.708802 0.301379 0.732327 -0.175390
C10   C     C_R   0.291082 0.798804 0.267344 -0.171038
H1    H     H_    0.673901 0.428480 0.724395 0.153242
H2    H     H_    0.325869 0.922890 0.275013 0.152956
C11   C     C_R   0.774699 0.290342 0.796683 -0.139045
C12   C     C_R   0.225288 0.787474 0.202889 -0.158547
H3    H     H_    0.788182 0.409987 0.835783 0.140807
H4    H     H_    0.211782 0.904066 0.163512 0.143412
C13   C     C_R   0.819226 0.123960 0.813268 -0.217924
C14   C     C_R   0.180850 0.624159 0.186627 -0.230073
C15   C     C_R   0.799761 0.977096 0.758436 0.216121
C16   C     C_R   0.200315 0.481765 0.241901 0.250810
C17   C     C_3   0.784757 0.780001 0.772515 -0.498257
C18   C     C_3   0.215383 0.281229 0.228476 -0.493256
C19   C     C_3   0.713852 0.792137 0.702926 -0.483147
C20   C     C_3   0.286220 0.293616 0.298106 -0.488763
H5    H     H_    0.766664 0.759075 0.831805 0.182317
H6    H     H_    0.233560 0.250910 0.169305 0.179805
H7    H     H_    0.834158 0.687291 0.759156 0.225416
H8    H     H_    0.165975 0.195972 0.242047 0.226438
H9    H     H_    0.654725 0.778074 0.721923 0.193697
H10   H     H_    0.345383 0.270282 0.279236 0.196101
H11   H     H_    0.722476 0.706418 0.649552 0.201908
H12   H     H_    0.277556 0.215440 0.351708 0.202970
C21   C     C_R   0.332091 0.166596 0.637350 -0.123910
C22   C     C_R   0.667234 0.628349 0.363000 -0.125947
C23   C     C_R   0.163975 0.105149 0.858391 -0.295394
C24   C     C_R   0.837203 0.640057 0.141980 -0.293531
C25   C     C_R   0.272896 0.932346 0.811072 -0.185360
C26   C     C_R   0.729421 0.828079 0.183325 -0.169118
C27   C     C_R   0.218678 0.954532 0.863977 -0.117910
C28   C     C_R   0.783813 0.793161 0.131553 -0.122637
C29   C     C_R   0.165379 0.237776 0.798282 0.270234
C30   C     C_R   0.834602 0.518796 0.206156 0.272919
C31   C     C_R   0.220728 0.215171 0.744245 0.026058
C32   C     C_R   0.779041 0.554315 0.258882 0.025182
C33   C     C_R   0.274348 0.060381 0.750670 0.175557
C34   C     C_R   0.726561 0.710825 0.247309 0.173694
C35   C     C_R   0.329027 0.036092 0.696883 -0.244272
C36   C     C_R   0.671643 0.747761 0.299706 -0.242210
C37   C     C_R   0.277940 0.318039 0.630668 -0.166074
C38   C     C_R   0.720208 0.475044 0.374775 -0.165613
C39   C     C_R   0.222728 0.341324 0.682588 -0.128141
C40   C     C_R   0.775675 0.439282 0.324125 -0.126702
H13   H     H_    0.370859 0.919484 0.703099 0.127878
H14   H     H_    0.630811 0.865894 0.289748 0.129090
H15   H     H_    0.278571 0.420365 0.584997 0.136595
H16   H     H_    0.718655 0.381391 0.423571 0.138414
H17   H     H_    0.313524 0.813612 0.817185 0.130488
H18   H     H_    0.689673 0.948015 0.173412 0.128787
H19   H     H_    0.182159 0.459690 0.674160 0.174412
H20   H     H_    0.815413 0.320254 0.336452 0.174355
H21   H     H_    0.219217 0.851586 0.909615 0.157224
H22   H     H_    0.784204 0.887732 0.082843 0.150961
O11   O     O_R   0.920630 0.775410 0.061150 -0.587278
O12   O     O_R   0.079370 0.275410 0.938850 -0.558315
O13   O     O_R   0.086500 0.441450 0.093690 -0.584027
O14   O     O_R   0.913500 0.941450 0.906310 -0.596506
C41   C     C_R   0.113982 0.610202 0.116205 0.937893
C42   C     C_R   0.886014 0.110414 0.883710 0.936104
O15   O     O_R   0.921670 0.445960 0.070740 -0.556569
O16   O     O_R   0.078330 0.945960 0.929260 -0.580207
O17   O     O_R   0.913380 0.271130 0.915780 -0.586503
O18   O     O_R   0.086620 0.771130 0.084220 -0.598984
C43   C     C_R   0.897140 0.617560 0.087412 0.962919
C44   C     C_R   0.103298 0.111117 0.912702 0.967288
O19   O     O_3   0.997500 0.603030 0.949220 -0.259207
O20   O     O_3   0.002500 0.103030 0.050780 -0.270240
V3    V     V_3+5 0.000470 0.329940 0.009420 1.240846
V4    V     V_3+5 0.999530 0.829940 0.990580 1.215408
N1    N     N_R   0.108561 0.389191 0.789635 0.233256
O21   O     O_R   0.133091 0.557045 0.804590 -0.416514
O22   O     O_R   0.031984 0.358890 0.769369 -0.402838
N2    N     N_R   0.890328 0.365723 0.220034 0.234364
O23   O     O_R   0.864725 0.197805 0.209589 -0.413877
O24   O     O_R   0.966968 0.394137 0.240786 -0.405876

loop_
_geom_bond_atom_site_label_1
_geom_bond_atom_site_label_2
_geom_bond_distance
_ccdc_geom_bond_type
C2    C21   1.487801 S    
C29   C31   1.424686 A    
C20   H10   1.112170 S    
O1    C3    1.335204 A    
O2    C4    1.333015 A    
C2    O7    1.317685 A    
O14   V4    2.009372 S    
C24   C30   1.417841 A    
O13   V3    2.012367 S    
C17   H7    1.111623 S    
C22   C38   1.405956 A    
C18   H8    1.111617 S    
C7    C9    1.410066 A    
C28   H22   1.083398 S    
C41   O18   1.334338 A    
O14   C42   1.339298 A    
C33   C35   1.413874 A    
C34   C36   1.411008 A    
C25   C33   1.398171 A    
C37   C39   1.396509 A    
C38   C40   1.395182 A    
O11   V4    1.994879 S    
C17   C19   1.521023 S    
O11   C43   1.332609 A    
C25   C27   1.395256 A    
C31   C39   1.406461 A    
C29   N1    1.434239 S    
C26   C28   1.394098 A    
C32   C40   1.406310 A    
C19   H11   1.111796 S    
C18   C20   1.521165 S    
O12   V3    1.970831 S    
C23   C29   1.417330 A    
O15   V3    1.990245 S    
O5    V1    2.012655 S    
C36   H14   1.084257 S    
O6    V2    2.009703 S    
C25   H17   1.083810 S    
O18   V4    2.000854 S    
C42   O17   1.332060 A    
O13   C41   1.342796 A    
C11   C13   1.413373 A    
O17   V3    2.001095 S    
C30   C32   1.421899 A    
C3    C8    1.487550 S    
C26   C34   1.397702 A    
C23   C44   1.494038 S    
O4    C2    1.306198 A    
N1    O21   1.301053 A    
C23   C27   1.408278 A    
O16   C44   1.332688 A    
C17   H5    1.112133 S    
C16   C18   1.490476 S    
O4    V2    2.037559 S    
O5    C3    1.340234 A    
N1    O22   1.301716 A    
C37   H15   1.083602 S    
O6    C4    1.336686 A    
C15   C17   1.490598 S    
O1    V2    2.001132 S    
N2    O24   1.300893 A    
O2    V1    2.001348 S    
C14   C41   1.487949 S    
C39   H19   1.081774 S    
C12   C14   1.414154 A    
C31   C33   1.419899 A    
C5    C15   1.392101 A    
C10   H2    1.080496 S    
C20   H12   1.111797 S    
C6    C16   1.392361 A    
O12   C44   1.340400 A    
O3    V1    1.990200 S    
C9    C11   1.410129 A    
C21   C35   1.404366 A    
C22   C36   1.403611 A    
C18   H6    1.112095 S    
C24   C43   1.491867 S    
C27   H21   1.083461 S    
C8    C10   1.409794 A    
O3    C1    1.319002 A    
O9    V2    1.772649 S    
C11   H3    1.081602 S    
C1    C22   1.484433 S    
C12   H4    1.081691 S    
O16   V4    2.037606 S    
C38   H16   1.083519 S    
C9    H1    1.080445 S    
C26   H18   1.083821 S    
C1    O8    1.306711 A    
C13   C15   1.400535 A    
O8    V2    2.010145 S    
C35   H13   1.084225 S    
C14   C16   1.400310 A    
C13   C42   1.486998 S    
C4    C7    1.486689 S    
C21   C37   1.406557 A    
C5    C7    1.402448 A    
C32   C34   1.419119 A    
C6    C8    1.403142 A    
C40   H20   1.081726 S    
O7    V1    1.982392 S    
N2    O23   1.300888 A    
C19   H9    1.112183 S    
C30   N2    1.434490 S    
C24   C28   1.408210 A    
O20   V3    1.799994 S    
C10   C12   1.410495 A    
O19   V4    1.772253 S    
O10   V1    1.800411 S    
C5    C19   1.490593 S    
C6    C20   1.490802 S    
O15   C43   1.342671 A    
