data_mof_unit_19008.cif
_audit_creation_date              2012-12-10T17:13:37-0500
_audit_creation_method            fapswitch 2.2
_symmetry_space_group_name_H-M    P1
_symmetry_Int_Tables_number       1
_space_group_crystal_system       triclinic
_cell_length_a                    10.788634
_cell_length_b                    13.020056
_cell_length_c                    11.785342
_cell_angle_alpha                 98.932913
_cell_angle_beta                  93.105116
_cell_angle_gamma                 92.446426
_cell_volume                      1630.79790901

loop_
_atom_site_label
_atom_site_type_symbol
_atom_type_description
_atom_site_fract_x
_atom_site_fract_y
_atom_site_fract_z
_atom_type_partial_charge
C1    C     C_R   0.499828 0.299571 0.479783 0.922520
C2    C     C_3   0.877212 0.498301 0.497223 -0.112503
C3    C     C_3   0.939626 0.610126 0.540146 -0.146195
C4    C     C_3   0.918342 0.457999 0.374324 -0.347755
C5    C     C_R   0.520636 0.814415 0.534937 -0.136816
C6    C     C_R   0.496631 0.186331 0.471357 -0.121289
C7    C     C_R   0.444425 0.016780 0.358946 -0.134680
C8    C     C_R   0.449838 0.124432 0.368623 -0.188175
C9    C     C_R   0.536077 0.139377 0.566577 0.432094
C10   C     C_R   0.517582 0.031370 0.560621 -0.036921
C11   C     C_R   0.479866 0.969882 0.453711 0.044310
C12   C     C_R   0.259861 0.495062 0.500204 0.886957
C13   C     C_R   0.476970 0.862078 0.443130 -0.231517
C14   C     C_R   0.564812 0.876468 0.641039 -0.003592
C15   C     C_R   0.541150 0.982341 0.657276 0.404988
C16   C     C_R   0.362014 0.412374 0.030428 -0.001460
C17   C     C_R   0.384865 0.417165 0.150376 -0.000272
C18   C     C_R   0.551822 0.541955 0.154109 0.528336
C19   C     C_R   0.540352 0.535543 0.032432 -0.054861
C20   C     C_R   0.447997 0.467098 0.968125 -0.086407
C21   C     C_R   0.447717 0.456211 0.844716 0.596312
C22   C     C_R   0.608542 0.587371 0.853664 -0.004182
C23   C     C_R   0.509389 0.700539 0.521085 0.799884
C24   C     C_R   0.619747 0.595638 0.973622 -0.246627
C25   C     C_R   0.739592 0.499999 0.499004 0.833836
C26   C     C_3   0.068743 0.430074 0.593889 0.640752
C27   C     C_3   0.923840 0.421945 0.578728 0.148164
C28   C     C_3   0.081999 0.606905 0.526572 -0.508914
C29   C     C_3   0.060162 0.447500 0.377620 0.176909
C30   C     C_3   0.121150 0.492636 0.500591 -0.103571
Cu1   Cu    Cu3+1 0.509350 0.507730 0.615930 1.053287
Cu2   Cu    Cu3+1 0.490650 0.492270 0.384070 1.008020
H1    H     H_    0.892059 0.512173 0.314073 0.181371
H2    H     H_    0.109715 0.647655 0.454776 0.179391
H3    H     H_    0.442850 0.815302 0.362289 0.187040
H4    H     H_    0.411910 0.970222 0.277580 0.160410
H5    H     H_    0.418855 0.159229 0.294986 0.188569
H6    H     H_    0.671174 0.633355 0.811044 0.134569
H7    H     H_    0.691491 0.649414 0.019058 0.201069
H8    H     H_    0.326764 0.372744 0.198787 0.180789
H9    H     H_    0.886137 0.443725 0.664669 0.165898
H10   H     H_    0.132682 0.650181 0.605490 0.227012
H11   H     H_    0.924274 0.630215 0.633546 0.182656
H12   H     H_    0.096917 0.493408 0.313458 0.123961
H13   H     H_    0.868602 0.382572 0.337940 0.253410
N1    N     N_R   0.523430 0.519360 0.790130 -0.204156
N2    N     N_R   0.476570 0.480640 0.209880 -0.225990
O1    O     O_R   0.506640 0.354460 0.582000 -0.478077
O2    O     O_R   0.490840 0.341410 0.386200 -0.601061
O3    O     O_R   0.325590 0.506510 0.597900 -0.510362
O4    O     O_R   0.309790 0.493450 0.402100 -0.605153
O5    O     O_R   0.509160 0.658590 0.613800 -0.610320
O6    O     O_R   0.493360 0.645540 0.418000 -0.543239
O7    O     O_R   0.690210 0.506550 0.597900 -0.604276
O8    O     O_R   0.674410 0.493490 0.402100 -0.539560
Cl1   Cl    Cl    0.110762 0.497394 0.737286 -0.681216
C31   C     C_3   0.883081 0.697290 0.480233 -0.336160
C32   C     C_3   0.940610 0.806162 0.529712 -0.403914
C33   C     C_3   0.873138 0.890829 0.478825 -0.719182
H14   H     H_    0.880137 0.879948 0.384056 0.269504
H15   H     H_    0.773673 0.888575 0.498116 0.249805
H16   H     H_    0.916033 0.968471 0.516756 0.274721
H17   H     H_    0.936109 0.819960 0.624491 0.231544
H18   H     H_    0.039902 0.812457 0.510169 0.237098
H19   H     H_    0.896639 0.682473 0.386575 0.243936
H20   H     H_    0.781657 0.697770 0.491834 0.204473
C34   C     C_3   0.640054 0.832356 0.734262 -0.362097
C35   C     C_3   0.751350 0.903764 0.791099 -0.334022
C36   C     C_3   0.837927 0.845599 0.862920 -0.841105
H21   H     H_    0.787213 0.817951 0.932930 0.262231
H22   H     H_    0.874888 0.777675 0.808593 0.242811
H23   H     H_    0.917396 0.898667 0.902061 0.268718
H24   H     H_    0.804329 0.934362 0.724330 0.235610
H25   H     H_    0.719863 0.971080 0.849726 0.289031
H26   H     H_    0.577716 0.813705 0.801111 0.233702
H27   H     H_    0.682193 0.760503 0.694221 0.196864
Cl2   Cl    Cl    0.505338 0.043043 0.796141 -0.550120
Cl3   Cl    Cl    0.633230 0.210455 0.681735 -0.465136
Cl4   Cl    Cl    0.369073 0.348150 0.760878 -0.488019
Cl5   Cl    Cl    0.133481 0.304328 0.588871 -0.396754
C37   C     C_3   0.241969 0.356148 0.973569 -0.337261
C38   C     C_3   0.135803 0.343059 0.052565 -0.426938
C39   C     C_3   0.012978 0.309606 0.983347 -0.652220
H28   H     H_    0.984575 0.370566 0.932339 0.275093
H29   H     H_    0.022090 0.235417 0.924269 0.271374
H30   H     H_    0.939321 0.297789 0.043013 0.253182
H31   H     H_    0.158300 0.281310 0.104301 0.270922
H32   H     H_    0.123850 0.417646 0.110057 0.240290
H33   H     H_    0.205134 0.402874 0.909935 0.291556
H34   H     H_    0.262925 0.277254 0.930541 0.269330
Cl6   Cl    Cl    0.663111 0.631135 0.234784 -0.685044
Cl7   Cl    Cl    0.858353 0.291481 0.529674 -0.493202
Cl8   Cl    Cl    0.096176 0.315415 0.328369 -0.593985

loop_
_geom_bond_atom_site_label_1
_geom_bond_atom_site_label_2
_ccdc_geom_bond_type
C7    H4    S    
C19   C20   A    
C31   H20   S    
C18   N2    A    
C6    C9    A    
C37   C38   S    
C23   O5    A    
C7    C8    A    
C7    C11   A    
C3    H11   S    
C26   C27   S    
C18   Cl6   S    
C3    C28   S    
C13   H3    S    
C10   C15   A    
C35   H25   S    
C38   H31   S    
C22   H6    S    
C24   H7    S    
C18   C19   A    
C36   H22   S    
Cu1   Cu2   S    
C16   C17   A    
Cu1   N1    S    
C14   C34   S    
C2    C27   S    
C9    C10   A    
Cu1   O5    S    
Cu2   O8    S    
C5    C13   A    
C4    C29   S    
C37   H33   S    
C28   H2    S    
C33   H14   S    
C23   O6    A    
C4    H13   S    
C32   H18   S    
C33   H15   S    
C34   C35   S    
C17   N2    A    
C25   O7    A    
C35   C36   S    
C6    C8    A    
C35   H24   S    
C12   C30   S    
C26   Cl5   S    
C1    C6    S    
C17   H8    S    
C36   H23   S    
C2    C4    S    
Cu2   O4    S    
C29   C30   S    
C27   H9    S    
C39   H28   S    
C5    C23   S    
C16   C20   A    
C21   Cl4   S    
C27   Cl7   S    
C5    C14   A    
C37   H34   S    
C3    C31   S    
C22   N1    A    
C26   C30   S    
Cu1   O1    S    
C29   H12   S    
Cu2   N2    S    
C22   C24   A    
C34   H26   S    
C8    H5    S    
Cu1   O3    S    
Cu2   O6    S    
C12   O4    A    
C21   N1    A    
C32   H17   S    
C4    H1    S    
C33   H16   S    
C39   H29   S    
C25   O8    A    
C31   H19   S    
C26   Cl1   S    
C12   O3    A    
C1    O1    A    
C28   C30   S    
C2    C3    S    
C32   C33   S    
C29   Cl8   S    
C11   C13   A    
C31   C32   S    
C15   Cl2   S    
C38   H32   S    
C28   H10   S    
C16   C37   S    
C19   C24   A    
C2    C25   S    
C9    Cl3   S    
Cu1   O7    S    
C36   H21   S    
Cu2   O2    S    
C10   C11   A    
C39   H30   S    
C20   C21   A    
C38   C39   S    
C14   C15   A    
C34   H27   S    
C1    O2    A    
