data_mof_unit_44784.cif
_audit_creation_date              2012-12-10T17:33:59-0500
_audit_creation_method            fapswitch 2.2
_symmetry_space_group_name_H-M    P1
_symmetry_Int_Tables_number       1
_space_group_crystal_system       triclinic
_cell_length_a                    10.692976
_cell_length_b                    12.051847
_cell_length_c                    12.884194
_cell_angle_alpha                 93.61466
_cell_angle_beta                  91.530799
_cell_angle_gamma                 86.432917
_cell_volume                      1653.44099737

loop_
_atom_site_label
_atom_site_type_symbol
_atom_type_description
_atom_site_fract_x
_atom_site_fract_y
_atom_site_fract_z
_atom_type_partial_charge
C1    C     C_R   0.494523 0.522064 0.699998 0.877443
C2    C     C_R   0.475946 0.443713 0.971430 0.090608
C3    C     C_R   0.518285 0.541197 0.024666 0.104960
C4    C     C_R   0.742288 0.501520 0.502608 0.863651
C5    C     C_R   0.529802 0.546929 0.131308 -0.323007
C6    C     C_R   0.462826 0.356762 0.135192 0.171780
C7    C     C_R   0.465720 0.346558 0.026106 0.189334
C8    C     C_R   0.379814 0.956389 0.401324 -0.084338
C9    C     C_R   0.391270 0.839422 0.410251 0.300624
C10   C     C_R   0.548844 0.858944 0.542839 -0.109688
C11   C     C_R   0.540304 0.975532 0.535076 0.035856
C12   C     C_3   0.122233 0.501097 0.504275 0.050281
C13   C     C_R   0.455201 0.025264 0.464095 -0.006332
C14   C     C_R   0.447935 0.142921 0.458421 -0.093857
C15   C     C_R   0.607176 0.158875 0.589215 0.369066
C16   C     C_R   0.498853 0.476884 0.299352 0.882072
C17   C     C_R   0.615576 0.043185 0.597425 -0.299000
C18   C     C_R   0.258417 0.500285 0.503933 0.872732
C19   C     C_3   0.936821 0.402821 0.558612 -0.551055
C20   C     C_3   0.078786 0.392473 0.547026 -0.406242
C21   C     C_3   0.926904 0.492575 0.387358 0.030578
C22   C     C_3   0.925497 0.614230 0.563912 0.011575
C23   C     C_3   0.068313 0.514254 0.390159 -0.010074
C24   C     C_3   0.878833 0.505655 0.501505 0.095653
C25   C     C_3   0.851702 0.560405 0.306207 -0.917846
C26   C     C_3   0.421600 0.260231 0.193600 -0.853425
C27   C     C_3   0.480686 0.231502 0.971197 -0.925964
C28   C     C_3   0.349590 0.371544 0.814064 -0.840780
C29   C     C_3   0.693994 0.222595 0.661089 -0.882865
C30   C     C_1   0.290407 0.005091 0.327476 0.128236
C31   C     C_3   0.305086 0.771558 0.339958 -0.829484
C32   C     C_3   0.137811 0.439353 0.305753 -0.947987
C33   C     C_3   0.890079 0.729596 0.519975 -0.923991
C34   C     C_3   0.070333 0.602514 0.576093 -0.199294
C35   C     C_1   0.108772 0.595306 0.686802 0.123749
C36   C     C_R   0.495964 0.458855 0.187148 -0.122071
C37   C     C_R   0.488272 0.534855 0.811298 -0.056204
C38   C     C_R   0.547841 0.632851 0.970915 -0.183188
C39   C     C_R   0.537733 0.627738 0.863779 -0.252923
C40   C     C_R   0.444750 0.447591 0.865429 0.142131
H1    H     H_    0.899769 0.323246 0.526173 0.213990
H2    H     H_    0.612992 0.821254 0.598770 0.134237
H3    H     H_    0.124349 0.376398 0.623676 0.189280
H4    H     H_    0.105032 0.319184 0.493569 0.198923
H5    H     H_    0.916325 0.403980 0.359605 0.180803
H6    H     H_    0.881907 0.617856 0.641893 0.148860
H7    H     H_    0.895490 0.546827 0.228995 0.244096
H8    H     H_    0.755321 0.531797 0.296770 0.243807
H9    H     H_    0.845439 0.650737 0.326534 0.262983
H10   H     H_    0.376184 0.196431 0.142354 0.246617
H11   H     H_    0.503515 0.218939 0.233440 0.251576
H12   H     H_    0.111577 0.679331 0.552237 0.170566
H13   H     H_    0.349574 0.290012 0.250638 0.241535
H14   H     H_    0.537277 0.173455 0.020016 0.250035
H15   H     H_    0.387880 0.197394 0.953783 0.248051
H16   H     H_    0.534481 0.233119 0.899005 0.242897
H17   H     H_    0.294305 0.413984 0.752606 0.234821
H18   H     H_    0.396321 0.294889 0.777124 0.254540
H19   H     H_    0.280603 0.349610 0.871129 0.237070
H20   H     H_    0.673258 0.208000 0.742926 0.213426
H21   H     H_    0.792408 0.192171 0.645970 0.211335
H22   H     H_    0.688592 0.312297 0.654267 0.288361
H23   H     H_    0.079564 0.601574 0.370177 0.175787
H24   H     H_    0.323307 0.785399 0.257436 0.219631
H25   H     H_    0.312609 0.682285 0.346264 0.284172
H26   H     H_    0.206055 0.798602 0.356622 0.204821
H27   H     H_    0.140435 0.350358 0.323433 0.250132
H28   H     H_    0.091163 0.448118 0.228511 0.257360
H29   H     H_    0.234836 0.464976 0.298933 0.236359
H30   H     H_    0.945352 0.743388 0.450889 0.235721
H31   H     H_    0.790345 0.746139 0.500301 0.277978
H32   H     H_    0.913645 0.795744 0.580066 0.231298
H33   H     H_    0.561517 0.622467 0.171279 0.182121
H34   H     H_    0.582942 0.706580 0.011431 0.147250
H35   H     H_    0.569576 0.695550 0.821949 0.164613
H36   H     H_    0.382138 0.183711 0.405987 0.147692
H37   H     H_    0.913557 0.411690 0.642585 0.190720
H38   H     H_    0.681614 0.006123 0.652639 0.149845
N1    N     N_R   0.523380 0.207800 0.519350 -0.103315
N2    N     N_R   0.476620 0.792180 0.480650 -0.104665
N3    N     N_1   0.219239 0.043876 0.268747 -0.220736
N4    N     N_1   0.137958 0.590890 0.773639 -0.208782
O1    O     O_R   0.506240 0.421700 0.658830 -0.625119
O2    O     O_R   0.491240 0.609310 0.646410 -0.620349
O3    O     O_R   0.692710 0.406190 0.506230 -0.638579
O4    O     O_R   0.677700 0.593810 0.493810 -0.613408
O5    O     O_R   0.508760 0.390690 0.353590 -0.608498
O6    O     O_R   0.493760 0.578300 0.341170 -0.628949
O7    O     O_R   0.322300 0.406190 0.506190 -0.622853
O8    O     O_R   0.307290 0.593810 0.493770 -0.647598
Zn1   Zn    Zn3+2 0.510020 0.374730 0.508290 0.927454
Zn2   Zn    Zn3+2 0.489980 0.625270 0.491710 0.931375

loop_
_geom_bond_atom_site_label_1
_geom_bond_atom_site_label_2
_ccdc_geom_bond_type
C31   H26   S    
C8    C13   A    
O5    Zn1   S    
C10   H2    S    
C19   C20   S    
O3    Zn1   S    
C27   H14   S    
C28   H17   S    
C1    O2    A    
C12   C23   S    
C37   C40   A    
C26   H10   S    
C38   C39   A    
C4    C24   S    
C27   H15   S    
C4    O4    A    
C28   C40   S    
C5    C36   A    
C7    C27   S    
C31   H25   S    
C34   C35   S    
C19   H37   S    
C33   H32   S    
C15   N1    A    
O6    Zn2   S    
C3    C38   A    
C8    C9    A    
C16   O5    A    
C39   H35   S    
O7    Zn1   S    
C25   H7    S    
N1    Zn1   S    
C1    C37   S    
C32   H28   S    
C23   H23   S    
C13   C14   A    
C20   H4    S    
C35   N4    T    
C15   C29   S    
C9    C31   S    
C21   H5    S    
C22   C34   S    
C29   H21   S    
C18   O8    A    
C10   N2    A    
C27   H16   S    
C4    O3    A    
C9    N2    A    
C14   H36   S    
N2    Zn2   S    
O8    Zn2   S    
C29   H20   S    
C12   C20   S    
C14   N1    A    
C25   H8    S    
C32   H29   S    
C33   H30   S    
C32   H27   S    
C22   H6    S    
C21   C23   S    
C2    C7    A    
C22   C24   S    
C12   C34   S    
C26   H13   S    
C20   H3    S    
C38   H34   S    
C28   H19   S    
C15   C17   A    
C22   C33   S    
C21   C25   S    
C29   H22   S    
C11   C17   A    
C18   O7    A    
C31   H24   S    
C3    C5    A    
C6    C7    A    
C28   H18   S    
C1    O1    A    
O1    Zn1   S    
C34   H12   S    
C8    C30   S    
C23   C32   S    
C30   N3    T    
C2    C3    A    
C37   C39   A    
O4    Zn2   S    
C26   H11   S    
C16   C36   S    
C11   C13   A    
C6    C26   S    
C17   H38   S    
C6    C36   A    
C19   C24   S    
C5    H33   S    
C25   H9    S    
C10   C11   A    
C33   H31   S    
C2    C40   A    
C21   C24   S    
C12   C18   S    
C16   O6    A    
O2    Zn2   S    
C19   H1    S    
