data_mof_unit_61680.cif
_audit_creation_date              2012-12-10T21:20:50-0500
_audit_creation_method            fapswitch 2.2
_symmetry_space_group_name_H-M    P1
_symmetry_Int_Tables_number       1
_space_group_crystal_system       triclinic
_cell_length_a                    17.403783
_cell_length_b                    16.74632
_cell_length_c                    19.193649
_cell_angle_alpha                 89.960851
_cell_angle_beta                  90.063857
_cell_angle_gamma                 89.810766
_cell_volume                      5593.94063222

loop_
_atom_site_label
_atom_site_type_symbol
_atom_type_description
_atom_site_fract_x
_atom_site_fract_y
_atom_site_fract_z
_atom_type_partial_charge
C1    C     C_R   0.352580 0.500122 0.497380 0.907924
C2    C     C_R   0.647205 0.499876 0.497829 0.914562
C3    C     C_R   0.729707 0.499905 0.483877 -0.042011
C4    C     C_R   0.269694 0.500181 0.482839 -0.047240
C5    C     C_R   0.884889 0.505028 0.449396 0.115455
C6    C     C_R   0.114320 0.496972 0.447207 0.114646
C7    C     C_1   0.965372 0.502353 0.440579 -0.035405
C8    C     C_1   0.033637 0.499720 0.439869 -0.034696
C9    C     C_R   0.454622 0.832063 0.452083 -0.083339
C10   C     C_R   0.556994 0.167812 0.536046 -0.083910
C11   C     C_R   0.545543 0.831750 0.547613 -0.088624
C12   C     C_R   0.442737 0.168368 0.464013 -0.086585
C13   C     C_R   0.455764 0.747876 0.453217 -0.023256
C14   C     C_R   0.555648 0.252006 0.535305 -0.022743
C15   C     C_R   0.544546 0.747583 0.546459 -0.025015
C16   C     C_R   0.444239 0.252534 0.464760 -0.017890
C17   C     C_R   0.499984 0.875482 0.499900 0.045676
C18   C     C_R   0.499845 0.124521 0.500006 0.045545
C19   C     C_1   0.499889 0.963522 0.499926 0.001312
C20   C     C_1   0.499837 0.036480 0.499954 0.002159
C21   C     C_R   0.499291 0.500049 0.365583 0.888557
C22   C     C_R   0.499509 0.499957 0.634679 0.887695
C23   C     C_R   0.545894 0.543346 0.250148 -0.071643
C24   C     C_R   0.437008 0.452090 0.743056 -0.072271
C25   C     C_R   0.540710 0.550474 0.750348 -0.062680
C26   C     C_R   0.429831 0.461138 0.258653 -0.064665
C27   C     C_R   0.537194 0.546527 0.177728 -0.036985
C28   C     C_R   0.427882 0.455429 0.815429 -0.038890
C29   C     C_R   0.532017 0.553212 0.822809 -0.038530
C30   C     C_R   0.421491 0.463844 0.186198 -0.038364
C31   C     C_R   0.475086 0.506602 0.146082 -0.035638
C32   C     C_R   0.475374 0.505925 0.855106 -0.034495
C33   C     C_R   0.492273 0.500579 0.290256 -0.144908
C34   C     C_R   0.493056 0.500125 0.710489 -0.150301
C35   C     C_R   0.468834 0.505975 0.930758 0.297328
C36   C     C_R   0.468591 0.506290 0.070655 0.297513
C37   C     C_R   0.853320 0.565475 0.490183 -0.201523
C38   C     C_R   0.147731 0.430470 0.478470 -0.202239
C39   C     C_R   0.157216 0.564658 0.432511 -0.205727
C40   C     C_R   0.840137 0.442393 0.425013 -0.205224
C41   C     C_R   0.775735 0.563524 0.507745 0.055326
C42   C     C_R   0.225250 0.431286 0.496537 0.062607
C43   C     C_R   0.234990 0.566884 0.449572 0.062052
C44   C     C_R   0.762271 0.439447 0.441531 0.052517
H1    H     H_    0.889328 0.613116 0.509955 0.144661
H2    H     H_    0.113092 0.378633 0.490802 0.144394
H3    H     H_    0.130082 0.616416 0.408878 0.146236
H4    H     H_    0.865753 0.395278 0.393935 0.146014
H5    H     H_    0.421300 0.714527 0.416447 0.147140
H6    H     H_    0.599278 0.285256 0.563051 0.139710
H7    H     H_    0.579580 0.714005 0.582757 0.159192
H8    H     H_    0.400621 0.286176 0.437093 0.151149
N1    N     N_R   0.475173 0.436609 0.035478 -0.150803
N2    N     N_R   0.461073 0.575593 0.966014 -0.151780
N3    N     N_R   0.475380 0.436472 0.966402 -0.150929
N4    N     N_R   0.461089 0.575773 0.035145 -0.151296
N5    N     N_R   0.500000 0.707230 0.500000 -0.100541
N6    N     N_R   0.500000 0.292770 0.500000 -0.098113
O1    O     O_R   0.389110 0.566570 0.500000 -0.600562
O2    O     O_R   0.610890 0.433430 0.500000 -0.610157
O3    O     O_R   0.610890 0.566570 0.500000 -0.595147
O4    O     O_R   0.389110 0.433430 0.500000 -0.596539
O5    O     O_R   0.499990 0.566560 0.398140 -0.617550
O6    O     O_R   0.500010 0.433440 0.601860 -0.610475
O7    O     O_R   0.500010 0.566560 0.601860 -0.613200
O8    O     O_R   0.499990 0.433440 0.398140 -0.609940
Zn1   Zn    Zn3+2 0.500000 0.588860 0.500000 0.977347
Zn2   Zn    Zn3+2 0.500000 0.411140 0.500000 0.978648
C45   C     C_1   0.611121 0.581848 0.283237 0.185305
N7    N     N_1   0.663065 0.612396 0.309718 -0.185082
C46   C     C_1   0.387301 0.400544 0.702367 0.207102
N8    N     N_1   0.347798 0.359138 0.670173 -0.186328
C47   C     C_1   0.600827 0.597052 0.717470 0.186071
N9    N     N_1   0.648940 0.634253 0.691680 -0.209114
C48   C     C_1   0.372610 0.420459 0.300673 0.180705
N10   N     N_1   0.326912 0.388139 0.334056 -0.206173
C49   C     C_1   0.593536 0.588403 0.135691 0.204654
N11   N     N_1   0.638426 0.621743 0.102172 -0.163139
C50   C     C_1   0.368211 0.408538 0.848811 0.200965
N12   N     N_1   0.320667 0.371209 0.875385 -0.166810
C51   C     C_1   0.583505 0.602219 0.864205 0.208219
N13   N     N_1   0.624550 0.641223 0.897158 -0.160422
C52   C     C_1   0.356863 0.424403 0.153063 0.203550
N14   N     N_1   0.305370 0.392991 0.126645 -0.166708
N15   N     N_3   0.744384 0.625152 0.551083 -0.435374
H9    H     H_    0.752223 0.679848 0.525808 0.198970
H10   H     H_    0.775938 0.626456 0.597454 0.199036
N16   N     N_3   0.257947 0.362506 0.529841 -0.421453
H11   H     H_    0.225999 0.350491 0.574722 0.198476
H12   H     H_    0.251948 0.313855 0.496169 0.193903
N17   N     N_3   0.278461 0.636475 0.431689 -0.442875
H13   H     H_    0.253192 0.685848 0.456003 0.191800
H14   H     H_    0.274672 0.644928 0.377809 0.185456
N18   N     N_3   0.716232 0.376157 0.413733 -0.429542
H15   H     H_    0.719941 0.378160 0.359388 0.190674
H16   H     H_    0.739636 0.321826 0.430438 0.190070
C53   C     C_1   0.406746 0.872271 0.401521 0.167598
N19   N     N_1   0.368351 0.904429 0.360942 -0.170833
C54   C     C_1   0.617379 0.127442 0.573929 0.170036
N20   N     N_1   0.665843 0.095146 0.604294 -0.171087
C55   C     C_1   0.593542 0.871597 0.598049 0.179074
N21   N     N_1   0.632037 0.903445 0.638540 -0.164439
C56   C     C_1   0.382223 0.128624 0.426181 0.173734
N22   N     N_1   0.333646 0.096846 0.395853 -0.169557

loop_
_geom_bond_atom_site_label_1
_geom_bond_atom_site_label_2
_ccdc_geom_bond_type
O8    Zn2   S    
C55   N21   T    
C5    C37   A    
C21   O8    A    
C47   N9    T    
C23   C45   S    
C19   C20   T    
C1    O4    A    
C53   N19   T    
C7    C8    T    
C49   N11   T    
C52   N14   T    
O6    Zn2   S    
C38   C42   A    
C29   C32   A    
C1    O1    A    
C30   C31   A    
C2    O2    A    
C21   C33   S    
C30   C52   S    
C28   C50   S    
C9    C13   A    
C36   N1    A    
O1    Zn1   S    
C11   C15   A    
C11   C17   A    
C12   C16   A    
O7    Zn1   S    
C6    C38   A    
C15   H7    S    
C25   C47   S    
C2    O3    A    
C25   C34   A    
N15   H10   S    
C35   N2    A    
C15   N5    A    
C45   N7    T    
N5    Zn1   S    
C14   N6    A    
C51   N13   T    
N2    N4    A    
N1    N3    A    
C25   C29   A    
C22   C34   S    
O5    Zn1   S    
C3    C44   A    
C38   H2    S    
C27   C31   A    
C32   C35   S    
C16   H8    S    
C28   C32   A    
C12   C56   S    
C10   C14   A    
N17   H13   S    
C5    C7    S    
C39   C43   A    
C23   C33   A    
N15   H9    S    
C35   N3    A    
C43   N17   S    
C48   N10   T    
C22   O7    A    
C29   C51   S    
C36   N4    A    
N17   H14   S    
O3    Zn1   S    
C26   C33   A    
C54   N20   T    
C26   C48   S    
N18   H15   S    
C11   C55   S    
C16   N6    A    
N18   H16   S    
C13   H5    S    
C9    C17   A    
N16   H12   S    
C26   C30   A    
C23   C27   A    
C42   N16   S    
C37   H1    S    
C39   H3    S    
N6    Zn2   S    
C40   H4    S    
C3    C41   A    
C9    C53   S    
C31   C36   S    
C24   C28   A    
C27   C49   S    
C6    C8    S    
C4    C43   A    
C41   N15   S    
O4    Zn2   S    
C1    C4    S    
C2    C3    S    
C46   N8    T    
C14   H6    S    
C4    C42   A    
C10   C18   A    
C17   C19   S    
C18   C20   S    
C37   C41   A    
C10   C54   S    
C24   C34   A    
C21   O5    A    
C44   N18   S    
C22   O6    A    
C50   N12   T    
C40   C44   A    
C13   N5    A    
N16   H11   S    
O2    Zn2   S    
C5    C40   A    
C12   C18   A    
C56   N22   T    
C6    C39   A    
C24   C46   S    
