data_mof_unit_24238.cif
_audit_creation_date              2012-12-11T16:23:58-0500
_audit_creation_method            fapswitch 2.2
_symmetry_space_group_name_H-M    P1
_symmetry_Int_Tables_number       1
_space_group_crystal_system       triclinic
_cell_length_a                    14.753368
_cell_length_b                    14.752011
_cell_length_c                    33.295862
_cell_angle_alpha                 96.10939
_cell_angle_beta                  96.331318
_cell_angle_gamma                 61.223683
_cell_volume                      6301.07812304

loop_
_atom_site_label
_atom_site_type_symbol
_atom_type_description
_atom_site_fract_x
_atom_site_fract_y
_atom_site_fract_z
_atom_type_partial_charge
C1    C     C_R   0.391020 0.699290 0.445996 0.544485
C2    C     C_R   0.330247 0.347861 0.308676 0.040028
C3    C     C_R   0.411956 0.265098 0.328388 -0.104665
C4    C     C_R   0.431798 0.274173 0.370131 -0.122452
C5    C     C_R   0.394123 0.252761 0.165901 -0.093080
C6    C     C_R   0.385044 0.234389 0.124081 -0.109054
C7    C     C_R   0.209653 0.377526 0.121810 -0.121164
C8    C     C_R   0.218941 0.395593 0.163664 -0.103792
C9    C     C_R   0.309999 0.331203 0.185795 0.038358
C10   C     C_1   0.314648 0.339872 0.229075 -0.004417
C11   C     C_1   0.320048 0.344167 0.265401 -0.005464
C12   C     C_R   0.405857 0.386388 0.433973 0.541282
C13   C     C_R   0.291311 0.294203 0.101830 0.016854
C14   C     C_R   0.757627 0.371176 0.410349 0.032405
C15   C     C_R   0.809578 0.419313 0.395934 0.231694
C16   C     C_R   0.838207 0.397336 0.356038 -0.076110
C17   C     C_R   0.817105 0.327033 0.330300 -0.007272
C18   C     C_R   0.775929 0.271338 0.345997 -0.133030
C19   C     C_R   0.746551 0.293146 0.385584 -0.165857
C20   C     C_R   0.836265 0.313789 0.205373 0.350835
C21   C     C_R   0.829194 0.318837 0.286612 0.349145
C22   C     C_R   0.849017 0.389391 0.144403 -0.125263
C23   C     C_R   0.701536 0.409518 0.447711 0.574924
C24   C     C_R   0.877813 0.377168 0.105080 -0.158552
C25   C     C_R   0.893306 0.204653 0.097972 0.224350
C26   C     C_R   0.863940 0.217974 0.137559 -0.077190
C27   C     C_R   0.847024 0.307948 0.161656 -0.009010
C28   C     C_R   0.906427 0.282786 0.082124 0.029924
C29   C     C_R   0.371411 0.752253 0.408461 0.019086
C30   C     C_R   0.281294 0.772924 0.383489 -0.123574
C31   C     C_R   0.273799 0.797356 0.343640 -0.114537
C32   C     C_R   0.355664 0.802765 0.328197 0.034323
C33   C     C_R   0.441382 0.792088 0.354195 -0.109854
C34   C     C_R   0.393608 0.701279 0.561269 0.547026
C35   C     C_R   0.449418 0.766583 0.394070 -0.120553
C36   C     C_R   0.356598 0.817610 0.203495 0.370214
C37   C     C_R   0.354961 0.810389 0.284514 0.336997
C38   C     C_R   0.259667 0.836226 0.136584 -0.150845
C39   C     C_R   0.235435 0.869873 0.097537 -0.124178
C40   C     C_R   0.390742 0.887890 0.101667 -0.090120
C41   C     C_R   0.416205 0.853430 0.140888 0.238950
C42   C     C_R   0.347018 0.832767 0.159665 0.038960
C43   C     C_R   0.297925 0.901011 0.080524 -0.022456
C44   C     C_R   0.371983 0.368207 0.584965 0.019710
C45   C     C_R   0.407491 0.388746 0.549016 0.544413
C46   C     C_R   0.284226 0.446400 0.603485 -0.122672
C47   C     C_R   0.264543 0.436042 0.642300 -0.111333
C48   C     C_R   0.332574 0.347556 0.663175 0.032840
C49   C     C_R   0.415043 0.265807 0.643247 -0.111361
C50   C     C_R   0.434404 0.275890 0.604444 -0.114784
C51   C     C_R   0.313952 0.344454 0.787394 0.343486
C52   C     C_R   0.323709 0.344116 0.706525 0.345924
C53   C     C_R   0.210219 0.390928 0.847539 -0.132218
C54   C     C_R   0.201081 0.373268 0.886712 -0.158784
C55   C     C_R   0.388043 0.264217 0.895185 0.238677
C56   C     C_R   0.701980 0.413320 0.562609 0.575994
C57   C     C_R   0.395704 0.279986 0.855334 -0.045618
C58   C     C_R   0.306822 0.340238 0.830835 -0.017680
C59   C     C_R   0.288504 0.305188 0.910163 0.005743
C60   C     C_R   0.753394 0.382377 0.603338 -0.008782
C61   C     C_R   0.752117 0.460439 0.631963 -0.127265
C62   C     C_R   0.777848 0.441673 0.672879 0.245078
C63   C     C_R   0.806396 0.343545 0.685783 0.005265
C64   C     C_R   0.815078 0.263241 0.657423 -0.118321
C65   C     C_R   0.789333 0.281561 0.616295 0.222360
C66   C     C_R   0.895648 0.208439 0.822387 -0.129611
C67   C     C_R   0.370189 0.366570 0.392479 0.021058
C68   C     C_R   0.924137 0.197826 0.863609 -0.165986
C69   C     C_R   0.856187 0.384576 0.874576 0.239114
C70   C     C_R   0.827608 0.394109 0.832853 -0.092337
C71   C     C_R   0.850349 0.306069 0.806867 0.004174
C72   C     C_1   0.834381 0.315661 0.763979 0.024711
C73   C     C_1   0.822414 0.326292 0.728177 0.052259
C74   C     C_R   0.908714 0.284794 0.889848 0.060107
C75   C     C_R   0.376987 0.754473 0.602049 -0.012147
C76   C     C_R   0.282682 0.787818 0.619479 -0.130667
C77   C     C_R   0.274036 0.816546 0.660679 -0.162142
C78   C     C_R   0.283722 0.446493 0.372726 -0.114933
C79   C     C_R   0.359167 0.812725 0.685014 0.077750
C80   C     C_R   0.452128 0.786041 0.667796 0.268905
C81   C     C_R   0.460341 0.757333 0.626108 -0.121941
C82   C     C_R   0.389938 0.896558 0.831788 -0.113613
C83   C     C_R   0.369621 0.923882 0.872419 -0.169443
C84   C     C_R   0.237867 0.867515 0.863938 0.242035
C85   C     C_R   0.259422 0.840129 0.822908 -0.108398
C86   C     C_R   0.332870 0.857543 0.806800 0.002142
C87   C     C_1   0.344813 0.841454 0.764073 0.010506
C88   C     C_1   0.352195 0.829223 0.728076 0.058602
C89   C     C_R   0.264188 0.437222 0.330949 -0.102246
C90   C     C_R   0.291009 0.913532 0.888651 0.056149
C91   C     C_R   0.963204 0.264221 0.045586 0.567612
C92   C     C_R   0.272742 0.259426 0.060048 0.541857
C93   C     C_R   0.259281 0.959596 0.043776 0.548641
C94   C     C_R   0.961979 0.267787 0.930828 0.571406
C95   C     C_R   0.271149 0.264788 0.945662 0.529012
C96   C     C_R   0.256190 0.964764 0.928947 0.565029
Cr1   Cr    Cr6+3 0.576280 0.580550 0.506370 1.069691
Cr2   Cr    Cr6+3 0.346780 0.572400 0.496520 1.036604
Cr3   Cr    Cr6+3 0.576960 0.347070 0.497150 1.088223
Cr4   Cr    Cr6+3 0.087320 0.083240 0.984860 1.118906
Cr5   Cr    Cr6+3 0.087720 0.316210 0.996740 1.054830
Cr6   Cr    Cr6+3 0.317350 0.090340 0.995890 1.046285
H1    H     H_    0.449274 0.169748 0.109592 0.153640
H2    H     H_    0.708492 0.253450 0.395751 0.147417
H3    H     H_    0.884085 0.439908 0.093713 0.156036
H4    H     H_    0.873650 0.438253 0.344781 0.170700
H5    H     H_    0.760283 0.215419 0.327032 0.151951
H6    H     H_    0.833333 0.461002 0.161921 0.166091
H7    H     H_    0.859745 0.155379 0.150092 0.173350
H8    H     H_    0.219393 0.763457 0.393785 0.141037
H9    H     H_    0.519547 0.751710 0.412723 0.156226
H10   H     H_    0.164067 0.877621 0.081733 0.188190
H11   H     H_    0.465046 0.202826 0.182917 0.140638
H12   H     H_    0.205802 0.807463 0.324409 0.141960
H13   H     H_    0.505153 0.796816 0.343068 0.151772
H14   H     H_    0.205778 0.819047 0.149462 0.160056
H15   H     H_    0.441506 0.908862 0.088482 0.166403
H16   H     H_    0.234372 0.518222 0.589099 0.140611
H17   H     H_    0.502017 0.213764 0.590779 0.161777
H18   H     H_    0.124013 0.407201 0.897409 0.163852
H19   H     H_    0.199719 0.499918 0.656786 0.146220
H20   H     H_    0.467612 0.195800 0.658310 0.149019
H21   H     H_    0.463245 0.195506 0.311258 0.130564
H22   H     H_    0.140494 0.439012 0.829529 0.160882
H23   H     H_    0.471609 0.243660 0.843412 0.167324
H24   H     H_    0.964324 0.120431 0.874423 0.162599
H25   H     H_    0.913142 0.139954 0.802388 0.132815
H26   H     H_    0.839301 0.186808 0.667402 0.154436
H27   H     H_    0.725202 0.538348 0.623054 0.165205
H28   H     H_    0.791180 0.469684 0.820421 0.140655
H29   H     H_    0.498882 0.211307 0.384439 0.137733
H30   H     H_    0.411782 0.958697 0.890524 0.161554
H31   H     H_    0.447381 0.909714 0.819516 0.156479
H32   H     H_    0.533559 0.731775 0.613083 0.122100
H33   H     H_    0.217134 0.786550 0.601756 0.155533
H34   H     H_    0.216567 0.808454 0.803231 0.106152
H35   H     H_    0.202065 0.837596 0.673914 0.126093
H36   H     H_    0.234922 0.518683 0.389056 0.139405
H37   H     H_    0.153587 0.456687 0.178930 0.128070
H38   H     H_    0.136410 0.424847 0.105558 0.138020
H39   H     H_    0.200604 0.501529 0.315824 0.126285
N1    N     N_R   0.845850 0.388584 0.229970 -0.212017
N2    N     N_R   0.237925 0.415015 0.725179 -0.216058
N3    N     N_R   0.404553 0.273782 0.729110 -0.219628
N4    N     N_R   0.399699 0.273782 0.768729 -0.222825
N5    N     N_R   0.842040 0.391279 0.269773 -0.217011
N6    N     N_R   0.819596 0.243914 0.262041 -0.219140
N7    N     N_R   0.823806 0.240988 0.222191 -0.221543
N8    N     N_R   0.295858 0.785335 0.218549 -0.236873
N9    N     N_R   0.295236 0.781528 0.258184 -0.225592
N10   N     N_R   0.416572 0.841823 0.269655 -0.211292
N11   N     N_R   0.416498 0.846299 0.229932 -0.129307
N12   N     N_R   0.232873 0.414714 0.764817 -0.213403
O1    O     O_R   0.679450 0.499830 0.463150 -0.444437
O2    O     O_R   0.356040 0.477400 0.534170 -0.502340
O3    O     O_R   0.495910 0.323070 0.537100 -0.492920
O4    O     O_R   0.663920 0.359620 0.542290 -0.434518
O5    O     O_3   0.500010 0.500010 0.500010 -0.265551
O6    O     O_R   0.170070 0.978950 0.027680 -0.475870
O7    O     O_R   0.001760 0.175230 0.026640 -0.433965
O8    O     O_R   0.984760 0.333570 0.037150 -0.527693
O9    O     O_R   0.183410 0.309240 0.041890 -0.503316
O10   O     O_R   0.340240 0.172500 0.045430 -0.510588
O11   O     O_R   0.309670 0.000990 0.032050 -0.505355
O12   O     O_R   0.480650 0.664000 0.464630 -0.497370
O13   O     O_R   0.168330 0.982130 0.939200 -0.444991
O14   O     O_R   0.000140 0.178170 0.944610 -0.515224
O15   O     O_R   0.983010 0.336750 0.948660 -0.448554
O16   O     O_R   0.181800 0.312190 0.959860 -0.504975
O17   O     O_R   0.338500 0.175680 0.956950 -0.493135
O18   O     O_R   0.308050 0.003930 0.950020 -0.517050
O19   O     O_3   0.164130 0.163270 0.992500 -0.271679
O20   O     O_R   0.323930 0.675950 0.455370 -0.515266
O21   O     O_R   0.354700 0.475360 0.451930 -0.500239
O22   O     O_R   0.494470 0.320860 0.448390 -0.516968
O23   O     O_R   0.662580 0.357570 0.460050 -0.510376
O24   O     O_R   0.680900 0.502040 0.551870 -0.521958
O25   O     O_R   0.481990 0.666040 0.546870 -0.504592
O26   O     O_R   0.325370 0.678160 0.544080 -0.510331
Cl1   Cl    Cl    0.917109 0.086598 0.071012 -0.572880
Cl2   Cl    Cl    0.534695 0.839197 0.164745 -0.557989
O27   O     O_3   0.478787 0.206451 0.917806 -0.671749
H40   H     H_    0.466416 0.226974 0.946809 0.343869
Cl3   Cl    Cl    0.802490 0.175947 0.582640 -0.572094
O28   O     O_3   0.836377 0.470783 0.900438 -0.668105
H41   H     H_    0.799687 0.533762 0.884809 0.327608
Cl4   Cl    Cl    0.768062 0.544490 0.707521 -0.573660
O29   O     O_3   0.534562 0.784585 0.692367 -0.647503
H42   H     H_    0.593689 0.764066 0.675551 0.348517
O30   O     O_3   0.163746 0.852734 0.879909 -0.669586
H43   H     H_    0.134206 0.820344 0.858556 0.324553
Cl5   Cl    Cl    0.838727 0.509131 0.425892 -0.566046

loop_
_geom_bond_atom_site_label_1
_geom_bond_atom_site_label_2
_ccdc_geom_bond_type
Cr6   O17   S    
C7    C13   A    
C66   C68   A    
C15   Cl5   S    
C40   C41   A    
O30   H43   S    
C54   H18   S    
Cr4   O19   S    
C41   C42   A    
N1    N5    A    
C36   C42   S    
N6    N7    A    
C37   N9    A    
C87   C88   T    
Cr5   O15   S    
Cr1   O25   S    
C25   Cl1   S    
C7    C8    A    
C85   C86   A    
C25   C28   A    
C1    O20   A    
C26   C27   A    
C52   N3    A    
C68   H24   S    
C59   C95   S    
C30   H8    S    
C8    H37   S    
C39   H10   S    
C5    C6    A    
C21   N6    A    
Cr5   O9    S    
C77   H35   S    
C38   C42   A    
C55   C59   A    
C57   H23   S    
C7    H38   S    
Cr2   O21   S    
Cr1   O12   S    
C36   N8    A    
N2    N12   A    
C51   N4    A    
C68   C74   A    
C15   C16   A    
Cr2   O2    S    
C70   H28   S    
C66   H25   S    
C46   H16   S    
Cr5   O19   S    
Cr4   O13   S    
C18   C19   A    
C93   O6    A    
C74   C94   S    
C18   H5    S    
C43   C93   S    
O27   H40   S    
C89   H39   S    
C40   C43   A    
Cr3   O23   S    
C66   C71   A    
C53   C54   A    
C44   C46   A    
Cr6   O10   S    
C64   H26   S    
C96   O18   A    
N10   N11   A    
C20   N7    A    
C84   O30   S    
C70   C71   A    
C45   O2    A    
C92   O9    A    
C9    C10   S    
C31   H12   S    
C23   O1    A    
C61   H27   S    
C34   C75   S    
C54   C59   A    
C40   H15   S    
Cr5   O8    S    
C41   Cl2   S    
C34   O26   A    
C61   C62   A    
C67   C78   A    
C84   C90   A    
C37   N10   A    
C2    C11   S    
C78   H36   S    
C79   C88   S    
C76   H33   S    
C3    H21   S    
C4    H29   S    
C56   O24   A    
C77   C79   A    
C78   C89   A    
Cr6   O19   S    
C12   C67   S    
C33   H13   S    
C52   N2    A    
C63   C64   A    
C50   H17   S    
C20   N1    A    
C81   H32   S    
C76   C77   A    
C94   O15   A    
C51   C58   S    
Cr2   O20   S    
C86   C87   S    
C16   C17   A    
C39   C43   A    
C23   O23   A    
C63   C73   S    
C93   O11   A    
C25   C26   A    
C32   C37   S    
C17   C21   S    
C56   C60   S    
C60   C61   A    
C14   C23   S    
C2    C89   A    
C75   C76   A    
C5    C9    A    
C29   C30   A    
C75   C81   A    
C56   O4    A    
C38   H14   S    
C19   H2    S    
Cr4   O7    S    
Cr1   O24   S    
C47   C48   A    
C1    O12   A    
C30   C31   A    
Cr3   O3    S    
C62   C63   A    
C1    C29   S    
C17   C18   A    
C8    C9    A    
C69   C74   A    
C45   O3    A    
C6    H1    S    
C84   C85   A    
Cr5   O16   S    
C95   O16   A    
C26   H7    S    
C91   O7    A    
C12   O22   A    
C92   O10   A    
C48   C49   A    
C60   C65   A    
C49   C50   A    
C22   C27   A    
C55   C57   A    
C13   C92   S    
C22   C24   A    
C80   C81   A    
C34   O25   A    
C3    C4    A    
C69   O28   S    
C35   H9    S    
C44   C45   S    
C12   O21   A    
C44   C50   A    
Cr6   O18   S    
C83   C90   A    
C46   C47   A    
C51   N12   A    
C5    H11   S    
C14   C19   A    
C31   C32   A    
C36   N11   A    
C24   C28   A    
C72   C73   T    
C53   H22   S    
Cr1   O1    S    
C94   O14   A    
C4    C67   A    
C53   C58   A    
C90   C96   S    
C20   C27   S    
C16   H4    S    
C29   C35   A    
O28   H41   S    
N3    N4    A    
C32   C33   A    
C82   H31   S    
Cr3   O4    S    
C2    C3    A    
C83   H30   S    
C82   C86   A    
N8    N9    A    
Cr1   O5    S    
C6    C13   A    
Cr4   O6    S    
C57   C58   A    
C38   C39   A    
C91   O8    A    
C22   H6    S    
C49   H20   S    
C64   C65   A    
Cr4   O14   S    
C33   C35   A    
C55   O27   S    
C28   C91   S    
C96   O13   A    
C69   C70   A    
C95   O17   A    
C47   H19   S    
C10   C11   T    
C85   H34   S    
C79   C80   A    
Cr2   O5    S    
C48   C52   S    
C21   N5    A    
Cr3   O22   S    
Cr6   O11   S    
C82   C83   A    
Cr3   O5    S    
C14   C15   A    
O29   H42   S    
C24   H3    S    
C71   C72   S    
Cr2   O26   S    
C62   Cl4   S    
C80   O29   S    
C65   Cl3   S    
