data_mof_unit_20579.cif
_audit_creation_date              2012-10-26T18:30:20-0400
_audit_creation_method            fapswitch 2.2
_symmetry_space_group_name_H-M    P1
_symmetry_Int_Tables_number       1
_space_group_crystal_system       triclinic
_cell_length_a                    10.672081
_cell_length_b                    13.105841
_cell_length_c                    11.658764
_cell_angle_alpha                 99.162029
_cell_angle_beta                  93.337729
_cell_angle_gamma                 90.17739
_cell_volume                      1607.01019468

loop_
_atom_site_label
_atom_site_type_symbol
_atom_type_description
_atom_site_fract_x
_atom_site_fract_y
_atom_site_fract_z
_atom_type_partial_charge
C1    C     C_R   0.500460 0.299578 0.479744 0.547316
C2    C     C_R   0.604320 0.589820 0.854750 0.060291
C3    C     C_R   0.548616 0.543421 0.156300 0.086913
C4    C     C_R   0.451384 0.456579 0.843700 0.086912
C5    C     C_R   0.541416 0.536292 0.033661 0.020497
C6    C     C_R   0.458584 0.463708 0.966339 0.020497
C7    C     C_R   0.259540 0.500136 0.500926 0.554953
C8    C     C_R   0.740460 0.499864 0.499074 0.554953
C9    C     C_3   0.045073 0.494252 0.607838 -0.017799
C10   C     C_3   0.954926 0.505748 0.392162 -0.017799
C11   C     C_3   0.959839 0.412922 0.531524 -0.032273
C12   C     C_R   0.499540 0.700422 0.520256 0.547316
C13   C     C_3   0.040161 0.587078 0.468476 -0.032273
C14   C     C_3   0.876580 0.499644 0.497283 -0.003686
C15   C     C_3   0.123420 0.500355 0.502717 -0.003686
C16   C     C_3   0.961102 0.582238 0.574606 -0.156836
C17   C     C_3   0.038898 0.417762 0.425394 -0.156836
C18   C     C_R   0.502151 0.812968 0.529759 -0.002917
C19   C     C_R   0.497848 0.187032 0.470241 -0.002917
C20   C     C_R   0.434813 0.023498 0.355068 -0.128579
C21   C     C_R   0.565186 0.976502 0.644932 -0.128579
C22   C     C_R   0.447019 0.129548 0.366623 -0.143152
C23   C     C_R   0.540463 0.136609 0.563721 -0.015980
C24   C     C_R   0.552981 0.870452 0.633377 -0.143152
C25   C     C_1   0.915424 0.316250 0.564669 0.220272
C26   C     C_1   0.084576 0.683750 0.435331 0.220272
C27   C     C_1   0.093016 0.487922 0.727085 0.233886
C28   C     C_1   0.906984 0.512078 0.272915 0.233886
C29   C     C_1   0.400325 0.805549 0.330011 0.228280
C30   C     C_1   0.599675 0.194451 0.669989 0.228279
C31   C     C_R   0.459537 0.863391 0.436279 -0.015980
C32   C     C_R   0.526845 0.028587 0.552640 0.028407
C33   C     C_R   0.473154 0.971413 0.447359 0.028407
C34   C     C_R   0.385253 0.400416 0.023199 -0.144829
C35   C     C_R   0.614747 0.599584 0.976801 -0.144829
C36   C     C_R   0.395680 0.410180 0.145249 0.060291
Cu1   Cu    Cu3+1 0.509400 0.507730 0.615930 0.981961
Cu2   Cu    Cu3+1 0.490600 0.492270 0.384070 0.981961
H1    H     H_    0.927686 0.649393 0.635156 0.123726
H2    H     H_    0.338949 0.361062 0.188397 0.124150
H3    H     H_    0.320465 0.343848 0.973845 0.112491
H4    H     H_    0.679535 0.656152 0.026155 0.112491
H5    H     H_    0.072314 0.350607 0.364843 0.123726
H6    H     H_    0.586123 0.833069 0.705718 0.133844
H7    H     H_    0.413876 0.166931 0.294282 0.133844
H8    H     H_    0.394104 0.983109 0.273106 0.134305
H9    H     H_    0.605896 0.016891 0.726894 0.134305
H10   H     H_    0.388097 0.400983 0.790885 0.133718
H11   H     H_    0.611903 0.599017 0.209115 0.133717
H12   H     H_    0.661051 0.638938 0.811603 0.124150
N1    N     N_R   0.523540 0.519360 0.790140 -0.231491
N2    N     N_R   0.476460 0.480640 0.209860 -0.231491
N3    N     N_1   0.880910 0.239774 0.590510 -0.271188
N4    N     N_1   0.119090 0.760226 0.409490 -0.271188
N5    N     N_1   0.130498 0.482981 0.821150 -0.293351
N6    N     N_1   0.869502 0.517019 0.178850 -0.293351
N7    N     N_1   0.353366 0.759717 0.245224 -0.265019
N8    N     N_1   0.646634 0.240283 0.754776 -0.265019
O1    O     O_R   0.506670 0.354460 0.582000 -0.498358
O2    O     O_R   0.493330 0.645540 0.418000 -0.498358
O3    O     O_R   0.490800 0.341410 0.386200 -0.517010
O4    O     O_R   0.509200 0.658590 0.613800 -0.517010
O5    O     O_R   0.324790 0.506500 0.597880 -0.503493
O6    O     O_R   0.675210 0.493500 0.402120 -0.503493
O7    O     O_R   0.308910 0.493440 0.402080 -0.499048
O8    O     O_R   0.691090 0.506560 0.597920 -0.499048

loop_
_geom_bond_atom_site_label_1
_geom_bond_atom_site_label_2
_ccdc_geom_bond_type
C2    C35   A    
C29   N7    T    
C19   C23   A    
C3    N2    A    
C31   C33   A    
C8    O8    A    
Cu1   Cu2   S    
C18   C24   A    
C7    O7    A    
C12   O4    A    
C27   N5    T    
C34   C36   A    
C36   N2    A    
Cu2   O7    S    
C4    N1    A    
Cu2   O3    S    
Cu1   O8    S    
C19   C22   A    
C13   C16   S    
C17   H5    S    
Cu1   O4    S    
C3    H11   S    
C29   C31   S    
C23   C32   A    
C9    C11   S    
C7    O5    A    
Cu1   O1    S    
C34   H3    S    
C8    O6    A    
Cu2   O2    S    
C20   C33   A    
C26   N4    T    
C7    C15   S    
Cu1   O5    S    
C9    C16   S    
C20   C22   A    
Cu2   O6    S    
C1    O1    A    
C13   C15   S    
C28   N6    T    
C5    C6    A    
Cu1   N1    S    
C21   C32   A    
C14   C16   S    
C13   C26   S    
C1    C19   S    
Cu2   N2    S    
C2    N1    A    
C11   C25   S    
C16   H1    S    
C12   C18   S    
C10   C17   S    
C12   O2    A    
C23   C30   S    
C5    C35   A    
C36   H2    S    
C22   H7    S    
C4    H10   S    
C24   H6    S    
C9    C27   S    
C4    C6    A    
C32   C33   A    
C10   C14   S    
C21   C24   A    
C10   C28   S    
C11   C14   S    
C15   C17   S    
C35   H4    S    
C11   C17   S    
C8    C14   S    
C18   C31   A    
C2    H12   S    
C3    C5    A    
C30   N8    T    
C20   H8    S    
C6    C34   A    
C9    C15   S    
C25   N3    T    
C21   H9    S    
C10   C13   S    
C1    O3    A    
