data_mof_unit_20658.cif
_audit_creation_date              2012-12-10T18:12:34-0500
_audit_creation_method            fapswitch 2.2
_symmetry_space_group_name_H-M    P1
_symmetry_Int_Tables_number       1
_space_group_crystal_system       triclinic
_cell_length_a                    9.531167
_cell_length_b                    10.967278
_cell_length_c                    17.268731
_cell_angle_alpha                 89.736704
_cell_angle_beta                  84.485637
_cell_angle_gamma                 87.728766
_cell_volume                      1795.35110201

loop_
_atom_site_label
_atom_site_type_symbol
_atom_type_description
_atom_site_fract_x
_atom_site_fract_y
_atom_site_fract_z
_atom_type_partial_charge
C1    C     C_R   0.498430 0.738398 0.493403 0.829045
C2    C     C_R   0.359251 0.563550 0.776950 -0.207108
C3    C     C_R   0.462305 0.401900 0.146526 -0.194600
C4    C     C_R   0.452855 0.403919 0.227278 -0.042722
C5    C     C_R   0.635372 0.552556 0.221301 -0.288399
C6    C     C_R   0.644769 0.550571 0.139908 0.521588
C7    C     C_R   0.551150 0.480360 0.102649 0.087576
C8    C     C_2   0.430981 0.480251 0.981872 0.450874
C9    C     C_2   0.550327 0.485128 0.017596 -0.255574
C10   C     C_R   0.535749 0.483723 0.265388 -0.135830
C11   C     C_3   0.363806 0.932538 0.457168 -0.225082
C12   C     C_R   0.479929 0.499604 0.649569 0.798275
C13   C     C_3   0.361193 0.072868 0.472218 -0.264325
C14   C     C_3   0.477543 0.914752 0.580549 -0.583758
C15   C     C_3   0.630275 0.922531 0.447917 0.261640
C16   C     C_3   0.493383 0.874746 0.493138 -0.063859
C17   C     C_3   0.502387 0.116267 0.506951 -0.133163
C18   C     C_3   0.505168 0.054079 0.591069 0.441875
C19   C     C_3   0.633922 0.063856 0.453196 0.217558
C20   C     C_3   0.923186 0.375098 0.485127 0.560882
C21   C     C_3   0.091072 0.375285 0.483494 -0.354753
C22   C     C_3   0.925527 0.581168 0.437150 -0.269469
C23   C     C_R   0.501024 0.258476 0.505554 0.829402
C24   C     C_3   0.898979 0.550431 0.572414 -0.368872
C25   C     C_3   0.093540 0.573811 0.434390 -0.310862
C26   C     C_3   0.064006 0.553786 0.571389 0.487375
C27   C     C_R   0.520481 0.495362 0.350268 0.829808
C28   C     C_R   0.466158 0.494626 0.733929 -0.014626
C29   C     C_R   0.560399 0.419913 0.771841 -0.156572
C30   C     C_R   0.547327 0.413417 0.852483 -0.224034
C31   C     C_R   0.441754 0.483785 0.896019 0.068656
C32   C     C_R   0.347826 0.558912 0.857839 -0.152600
Cu1   Cu    Cu3+1 0.357600 0.500140 0.499960 0.954576
Cu2   Cu    Cu3+1 0.642400 0.499860 0.500040 0.962409
H1    H     H_    0.642532 0.365234 0.739008 0.157421
H2    H     H_    0.268322 0.889917 0.486631 0.133853
H3    H     H_    0.347520 0.123324 0.417571 0.158576
H4    H     H_    0.369164 0.894444 0.605704 0.207909
H5    H     H_    0.719205 0.880384 0.477257 0.115355
H6    H     H_    0.626447 0.105338 0.394495 0.150562
H7    H     H_    0.547284 0.854775 0.614224 0.147645
H8    H     H_    0.128331 0.313496 0.526671 0.158065
H9    H     H_    0.146994 0.338551 0.429068 0.188232
H10   H     H_    0.890435 0.561949 0.379423 0.174004
H11   H     H_    0.139788 0.539533 0.376837 0.185300
H12   H     H_    0.851673 0.644411 0.581598 0.158592
H13   H     H_    0.703774 0.610068 0.249716 0.143834
H14   H     H_    0.852471 0.501034 0.623669 0.173926
H15   H     H_    0.083740 0.653317 0.567302 0.098641
H16   H     H_    0.890225 0.677382 0.449481 0.139235
H17   H     H_    0.133176 0.667576 0.437462 0.148031
H18   H     H_    0.650848 0.495754 0.983263 0.140513
H19   H     H_    0.266820 0.614723 0.890639 0.159800
H20   H     H_    0.400271 0.338361 0.117790 0.177415
H21   H     H_    0.286747 0.622546 0.748051 0.176700
H22   H     H_    0.619404 0.353307 0.880893 0.129190
N1    N     N_3   0.856560 0.499750 0.498270 -0.182523
N2    N     N_3   0.143860 0.496700 0.498910 -0.176887
O1    O     O_R   0.379740 0.682430 0.499960 -0.604452
O2    O     O_R   0.620260 0.682190 0.500020 -0.613576
O3    O     O_R   0.365800 0.500150 0.613560 -0.521975
O4    O     O_R   0.606310 0.499910 0.613620 -0.611938
O5    O     O_R   0.379740 0.317810 0.499980 -0.597021
O6    O     O_R   0.620260 0.317570 0.500040 -0.509458
O7    O     O_R   0.393690 0.500090 0.386380 -0.587410
O8    O     O_R   0.634200 0.499850 0.386440 -0.574541
O9    O     O_3   0.735986 0.625765 0.097008 -0.576281
C33   C     C_3   0.874078 0.574296 0.096109 -0.328518
H23   H     H_    0.945880 0.629999 0.057364 0.215546
H24   H     H_    0.880932 0.479748 0.072387 0.140745
H25   H     H_    0.912028 0.575261 0.155045 0.161545
C34   C     C_1   0.354796 0.904056 0.374256 0.320355
N3    N     N_1   0.347010 0.881617 0.309419 -0.254774
C35   C     C_1   0.232708 0.096790 0.526107 0.311793
N4    N     N_1   0.132942 0.107642 0.569723 -0.300317
O10   O     O_3   0.401406 0.116843 0.643273 -0.589586
C36   C     C_3   0.369501 0.057811 0.715762 -0.319915
H26   H     H_    0.271492 0.006908 0.714128 0.188037
H27   H     H_    0.348924 0.128693 0.761512 0.187461
H28   H     H_    0.454967 0.994862 0.733513 0.150236
O11   O     O_3   0.635777 0.893211 0.367403 -0.582176
C37   C     C_3   0.748519 0.812243 0.342170 -0.353354
H29   H     H_    0.723343 0.719098 0.361515 0.190935
H30   H     H_    0.850632 0.838986 0.361084 0.129301
H31   H     H_    0.760599 0.812674 0.277682 0.211391
C38   C     C_1   0.362530 0.318336 0.268649 0.244435
N5    N     N_1   0.290226 0.248359 0.300627 -0.362994
O12   O     O_3   0.761627 0.099336 0.481416 -0.561300
C39   C     C_3   0.883737 0.056100 0.434760 -0.200166
H32   H     H_    0.972727 0.113012 0.445634 0.186842
H33   H     H_    0.870477 0.058987 0.371462 0.163278
H34   H     H_    0.918623 0.964077 0.453614 0.116275
C40   C     C_1   0.641365 0.053855 0.625725 0.316557
N6    N     N_1   0.744267 0.042641 0.655986 -0.265062
O13   O     O_3   0.866171 0.320611 0.420361 -0.530192
C41   C     C_3   0.947976 0.319010 0.347522 -0.338836
H35   H     H_    0.021622 0.238349 0.342946 0.168943
H36   H     H_    0.006713 0.401732 0.333731 0.146530
H37   H     H_    0.875569 0.309648 0.301500 0.190976
C42   C     C_1   0.877403 0.301348 0.553073 0.335396
N7    N     N_1   0.842713 0.248863 0.609008 -0.287110
O14   O     O_3   0.115331 0.526560 0.644508 -0.585714
C43   C     C_3   0.099344 0.406975 0.673365 -0.247632
H38   H     H_    0.131860 0.405714 0.733322 0.177694
H39   H     H_    0.172594 0.340316 0.641305 0.211971
H40   H     H_    0.989350 0.379634 0.680272 0.139887
O15   O     O_3   0.300440 0.488904 0.025591 -0.567052
C44   C     C_3   0.212601 0.397407 0.002845 -0.368727
H41   H     H_    0.270079 0.307371 0.993455 0.155963
H42   H     H_    0.161828 0.425374 0.949992 0.174975
H43   H     H_    0.127413 0.384926 0.050291 0.184295

loop_
_geom_bond_atom_site_label_1
_geom_bond_atom_site_label_2
_ccdc_geom_bond_type
C10   C27   S    
Cu1   N2    S    
C14   C18   S    
O13   C41   S    
Cu2   O8    S    
C22   N1    S    
O11   C37   S    
Cu1   O7    S    
C15   O11   S    
C36   H26   S    
C15   C19   S    
C5    H13   S    
C17   C23   S    
C12   C28   S    
C11   H2    S    
C24   C26   S    
C3    C7    A    
C2    H21   S    
C1    O1    A    
C5    C6    A    
C3    H20   S    
C4    C38   S    
C15   C16   S    
C41   H37   S    
Cu2   O4    S    
C44   H41   S    
C2    C32   A    
C21   H9    S    
C22   H10   S    
C8    C9    D    
C22   C25   S    
C41   H36   S    
Cu2   N1    S    
O15   C44   S    
C39   H33   S    
C13   H3    S    
C22   H16   S    
O12   C39   S    
C23   O5    A    
Cu1   O1    S    
Cu2   O2    S    
C9    H18   S    
Cu1   Cu2   S    
C36   H27   S    
C35   N4    T    
O9    C33   S    
C24   H14   S    
O10   C36   S    
C19   O12   S    
C26   H15   S    
C11   C34   S    
C24   N1    S    
C30   H22   S    
C25   H17   S    
C29   C30   A    
C27   O7    A    
C14   H4    S    
C12   O4    A    
C11   C16   S    
C31   C32   A    
C20   C42   S    
Cu1   O5    S    
C41   H35   S    
Cu2   O6    S    
C17   C18   S    
C43   H39   S    
C1    C16   S    
C20   C21   S    
C39   H34   S    
C26   N2    S    
C15   H5    S    
C14   H7    S    
C33   H24   S    
C23   O6    A    
C20   O13   S    
C37   H30   S    
C14   C16   S    
C1    O2    A    
C25   N2    S    
C4    C10   A    
C3    C4    A    
C8    O15   S    
C25   H11   S    
C32   H19   S    
C36   H28   S    
C7    C9    S    
C28   C29   A    
C18   O10   S    
C38   N5    T    
C8    C31   S    
C33   H23   S    
C34   N3    T    
C6    C7    A    
C37   H31   S    
C40   N6    T    
C29   H1    S    
C44   H43   S    
C13   C17   S    
C24   H12   S    
C39   H32   S    
C5    C10   A    
C27   O8    A    
C6    O9    S    
C26   O14   S    
C12   O3    A    
C11   C13   S    
C30   C31   A    
C33   H25   S    
C42   N7    T    
C17   C19   S    
C44   H42   S    
C43   H40   S    
O14   C43   S    
C19   H6    S    
C21   H8    S    
C21   N2    S    
C13   C35   S    
Cu1   O3    S    
C37   H29   S    
C43   H38   S    
C18   C40   S    
C2    C28   A    
C20   N1    S    
