data_mof_unit_41695.cif
_audit_creation_date              2012-12-10T17:50:51-0500
_audit_creation_method            fapswitch 2.2
_symmetry_space_group_name_H-M    P1
_symmetry_Int_Tables_number       1
_space_group_crystal_system       triclinic
_cell_length_a                    14.709119
_cell_length_b                    14.714271
_cell_length_c                    15.861528
_cell_angle_alpha                 76.97611
_cell_angle_beta                  102.657482
_cell_angle_gamma                 114.806696
_cell_volume                      3005.7768985

loop_
_atom_site_label
_atom_site_type_symbol
_atom_type_description
_atom_site_fract_x
_atom_site_fract_y
_atom_site_fract_z
_atom_type_partial_charge
C1    C     C_R   0.880324 0.312323 0.515061 0.794116
C2    C     C_R   0.119655 0.687661 0.486128 0.792750
C3    C     C_R   0.784011 0.027033 0.555792 -0.199438
C4    C     C_R   0.216994 0.969707 0.482804 -0.199799
C5    C     C_R   0.850418 0.128310 0.546918 -0.197052
C6    C     C_R   0.150044 0.869853 0.477603 -0.196604
C7    C     C_R   0.708319 0.178901 0.516850 -0.254595
C8    C     C_R   0.291706 0.821034 0.494392 -0.248779
C9    C     C_R   0.639919 0.077445 0.528256 0.088413
C10   C     C_R   0.360926 0.920077 0.504066 0.089552
C11   C     C_R   0.679294 0.001090 0.545588 0.164077
C12   C     C_R   0.321848 0.995292 0.496258 0.162571
C13   C     C_R   0.533611 0.050012 0.520258 0.064761
C14   C     C_R   0.467475 0.946418 0.520391 0.064051
C15   C     C_R   0.510065 0.872514 0.538874 -0.222083
C16   C     C_R   0.491411 0.122381 0.513824 -0.221323
C17   C     C_R   0.613933 0.899635 0.552045 -0.228161
C18   C     C_R   0.387592 0.095117 0.502548 -0.229215
C19   C     C_R   0.716371 0.669364 0.356349 -0.320042
C20   C     C_R   0.283300 0.330138 0.643249 -0.322917
C21   C     C_R   0.797474 0.639234 0.378593 0.079359
C22   C     C_R   0.202337 0.360491 0.621169 0.079453
C23   C     C_R   0.999568 0.500051 0.659971 0.827129
C24   C     C_R   0.000437 0.499959 0.340027 0.827236
C25   C     C_R   0.714513 0.508832 0.487749 0.009135
C26   C     C_R   0.285527 0.491182 0.512312 0.008208
C27   C     C_R   0.628711 0.535023 0.467700 -0.022843
C28   C     C_R   0.371183 0.464758 0.532191 -0.022057
C29   C     C_R   0.632119 0.618056 0.400905 0.163672
C30   C     C_R   0.367619 0.381504 0.598781 0.164872
C31   C     C_R   0.540966 0.483072 0.511532 0.079176
C32   C     C_R   0.458908 0.516665 0.488339 0.075979
C33   C     C_R   0.467494 0.601074 0.422345 -0.237766
C34   C     C_R   0.532306 0.398559 0.577425 -0.240235
C35   C     C_R   0.552030 0.650029 0.379377 -0.196582
C36   C     C_R   0.447626 0.349402 0.620202 -0.204936
C37   C     C_3   0.990682 0.407852 0.045254 -0.200400
C38   C     C_3   0.009355 0.592242 0.954723 -0.200638
C39   C     C_3   0.912028 0.429185 0.969079 -0.202501
C40   C     C_3   0.088009 0.570909 0.030899 -0.202475
C41   C     C_1   0.998762 0.500277 0.749457 -0.179182
C42   C     C_1   0.001259 0.499765 0.250534 -0.179989
C43   C     C_3   0.076661 0.479224 0.991551 0.229405
C44   C     C_3   0.923375 0.520871 0.008426 0.229408
C45   C     C_3   0.999053 0.500271 0.916753 0.141169
C46   C     C_3   0.000983 0.499823 0.083226 0.141183
C47   C     C_1   0.998588 0.500350 0.824955 -0.050787
C48   C     C_1   0.001442 0.499721 0.175029 -0.050777
C49   C     C_R   0.812669 0.204754 0.526444 -0.050759
C50   C     C_R   0.187321 0.794903 0.484110 -0.051222
Cu1   Cu    Cu3+1 0.081740 0.475690 0.522610 0.938747
Cu2   Cu    Cu3+1 0.918260 0.524310 0.477390 0.938455
H1    H     H_    0.839568 0.371833 0.942675 0.141347
H2    H     H_    0.160470 0.628261 0.057301 0.141111
H3    H     H_    0.280329 0.551583 0.461321 0.122152
H4    H     H_    0.719839 0.448621 0.538914 0.122387
H5    H     H_    0.136766 0.320332 0.654851 0.125237
H6    H     H_    0.862981 0.679320 0.344826 0.126054
H7    H     H_    0.719780 0.732857 0.304984 0.137413
H8    H     H_    0.279734 0.266436 0.694422 0.137242
H9    H     H_    0.409977 0.631754 0.402131 0.131436
H10   H     H_    0.589827 0.367882 0.597616 0.129284
H11   H     H_    0.984019 0.332649 0.083323 0.141882
H12   H     H_    0.016019 0.667445 0.916651 0.141544
H13   H     H_    0.643239 0.840553 0.566226 0.149202
H14   H     H_    0.358592 0.152936 0.498288 0.152133
H15   H     H_    0.317032 0.762464 0.493759 0.145472
H16   H     H_    0.681903 0.239536 0.497873 0.151543
H17   H     H_    0.069466 0.851190 0.469591 0.153988
H18   H     H_    0.930937 0.146679 0.554856 0.152614
H19   H     H_    0.814482 0.968864 0.570038 0.133609
H20   H     H_    0.186812 0.026817 0.477459 0.134110
H21   H     H_    0.465439 0.792287 0.546292 0.146793
H22   H     H_    0.536567 0.200730 0.520008 0.142229
H23   H     H_    0.554911 0.714190 0.328849 0.142142
H24   H     H_    0.444599 0.285025 0.670521 0.143246
N1    N     N_R   0.795440 0.560790 0.443380 -0.177494
N2    N     N_R   0.204560 0.439210 0.556620 -0.177048
O1    O     O_R   0.977900 0.338120 0.529810 -0.590619
O2    O     O_R   0.022100 0.661880 0.470190 -0.590747
O3    O     O_R   0.839850 0.379180 0.491620 -0.590379
O4    O     O_R   0.160150 0.620820 0.508380 -0.589663
O5    O     O_R   0.069010 0.479460 0.640020 -0.575155
O6    O     O_R   0.930990 0.520540 0.359980 -0.575043
O7    O     O_R   0.930960 0.520530 0.601820 -0.578380
O8    O     O_R   0.069040 0.479470 0.398180 -0.577771
C51   C     C_3   0.835724 0.544684 0.018794 -0.877055
H25   H     H_    0.792004 0.556538 0.953721 0.233532
H26   H     H_    0.785414 0.480654 0.061018 0.237798
H27   H     H_    0.865238 0.614386 0.049257 0.234507
C52   C     C_3   0.164314 0.455417 0.981174 -0.876444
H28   H     H_    0.208040 0.443565 0.046243 0.233791
H29   H     H_    0.134799 0.385716 0.950710 0.234565
H30   H     H_    0.214617 0.519450 0.938946 0.237718

loop_
_geom_bond_atom_site_label_1
_geom_bond_atom_site_label_2
_ccdc_geom_bond_type
C6    H17   S    
C51   H25   S    
Cu1   O5    S    
C27   C29   A    
C24   C42   S    
C25   H4    S    
C26   H3    S    
C22   H5    S    
C20   C30   A    
C40   C46   S    
C35   H23   S    
C26   N2    A    
C23   O5    A    
C16   H22   S    
Cu2   O7    S    
C19   C21   A    
C1    O3    A    
C34   H10   S    
C15   C17   A    
Cu2   O6    S    
C9    C13   A    
C38   C45   S    
C2    C50   S    
C7    H16   S    
C51   H27   S    
C40   C43   S    
C4    C12   A    
C44   C51   S    
C36   H24   S    
C39   C45   S    
C13   C14   A    
C5    C49   A    
Cu1   O8    S    
C37   H11   S    
C44   C46   S    
C38   H12   S    
C45   C47   S    
C46   C48   S    
C27   C31   A    
Cu1   Cu2   S    
C28   C32   A    
C3    C11   A    
C7    C49   A    
C4    C6    A    
C10   C14   A    
C52   H28   S    
C19   H7    S    
C43   C52   S    
C37   C43   S    
C3    H19   S    
C38   C44   S    
C5    H18   S    
C52   H29   S    
C9    C11   A    
C31   C32   A    
C41   C47   T    
C31   C34   A    
C42   C48   T    
C6    C50   A    
C43   C45   S    
Cu1   O4    S    
C22   N2    A    
C10   C12   A    
C33   H9    S    
C15   H21   S    
C20   C22   A    
C40   H2    S    
C51   H26   S    
C1    O1    A    
C25   N1    A    
C2    O4    A    
C20   H8    S    
C21   N1    A    
Cu2   N1    S    
C19   C29   A    
C8    C50   A    
C4    H20   S    
C7    C9    A    
C18   H14   S    
C11   C17   A    
C17   H13   S    
C8    C10   A    
C3    C5    A    
C39   C44   S    
C25   C27   A    
C29   C35   A    
C26   C28   A    
C23   C41   S    
C30   C36   A    
C32   C33   A    
C28   C30   A    
C24   O6    A    
Cu1   N2    S    
C21   H6    S    
C37   C39   S    
C52   H30   S    
C38   C40   S    
C39   H1    S    
C24   O8    A    
C33   C35   A    
C34   C36   A    
Cu2   O3    S    
Cu1   O1    S    
C2    O2    A    
C8    H15   S    
C16   C18   A    
C23   O7    A    
C13   C16   A    
C12   C18   A    
C14   C15   A    
C37   C46   S    
Cu2   O2    S    
C1    C49   S    
