data_mof_unit_12303.cif
_audit_creation_date              2012-10-26T19:28:24-0400
_audit_creation_method            fapswitch 2.2
_symmetry_space_group_name_H-M    P1
_symmetry_Int_Tables_number       1
_space_group_crystal_system       triclinic
_cell_length_a                    14.761105
_cell_length_b                    14.567229
_cell_length_c                    14.36365
_cell_angle_alpha                 77.272664
_cell_angle_beta                  102.79843
_cell_angle_gamma                 114.948771
_cell_volume                      2702.54639886

loop_
_atom_site_label
_atom_site_type_symbol
_atom_type_description
_atom_site_fract_x
_atom_site_fract_y
_atom_site_fract_z
_atom_type_partial_charge
C1    C     C_R   0.880033 0.311678 0.510818 0.584409
C2    C     C_R   0.499029 0.124674 0.502008 -0.037898
C3    C     C_R   0.606588 0.891634 0.542891 0.267788
C4    C     C_R   0.397609 0.100128 0.504733 0.273716
C5    C     C_R   0.695854 0.638180 0.322299 -0.084559
C6    C     C_R   0.295286 0.343213 0.665115 -0.050260
C7    C     C_R   0.789404 0.634852 0.363741 0.402642
C8    C     C_R   0.211887 0.369336 0.640708 0.394232
C9    C     C_R   0.711832 0.502666 0.485946 0.106964
C10   C     C_R   0.279309 0.478911 0.500783 0.079441
C11   C     C_R   0.622036 0.522031 0.458021 0.020375
C12   C     C_R   0.119823 0.688144 0.485471 0.575004
C13   C     C_R   0.364213 0.450309 0.523580 0.021416
C14   C     C_R   0.612143 0.581493 0.368302 -0.029529
C15   C     C_R   0.373477 0.388163 0.611764 -0.015546
C16   C     C_R   0.000451 0.500285 0.668879 0.553581
C17   C     C_R   0.999568 0.499809 0.331099 0.579090
C18   C     C_R   0.540519 0.481671 0.512607 0.014228
C19   C     C_R   0.444030 0.486130 0.466922 0.025208
C20   C     C_R   0.432598 0.525757 0.367213 0.240040
C21   C     C_R   0.551234 0.439267 0.611561 0.237246
C22   C     C_R   0.518471 0.581896 0.323191 -0.054993
C23   C     C_R   0.639832 0.073092 0.507922 -0.016268
C24   C     C_R   0.465051 0.380570 0.653501 -0.028809
C25   C     C_1   0.000712 0.500102 0.771344 0.059930
C26   C     C_1   0.999246 0.500070 0.228602 0.076285
C27   C     C_1   0.000542 0.500027 0.856718 0.039646
C28   C     C_1   0.999447 0.500153 0.143229 0.051151
C29   C     C_1   0.000189 0.500056 0.957318 0.058476
C30   C     C_1   0.999849 0.500119 0.042636 0.063955
C31   C     C_R   0.811589 0.202250 0.516773 -0.026700
C32   C     C_R   0.188277 0.796344 0.485902 -0.027593
C33   C     C_R   0.782301 0.023610 0.579690 0.251839
C34   C     C_R   0.360397 0.924077 0.491254 -0.019894
C35   C     C_R   0.228592 0.961811 0.532627 0.266423
C36   C     C_R   0.847269 0.126991 0.565264 -0.109852
C37   C     C_R   0.161262 0.861203 0.522125 -0.109336
C38   C     C_R   0.708546 0.173195 0.480343 0.196354
C39   C     C_R   0.286484 0.830164 0.464883 0.197894
C40   C     C_R   0.677072 0.994390 0.544258 0.008962
C41   C     C_R   0.328033 0.996956 0.509420 0.012811
C42   C     C_R   0.535009 0.049458 0.501028 0.014037
C43   C     C_R   0.465542 0.947121 0.501877 0.010923
C44   C     C_R   0.503297 0.869652 0.522880 -0.044041
Cl1   Cl    Cl    0.639331 0.787196 0.547432 -0.438663
Cl2   Cl    Cl    0.361891 0.205038 0.482413 -0.463446
Cl3   Cl    Cl    0.309087 0.766101 0.386155 -0.543736
Cl4   Cl    Cl    0.669947 0.251929 0.380352 -0.543076
Cu1   Cu    Cu3+1 0.081740 0.475690 0.523180 1.116837
Cu2   Cu    Cu3+1 0.918260 0.524310 0.476820 1.128586
H1    H     H_    0.088018 0.831763 0.545435 0.222380
H2    H     H_    0.304766 0.294329 0.732020 0.181170
H3    H     H_    0.349189 0.537556 0.140494 0.358756
H4    H     H_    0.703741 0.502931 0.843551 0.385503
H5    H     H_    0.953942 0.961347 0.783022 0.381912
H6    H     H_    0.107498 0.979831 0.716654 0.392033
H7    H     H_    0.984711 0.267321 0.767930 0.368633
H8    H     H_    0.033238 0.770019 0.268402 0.375809
H9    H     H_    0.926687 0.149133 0.593176 0.238135
H10   H     H_    0.452930 0.789860 0.530403 0.191270
H11   H     H_    0.550232 0.203277 0.506638 0.185606
H12   H     H_    0.510922 0.619789 0.249637 0.146104
H13   H     H_    0.472521 0.340478 0.726190 0.181957
H14   H     H_    0.275004 0.536720 0.440958 0.214049
H15   H     H_    0.715029 0.440536 0.541180 0.188213
H16   H     H_    0.688583 0.689097 0.256291 0.165842
N1    N     N_R   0.795420 0.560790 0.441960 -0.243074
N2    N     N_R   0.204580 0.439210 0.558040 -0.261187
O1    O     O_R   0.977910 0.338120 0.530560 -0.454535
O2    O     O_2   0.276518 0.572435 0.266812 -0.280178
O3    O     O_3   0.335554 0.471094 0.183080 -0.450129
O4    O     O_2   0.709987 0.397991 0.712943 -0.318105
O5    O     O_2   0.740442 0.579858 0.658172 -0.214474
O6    O     O_3   0.638488 0.484777 0.799899 -0.479455
O7    O     O_2   0.760448 0.866965 0.725464 -0.208511
O8    O     O_2   0.864099 0.884932 0.604623 -0.138916
O9    O     O_3   0.939210 0.011527 0.729750 -0.497962
O10   O     O_2   0.279854 0.090321 0.662451 -0.266905
O11   O     O_2   0.147830 0.098050 0.525939 -0.156076
O12   O     O_R   0.022090 0.661880 0.469440 -0.442281
O13   O     O_3   0.101693 0.944509 0.662762 -0.487204
O14   O     O_2   0.156126 0.235108 0.801475 -0.246288
O15   O     O_2   0.173225 0.409029 0.797454 -0.274446
O16   O     O_3   0.012011 0.283753 0.706499 -0.512149
O17   O     O_2   0.858080 0.805578 0.235346 -0.251376
O18   O     O_2   0.951326 0.805283 0.397047 -0.244406
O19   O     O_3   0.972678 0.706169 0.278411 -0.503201
O20   O     O_R   0.839850 0.379180 0.491410 -0.475861
O21   O     O_R   0.160150 0.620820 0.508590 -0.481490
O22   O     O_R   0.069040 0.479460 0.643530 -0.429175
O23   O     O_R   0.930960 0.520540 0.356470 -0.441696
O24   O     O_R   0.930990 0.520530 0.604380 -0.474814
O25   O     O_R   0.069010 0.479470 0.395620 -0.468627
O26   O     O_2   0.238714 0.391122 0.329388 -0.194264
S1    S     S_3+6 0.316206 0.489278 0.287612 0.048220
S2    S     S_3+6 0.665248 0.476990 0.694679 0.018942
S3    S     S_3+6 0.835087 0.941688 0.660653 0.108162
S4    S     S_3+6 0.191006 0.028570 0.596233 0.094578
S5    S     S_3+6 0.137457 0.324159 0.737688 0.074834
S6    S     S_3+6 0.894503 0.740409 0.318448 0.089392

loop_
_geom_bond_atom_site_label_1
_geom_bond_atom_site_label_2
_ccdc_geom_bond_type
C11   C18   A    
C16   O22   A    
Cu1   N2    S    
C27   C29   S    
C18   C21   A    
O14   S5    D    
O11   S4    D    
C19   C20   A    
C17   O23   A    
O7    S3    D    
Cu1   O22   S    
C36   H9    S    
H8    O19   S    
H6    O13   S    
C4    Cl2   S    
C23   C42   A    
C17   C26   S    
C35   C37   A    
C8    S5    S    
C2    C42   A    
H5    O9    S    
C11   C14   A    
O3    S1    S    
C4    C41   A    
C23   C40   A    
C1    C31   S    
C33   C36   A    
C18   C19   A    
C32   C39   A    
C6    C15   A    
H4    O6    S    
O10   S4    D    
O9    S3    S    
C35   S4    S    
O18   S6    D    
Cu2   N1    S    
C38   Cl4   S    
C2    H11   S    
Cu2   O20   S    
C1    O20   A    
Cu1   O1    S    
C12   C32   S    
C34   C41   A    
C3    C44   A    
C33   C40   A    
C7    S6    S    
C13   C19   A    
C34   C39   A    
O6    S2    S    
C12   O21   A    
C5    C7    A    
C6    C8    A    
O8    S3    D    
C3    Cl1   S    
C1    O1    A    
C2    C4    A    
C43   C44   A    
C9    N1    A    
C29   C30   T    
C22   H12   S    
H7    O16   S    
C32   C37   A    
C9    C11   A    
C5    C14   A    
Cu2   O24   S    
C15   C24   A    
C20   S1    S    
C20   C22   A    
C3    C40   A    
C8    N2    A    
C24   H13   S    
C13   C15   A    
C17   O25   A    
C42   C43   A    
H3    O3    S    
C39   Cl3   S    
O19   S6    S    
C16   C25   S    
O16   S5    S    
C10   H14   S    
C34   C43   A    
Cu1   O21   S    
C5    H16   S    
C10   C13   A    
Cu2   O12   S    
C16   O24   A    
C21   S2    S    
C10   N2    A    
C25   C27   T    
C23   C38   A    
C26   C28   T    
C31   C38   A    
Cu1   O25   S    
C14   C22   A    
C28   C30   S    
O2    S1    D    
O17   S6    D    
C44   H10   S    
C37   H1    S    
C12   O12   A    
C33   S3    S    
O26   S1    D    
C35   C41   A    
C9    H15   S    
C7    N1    A    
O4    S2    D    
Cu2   O23   S    
Cu1   Cu2   S    
O13   S4    S    
C21   C24   A    
C31   C36   A    
O15   S5    D    
O5    S2    D    
C6    H2    S    
