data_mof_unit_49002.cif
_audit_creation_date              2012-10-26T18:50:01-0400
_audit_creation_method            fapswitch 2.2
_symmetry_space_group_name_H-M    P1
_symmetry_Int_Tables_number       1
_space_group_crystal_system       triclinic
_cell_length_a                    10.84383
_cell_length_b                    13.000016
_cell_length_c                    11.670088
_cell_angle_alpha                 99.918993
_cell_angle_beta                  93.938153
_cell_angle_gamma                 88.873138
_cell_volume                      1616.66303901

loop_
_atom_site_label
_atom_site_type_symbol
_atom_type_description
_atom_site_fract_x
_atom_site_fract_y
_atom_site_fract_z
_atom_type_partial_charge
Br1   Br    Br    0.517416 0.937659 0.189183 -0.508490
Br2   Br    Br    0.482584 0.062341 0.810817 -0.508490
C1    C     C_R   0.495733 0.299159 0.478553 0.569879
C2    C     C_R   0.509361 0.860445 0.435072 -0.141244
C3    C     C_R   0.495837 0.031379 0.555874 0.020928
C4    C     C_R   0.504163 0.968621 0.444126 0.020928
C5    C     C_R   0.392852 0.396905 0.020644 -0.143634
C6    C     C_R   0.607148 0.603095 0.979356 -0.143634
C7    C     C_R   0.401886 0.407381 0.143053 0.063589
C8    C     C_R   0.598114 0.592619 0.856947 0.063589
C9    C     C_R   0.544648 0.545375 0.157687 0.066337
C10   C     C_R   0.455352 0.454625 0.842313 0.066337
C11   C     C_R   0.538471 0.537678 0.034678 0.011969
C12   C     C_R   0.504267 0.700841 0.521447 0.569878
C13   C     C_R   0.461529 0.462322 0.965322 0.011969
C14   C     C_R   0.262707 0.504968 0.500700 0.616976
C15   C     C_R   0.737293 0.495032 0.499300 0.616977
C16   C     C_R   0.145239 0.322639 0.535485 -0.118739
C17   C     C_R   0.854761 0.677361 0.464515 -0.118739
C18   C     C_R   0.091822 0.231511 0.553714 -0.144365
C19   C     C_R   0.908178 0.768489 0.446284 -0.144365
C20   C     C_R   0.964978 0.225655 0.555511 -0.093442
C21   C     C_R   0.035022 0.774344 0.444487 -0.093442
C22   C     C_R   0.888748 0.311272 0.538363 0.266237
C23   C     C_R   0.505227 0.814232 0.534149 -0.051646
C24   C     C_R   0.111252 0.688727 0.461635 0.266237
C25   C     C_R   0.942424 0.406385 0.519305 0.045711
C26   C     C_R   0.057576 0.593615 0.480694 0.045711
C27   C     C_R   0.072567 0.411594 0.518981 -0.051615
C28   C     C_R   0.927432 0.588406 0.481019 -0.051615
C29   C     C_R   0.871208 0.495689 0.499420 -0.002399
C30   C     C_R   0.128792 0.504311 0.500580 -0.002399
C31   C     C_R   0.494773 0.185768 0.465851 -0.051645
C32   C     C_R   0.506550 0.015679 0.344101 0.154914
C33   C     C_R   0.493450 0.984321 0.655899 0.154914
C34   C     C_R   0.501727 0.123777 0.355826 -0.086404
C35   C     C_R   0.498273 0.876223 0.644174 -0.086405
C36   C     C_R   0.490639 0.139555 0.564927 -0.141244
Cu1   Cu    Cu3+1 0.509250 0.507730 0.615930 0.997604
Cu2   Cu    Cu3+1 0.490750 0.492270 0.384070 0.997604
H1    H     H_    0.074415 0.846681 0.430297 0.110812
H2    H     H_    0.484378 0.188754 0.649070 0.181809
H3    H     H_    0.495000 0.840761 0.721371 0.177983
H4    H     H_    0.505000 0.159239 0.278629 0.177983
H5    H     H_    0.395841 0.397217 0.788249 0.122437
H6    H     H_    0.604159 0.602783 0.211751 0.122437
H7    H     H_    0.651196 0.643595 0.815367 0.133744
H8    H     H_    0.348803 0.356405 0.184633 0.133744
H9    H     H_    0.742678 0.232465 0.557781 0.320250
H10   H     H_    0.257322 0.767535 0.442219 0.320250
H11   H     H_    0.925585 0.153317 0.569699 0.110812
H12   H     H_    0.332770 0.337981 0.969776 0.123897
H13   H     H_    0.667230 0.662019 0.030224 0.123897
H14   H     H_    0.244655 0.321608 0.533974 0.125173
H15   H     H_    0.755345 0.678392 0.466027 0.125173
H16   H     H_    0.149383 0.164786 0.566223 0.135270
H17   H     H_    0.850617 0.835213 0.433775 0.135270
H18   H     H_    0.515622 0.811246 0.350930 0.181809
N1    N     N_R   0.523180 0.519350 0.790130 -0.234924
N2    N     N_R   0.476820 0.480650 0.209870 -0.234924
O1    O     O_R   0.506570 0.354460 0.582000 -0.495419
O2    O     O_3   0.237407 0.698197 0.460334 -0.683650
O3    O     O_R   0.493430 0.645540 0.418000 -0.495419
O4    O     O_R   0.490940 0.341410 0.386200 -0.507819
O5    O     O_R   0.509060 0.658590 0.613800 -0.507819
O6    O     O_R   0.327470 0.506520 0.597900 -0.507691
O7    O     O_R   0.672530 0.493480 0.402100 -0.507691
O8    O     O_R   0.311840 0.493460 0.402100 -0.474038
O9    O     O_R   0.688160 0.506540 0.597900 -0.474038
O10   O     O_3   0.762593 0.301803 0.539664 -0.683651

loop_
_geom_bond_atom_site_label_1
_geom_bond_atom_site_label_2
_ccdc_geom_bond_type
Br2   C33   S    
C6    H13   S    
C22   C25   A    
C15   O9    A    
C6    C11   A    
Cu2   N2    S    
C25   C27   A    
C9    C11   A    
C24   C26   A    
C31   C36   A    
Cu2   O4    S    
C10   C13   A    
C18   H16   S    
C7    N2    A    
Cu1   N1    S    
C31   C34   A    
C5    C13   A    
C8    N1    A    
C24   O2    S    
C22   O10   S    
C17   C28   A    
C16   C27   A    
C1    O4    A    
C10   N1    A    
C19   H17   S    
Cu1   O5    S    
C3    C4    A    
Cu2   O3    S    
C14   O8    A    
C12   O3    A    
C3    C33   A    
C26   C28   A    
C17   C19   A    
C12   O5    A    
C18   C20   A    
C5    H12   S    
C2    C23   A    
C27   C30   A    
C16   C18   A    
H9    O10   S    
C11   C13   A    
C12   C23   S    
Cu1   O9    S    
C28   C29   A    
H10   O2    S    
Cu1   O6    S    
C20   C22   A    
C35   H3    S    
C34   H4    S    
C15   O7    A    
C1    C31   S    
C1    O1    A    
C2    H18   S    
C9    N2    A    
C36   H2    S    
C26   C30   A    
Cu1   O1    S    
C14   O6    A    
Br1   C32   S    
C32   C34   A    
C7    H8    S    
C2    C4    A    
Cu2   O8    S    
C21   C24   A    
C17   H15   S    
Cu1   Cu2   S    
C5    C7    A    
C16   H14   S    
C14   C30   S    
C10   H5    S    
C9    H6    S    
C33   C35   A    
C3    C36   A    
C8    H7    S    
C25   C29   A    
C19   C21   A    
C6    C8    A    
C15   C29   S    
C4    C32   A    
C23   C35   A    
C20   H11   S    
Cu2   O7    S    
C21   H1    S    
