data_mof_unit_18987.cif
_audit_creation_date              2012-12-10T17:51:34-0500
_audit_creation_method            fapswitch 2.2
_symmetry_space_group_name_H-M    P1
_symmetry_Int_Tables_number       1
_space_group_crystal_system       triclinic
_cell_length_a                    9.900705
_cell_length_b                    10.78943
_cell_length_c                    16.518096
_cell_angle_alpha                 92.848687
_cell_angle_beta                  85.6104
_cell_angle_gamma                 89.371984
_cell_volume                      1756.96884588

loop_
_atom_site_label
_atom_site_type_symbol
_atom_type_description
_atom_site_fract_x
_atom_site_fract_y
_atom_site_fract_z
_atom_type_partial_charge
C1    C     C_R   0.497717 0.740736 0.501734 0.874904
C2    C     C_R   0.532050 0.550747 0.265095 -0.050787
C3    C     C_R   0.241953 0.891935 0.480945 -0.239237
C4    C     C_R   0.481645 0.502256 0.653944 0.851086
C5    C     C_R   0.138612 0.950266 0.443255 0.273456
C6    C     C_R   0.165821 0.061310 0.406219 -0.167218
C7    C     C_R   0.290572 0.117885 0.413643 -0.205134
C8    C     C_R   0.391132 0.062874 0.456844 0.062895
C9    C     C_R   0.374840 0.940753 0.479762 0.077041
C10   C     C_R   0.493029 0.874300 0.498575 -0.143786
C11   C     C_R   0.617144 0.934131 0.501915 -0.286556
C12   C     C_R   0.349048 0.565272 0.783494 -0.209408
C13   C     C_R   0.625389 0.060077 0.494215 0.204049
C14   C     C_R   0.508257 0.126479 0.477536 -0.186599
C15   C     C_R   0.843516 0.653749 0.614214 -0.197429
C16   C     C_R   0.502523 0.260150 0.491466 0.890232
C17   C     C_R   0.904538 0.726867 0.673600 0.245926
C18   C     C_R   0.045197 0.723704 0.673447 -0.299990
C19   C     C_R   0.123236 0.650181 0.615806 -0.229190
C20   C     C_R   0.063984 0.572078 0.558240 0.114875
C21   C     C_R   0.919648 0.573635 0.557493 0.104781
C22   C     C_R   0.935206 0.434647 0.442780 -0.162352
C23   C     C_R   0.460425 0.695267 0.169420 -0.219255
C24   C     C_R   0.078416 0.439836 0.439799 0.255308
C25   C     C_R   0.518691 0.506386 0.346835 0.865260
C26   C     C_R   0.471980 0.525241 0.741977 -0.053151
C27   C     C_R   0.590096 0.522325 0.783453 -0.211387
C28   C     C_R   0.586986 0.564612 0.864105 -0.127119
C29   C     C_R   0.465505 0.611208 0.904540 0.200245
C30   C     C_R   0.345987 0.607959 0.864474 -0.179509
C31   C     C_3   0.894190 0.620916 0.086828 -0.836635
C32   C     C_3   0.966243 0.854311 0.365476 -0.817615
C33   C     C_3   0.806759 0.125960 0.576733 -0.723983
C34   C     C_R   0.442074 0.642759 0.244235 -0.210110
C35   C     C_3   0.691525 0.842531 0.721642 -0.815831
C36   C     C_3   0.145415 0.474673 0.300860 -0.775878
C37   C     C_R   0.647073 0.518947 0.213314 -0.283110
C38   C     C_R   0.667989 0.573096 0.138357 0.260723
C39   C     C_R   0.570274 0.657576 0.114985 0.160568
C40   C     C_2   0.457865 0.648863 0.991183 -0.250694
C41   C     C_2   0.567246 0.683466 0.029170 -0.221235
H1    H     H_    0.709129 0.883732 0.512043 0.185759
H2    H     H_    0.250620 0.639547 0.895679 0.127809
H3    H     H_    0.386178 0.761876 0.152549 0.150016
H4    H     H_    0.256252 0.567171 0.753006 0.165331
H5    H     H_    0.363486 0.630415 0.026402 0.157371
H6    H     H_    0.679553 0.558381 0.894524 0.143237
H7    H     H_    0.685885 0.490206 0.753077 0.167380
H8    H     H_    0.813006 0.445448 0.089760 0.222944
H9    H     H_    0.935733 0.622650 0.147540 0.244575
H10   H     H_    0.861275 0.716160 0.073788 0.245684
H11   H     H_    0.975583 0.589900 0.039980 0.241296
H12   H     H_    0.212385 0.811711 0.512647 0.174490
H13   H     H_    0.987208 0.834408 0.488046 0.227692
H14   H     H_    0.036112 0.779198 0.338829 0.240277
H15   H     H_    0.862120 0.816993 0.372584 0.255185
H16   H     H_    0.965468 0.931515 0.323519 0.239671
H17   H     H_    0.088545 0.105631 0.374474 0.122569
H18   H     H_    0.824224 0.084712 0.452349 0.240649
H19   H     H_    0.840003 0.032864 0.593881 0.223791
H20   H     H_    0.729037 0.165644 0.623254 0.245093
H21   H     H_    0.895768 0.187764 0.574836 0.237971
H22   H     H_    0.882280 0.866676 0.766604 0.222754
H23   H     H_    0.310589 0.203239 0.383919 0.166801
H24   H     H_    0.651585 0.905924 0.773168 0.244487
H25   H     H_    0.622789 0.762296 0.718994 0.250860
H26   H     H_    0.691475 0.892924 0.664825 0.238803
H27   H     H_    0.229897 0.662328 0.615358 0.210799
H28   H     H_    0.124125 0.306284 0.350108 0.186904
H29   H     H_    0.043125 0.470732 0.277401 0.211067
H30   H     H_    0.221728 0.444285 0.250865 0.242749
H31   H     H_    0.165427 0.572096 0.320595 0.244885
H32   H     H_    0.886554 0.383369 0.395380 0.144646
H33   H     H_    0.737516 0.663688 0.611753 0.215345
H34   H     H_    0.359108 0.676012 0.286386 0.159569
H35   H     H_    0.095584 0.781174 0.717225 0.148550
H36   H     H_    0.720681 0.452522 0.231264 0.139711
H37   H     H_    0.662011 0.701953 0.994832 0.172436
N1    N     N_R   0.857140 0.501200 0.500750 -0.118136
N2    N     N_R   0.142740 0.501280 0.500770 -0.126082
N3    N     N_2   0.782165 0.536194 0.084622 -0.320927
N4    N     N_2   0.007108 0.897760 0.444058 -0.327346
N5    N     N_2   0.753632 0.117940 0.497512 -0.280573
N6    N     N_2   0.827697 0.802126 0.735012 -0.303035
N7    N     N_2   0.153265 0.393987 0.367891 -0.268324
O1    O     O_R   0.385310 0.683220 0.500000 -0.651617
O2    O     O_R   0.614640 0.683250 0.500010 -0.636557
O3    O     O_R   0.371780 0.500010 0.615800 -0.627725
O4    O     O_R   0.601110 0.500030 0.615800 -0.632810
O5    O     O_R   0.385360 0.316750 0.499990 -0.604864
O6    O     O_R   0.614690 0.316780 0.500000 -0.576347
O7    O     O_R   0.398890 0.499970 0.384200 -0.585356
O8    O     O_R   0.628220 0.499990 0.384200 -0.616943
Zn1   Zn    Zn3+2 0.346870 0.499980 0.499990 0.942897
Zn2   Zn    Zn3+2 0.653130 0.500020 0.500010 0.936439

loop_
_geom_bond_atom_site_label_1
_geom_bond_atom_site_label_2
_ccdc_geom_bond_type
C27   H7    S    
C1    O2    A    
C28   H6    S    
C25   O8    A    
C3    H12   S    
C6    H17   S    
C19   C20   A    
C31   H11   S    
C7    C8    A    
C39   C41   S    
C40   H5    S    
C26   C27   A    
C29   C30   A    
C16   O5    A    
C28   C29   A    
H18   N5    S    
C22   N1    A    
C5    C6    A    
C35   H24   S    
C11   H1    S    
C18   C19   A    
H8    N3    S    
O1    Zn1   S    
C24   N2    A    
C33   H21   S    
O2    Zn2   S    
C8    C14   A    
C24   N7    S    
C32   H14   S    
C36   H30   S    
C34   H34   S    
C2    C34   A    
O8    Zn2   S    
C13   C14   A    
C32   H16   S    
C36   H29   S    
O5    Zn1   S    
O3    Zn1   S    
C20   N2    A    
C41   H37   S    
C8    C9    A    
C35   H25   S    
C37   H36   S    
C23   H3    S    
C12   C26   A    
O4    Zn2   S    
N1    Zn2   S    
C37   C38   A    
C3    C9    A    
C35   H26   S    
C23   C34   A    
C21   N1    A    
O7    Zn1   S    
C17   C18   A    
C19   H27   S    
C33   N5    S    
C40   C41   D    
C33   H19   S    
C38   N3    S    
C14   C16   S    
C30   H2    S    
C31   H9    S    
N2    Zn1   S    
H13   N4    S    
H28   N7    S    
C4    O4    A    
C9    C10   A    
C1    O1    A    
C15   C17   A    
C25   O7    A    
C18   H35   S    
C12   C30   A    
C1    C10   S    
C31   H10   S    
C12   H4    S    
C3    C5    A    
C4    C26   S    
C35   N6    S    
C6    C7    A    
C4    O3    A    
C36   N7    S    
C32   N4    S    
C13   N5    S    
C31   N3    S    
H22   N6    S    
C17   N6    S    
C5    N4    S    
C11   C13   A    
C2    C37   A    
C38   C39   A    
C23   C39   A    
C29   C40   S    
C2    C25   S    
C22   C24   A    
C7    H23   S    
C10   C11   A    
O6    Zn2   S    
C15   C21   A    
C15   H33   S    
C20   C21   A    
C16   O6    A    
C33   H20   S    
C27   C28   A    
C22   H32   S    
C32   H15   S    
C36   H31   S    
