data_mof_unit_37794.cif
_audit_creation_date              2013-03-05T16:10:27-0500
_audit_creation_method            fapswitch 2.2
_symmetry_space_group_name_H-M    P1
_symmetry_Int_Tables_number       1
_space_group_crystal_system       triclinic
_cell_length_a                    10.686832
_cell_length_b                    9.847083
_cell_length_c                    14.890686
_cell_angle_alpha                 89.917027
_cell_angle_beta                  89.902879
_cell_angle_gamma                 90.108778
_cell_volume                      1567.00153712

loop_
_atom_site_label
_atom_site_type_symbol
_atom_site_description
_atom_site_fract_x
_atom_site_fract_y
_atom_site_fract_z
_atom_type_partial_charge
O1    O     O_R   0.316770 0.614620 0.499990 -0.628851
O2    O     O_R   0.683230 0.385380 0.500010 -0.627206
O3    O     O_R   0.683230 0.614620 0.500010 -0.628946
O4    O     O_R   0.316770 0.385380 0.499990 -0.626259
C1    C     C_R   0.259950 0.499908 0.499845 0.859632
C2    C     C_R   0.740048 0.500101 0.500212 0.861299
O5    O     O_R   0.499980 0.614680 0.367850 -0.619608
O6    O     O_R   0.500020 0.385320 0.632150 -0.607704
O7    O     O_R   0.500020 0.614680 0.632150 -0.615065
O8    O     O_R   0.499980 0.385320 0.367850 -0.610855
C3    C     C_R   0.496674 0.500043 0.326959 0.899533
C4    C     C_R   0.500860 0.499767 0.672867 0.893020
Zn1   Zn    Zn3+2 0.500000 0.653120 0.500000 0.955439
Zn2   Zn    Zn3+2 0.500000 0.346880 0.500000 0.965265
C5    C     C_R   0.614548 0.466568 0.814056 0.136099
C6    C     C_R   0.383856 0.540590 0.184884 0.137046
C7    C     C_R   0.503337 0.497541 0.768274 -0.058783
C8    C     C_R   0.491707 0.498196 0.231230 -0.069574
C9    C     C_R   0.390183 0.515718 0.811969 -0.248252
C10   C     C_R   0.594740 0.444143 0.187435 -0.239411
C11   C     C_R   0.385215 0.508312 0.904284 0.078170
C12   C     C_R   0.596495 0.438228 0.095047 0.068367
C13   C     C_R   0.493790 0.474101 0.952715 -0.002101
C14   C     C_R   0.488786 0.474711 0.046509 -0.001975
C15   C     C_R   0.607563 0.441848 0.907434 0.001168
C16   C     C_R   0.376982 0.513867 0.091757 0.003988
C17   C     C_R   0.271430 0.528781 0.948113 -0.233151
C18   C     C_R   0.703452 0.391681 0.051216 -0.216973
C19   C     C_R   0.264626 0.525607 0.041481 0.299001
C20   C     C_R   0.708835 0.388133 0.957861 0.307985
H1    H     H_    0.306194 0.537406 0.773567 0.145931
H2    H     H_    0.675761 0.411591 0.225768 0.156821
H3    H     H_    0.186539 0.542346 0.909330 0.199772
H4    H     H_    0.782038 0.354010 0.089883 0.207910
C21   C     C_R   0.063813 0.384013 0.529119 -0.170350
C22   C     C_R   0.936188 0.616114 0.471235 -0.170488
C23   C     C_R   0.935620 0.384273 0.529531 -0.176633
C24   C     C_R   0.064373 0.615849 0.470810 -0.179892
H5    H     H_    0.112776 0.294399 0.552444 0.162534
H6    H     H_    0.887238 0.705735 0.447909 0.161685
H7    H     H_    0.886211 0.294827 0.553138 0.156740
H8    H     H_    0.113774 0.705284 0.447170 0.154741
C25   C     C_R   0.872464 0.500257 0.500463 -0.018517
C26   C     C_R   0.127533 0.499822 0.499802 -0.017257
C27   C     C_R   0.582748 0.071997 0.551847 -0.053266
C28   C     C_R   0.417163 0.928022 0.448242 -0.061166
C29   C     C_R   0.417208 0.071870 0.448205 -0.059124
C30   C     C_R   0.582768 0.928133 0.551825 -0.055557
H9    H     H_    0.648881 0.126531 0.593339 0.138456
H10   H     H_    0.350823 0.873548 0.406931 0.123115
H11   H     H_    0.351008 0.126290 0.406772 0.140587
H12   H     H_    0.648928 0.873702 0.593289 0.138162
N1    N     N_R   0.500000 0.857200 0.500000 -0.085196
N2    N     N_R   0.500000 0.142800 0.500000 -0.087805
C31   C     C_3   0.737962 0.477121 0.763650 -0.791578
H13   H     H_    0.816687 0.504058 0.808636 0.261535
H14   H     H_    0.757489 0.381171 0.727233 0.259916
H15   H     H_    0.734765 0.560967 0.713709 0.205010
C32   C     C_3   0.285877 0.623575 0.234365 -0.797979
H16   H     H_    0.222043 0.678864 0.188863 0.257539
H17   H     H_    0.231670 0.557697 0.280904 0.249137
H18   H     H_    0.331482 0.705429 0.273487 0.223282
N3    N     N_R   0.143013 0.516571 0.082491 0.216838
O9    O     O_R   0.049148 0.583512 0.048908 -0.370045
O10   O     O_R   0.121456 0.425155 0.143826 -0.371753
N4    N     N_R   0.810169 0.315454 0.916769 0.204123
O11   O     O_R   0.923359 0.328460 0.947785 -0.339303
O12   O     O_R   0.786045 0.217667 0.860655 -0.389222

loop_
_geom_bond_atom_site_label_1
_geom_bond_atom_site_label_2
_geom_bond_distance
_ccdc_geom_bond_type
C4    C7    1.421101 S    
C23   C25   1.396346 A    
O5    Zn1   2.004418 S    
N4    O12   1.301525 A    
C31   H13   1.108374 S    
N3    O10   1.301410 A    
C3    C8    1.426682 S    
C24   C26   1.396359 A    
C17   C19   1.392390 A    
C28   H10   1.081560 S    
C21   H5    1.083793 S    
O3    Zn1   1.995216 S    
C27   H9    1.081948 S    
O6    C4    1.280511 A    
O3    C2    1.281779 A    
C9    H1    1.086443 S    
C18   C20   1.391704 A    
N4    O11   1.301702 A    
C11   C17   1.394226 A    
O8    C3    1.283136 A    
C18   H4    1.084738 S    
C32   H16   1.105792 S    
O4    Zn2   1.995218 S    
C12   C18   1.393889 A    
C17   H3    1.084626 S    
O5    C3    1.283819 A    
C21   C26   1.396195 A    
O2    C2    1.281510 A    
C29   N2    1.366402 A    
O1    C1    1.281441 A    
C6    C16   1.413854 A    
C20   N4    1.435730 S    
C28   N1    1.366432 A    
C22   C24   1.369900 A    
C19   N3    1.437586 S    
Zn2   N2    2.009593 S    
C1    C26   1.415120 S    
C14   C16   1.424789 A    
C27   N2    1.366467 A    
C24   H8    1.083947 S    
C30   H12   1.081830 S    
C8    C10   1.386294 A    
C2    C25   1.415112 S    
C31   H14   1.110031 S    
C11   C13   1.408387 A    
C23   H7    1.083908 S    
C30   N1    1.366500 A    
O2    Zn2   1.993803 S    
O7    C4    1.283033 A    
C12   C14   1.407141 A    
C32   H17   1.110213 S    
C5    C15   1.413088 A    
Zn1   N1    2.009593 S    
C10   C12   1.377132 A    
C13   C14   1.397614 A    
N3    O9    1.301571 A    
C32   H18   1.107891 S    
C22   H6    1.083789 S    
C13   C15   1.425880 A    
O1    Zn1   1.993805 S    
C21   C23   1.369989 A    
C16   C19   1.420888 A    
C6    C8    1.408084 A    
C10   H2    1.086500 S    
C27   C30   1.416642 A    
C15   C20   1.420807 A    
C5    C7    1.404926 A    
C31   H15   1.110982 S    
C28   C29   1.416476 A    
C22   C25   1.396190 A    
O7    Zn1   2.003340 S    
O6    Zn2   2.004416 S    
C7    C9    1.384258 A    
C29   H11   1.081798 S    
O8    Zn2   2.003341 S    
O4    C1    1.281865 A    
C9    C11   1.377389 A    
C6    C32   1.519661 S    
C5    C31   1.519732 S    
