data_mof_unit_62035.cif
_audit_creation_date              2012-12-10T17:38:57-0500
_audit_creation_method            fapswitch 2.2
_symmetry_space_group_name_H-M    P1
_symmetry_Int_Tables_number       1
_space_group_crystal_system       triclinic
_cell_length_a                    12.138025
_cell_length_b                    12.769894
_cell_length_c                    23.438219
_cell_angle_alpha                 92.257971
_cell_angle_beta                  87.504513
_cell_angle_gamma                 93.668945
_cell_volume                      3619.62698486

loop_
_atom_site_label
_atom_site_type_symbol
_atom_type_description
_atom_site_fract_x
_atom_site_fract_y
_atom_site_fract_z
_atom_type_partial_charge
Br1   Br    Br    0.253885 0.690904 0.591114 -0.340995
Br2   Br    Br    0.746238 0.306803 0.410169 -0.399471
Br3   Br    Br    0.975845 0.228022 0.461058 -0.315877
Br4   Br    Br    0.025606 0.772211 0.539323 -0.313032
Br5   Br    Br    0.263325 0.419806 0.676451 -0.381536
Br6   Br    Br    0.279115 0.592194 0.332261 -0.368016
Br7   Br    Br    0.558520 0.200681 0.608603 -0.443096
Br8   Br    Br    0.455480 0.803282 0.390261 -0.417648
C1    C     C_R   0.522138 0.699752 0.499963 0.935256
C2    C     C_R   0.588057 0.458188 0.295852 -0.214959
C3    C     C_R   0.609851 0.499219 0.757598 -0.070625
C4    C     C_R   0.591035 0.452490 0.236703 -0.081191
C5    C     C_R   0.514382 0.474815 0.790747 0.244855
C6    C     C_R   0.503014 0.486154 0.207603 0.244957
C7    C     C_R   0.464427 0.189180 0.496969 -0.076664
C8    C     C_R   0.536174 0.811011 0.504539 -0.084711
C9    C     C_R   0.567297 0.962734 0.566583 -0.087089
C10   C     C_R   0.432728 0.037172 0.435418 -0.087031
C11   C     C_R   0.574060 0.856459 0.555557 -0.196676
C12   C     C_R   0.477982 0.300342 0.500660 0.931547
C13   C     C_R   0.424222 0.143003 0.446663 -0.200935
C14   C     C_R   0.494145 0.870154 0.462795 0.208892
C15   C     C_R   0.509720 0.131005 0.538249 0.210514
C16   C     C_R   0.500394 0.496451 0.610460 0.921950
C17   C     C_R   0.498748 0.500618 0.389422 0.924171
C18   C     C_R   0.482324 0.976792 0.474534 0.068421
C19   C     C_R   0.519674 0.023814 0.527044 0.069943
C20   C     C_R   0.945748 0.375140 0.465211 0.217510
C21   C     C_R   0.054578 0.624856 0.534979 0.213144
C22   C     C_R   0.834990 0.397075 0.459946 0.333759
C23   C     C_R   0.413232 0.453480 0.765288 -0.121080
C24   C     C_R   0.165099 0.602411 0.540468 0.358123
C25   C     C_R   0.861389 0.551701 0.518569 0.276696
C26   C     C_R   0.138773 0.448707 0.481105 0.304720
C27   C     C_R   0.978628 0.545802 0.513091 -0.156201
C28   C     C_R   0.021585 0.454528 0.486730 -0.163482
C29   C     C_R   0.495855 0.389159 0.117674 0.524855
C30   C     C_R   0.534232 0.569518 0.880545 0.523948
C31   C     C_R   0.525156 0.576347 0.119528 0.526135
C32   C     C_R   0.505472 0.382280 0.878435 0.527756
C33   C     C_R   0.529511 0.576443 0.059932 -0.026049
C34   C     C_R   0.411594 0.525277 0.237443 -0.120577
C35   C     C_R   0.504853 0.381714 0.938045 -0.027059
C36   C     C_R   0.516371 0.479889 0.029016 -0.016434
C37   C     C_R   0.518935 0.478146 0.969007 -0.016392
C38   C     C_R   0.499870 0.385180 0.057974 -0.024370
C39   C     C_R   0.534589 0.572964 0.940119 -0.022929
C40   C     C_R   0.546170 0.670365 0.030730 -0.137518
C41   C     C_R   0.489526 0.287684 0.967265 -0.136981
C42   C     C_R   0.548660 0.668642 0.971298 -0.137975
C43   C     C_R   0.487028 0.289405 0.026749 -0.138093
C44   C     C_R   0.405973 0.458524 0.706398 0.283152
C45   C     C_R   0.407278 0.531578 0.296893 0.293310
C46   C     C_R   0.502187 0.487110 0.672592 -0.107306
C47   C     C_R   0.496718 0.497430 0.326845 -0.122005
C48   C     C_R   0.603912 0.504828 0.698943 -0.203572
H1    H     H_    0.556713 0.745414 0.053654 0.201421
H2    H     H_    0.662148 0.422763 0.213357 0.166553
H3    H     H_    0.391995 0.190053 0.414529 0.180996
H4    H     H_    0.604035 0.808752 0.588056 0.181808
H5    H     H_    0.596657 0.995091 0.606839 0.209288
H6    H     H_    0.402107 0.004446 0.395501 0.210652
H7    H     H_    0.478755 0.212673 0.944326 0.201222
H8    H     H_    0.560982 0.742421 0.949938 0.200775
H9    H     H_    0.474477 0.215666 0.048130 0.200488
H10   H     H_    0.339965 0.433389 0.791634 0.176214
H11   H     H_    0.344251 0.551920 0.214061 0.176210
H12   H     H_    0.679381 0.523783 0.674439 0.204100
H13   H     H_    0.657719 0.431435 0.317228 0.216731
H14   H     H_    0.688405 0.514882 0.777471 0.165955
I1    I     I_    0.209550 0.349583 0.415696 -0.162907
I2    I     I_    0.790773 0.651592 0.583412 -0.226997
N1    N     N_R   0.508017 0.483733 0.146839 -0.354316
N2    N     N_R   0.519207 0.475292 0.851284 -0.354539
N3    N     N_R   0.207800 0.519350 0.510590 -0.168643
N4    N     N_R   0.792200 0.480650 0.489410 -0.171376
O1    O     O_R   0.421690 0.658830 0.502820 -0.565202
O2    O     O_2   0.547214 0.659496 0.851944 -0.529244
O3    O     O_2   0.538279 0.667770 0.150120 -0.518150
O4    O     O_2   0.492376 0.291017 0.847721 -0.515828
O5    O     O_R   0.578310 0.341170 0.497180 -0.564734
O6    O     O_R   0.609320 0.646410 0.496030 -0.600693
O7    O     O_R   0.390680 0.353590 0.503970 -0.601107
O8    O     O_R   0.406170 0.506240 0.587240 -0.560498
O9    O     O_R   0.593830 0.493760 0.412760 -0.601538
O10   O     O_R   0.593790 0.493820 0.580450 -0.609329
O11   O     O_R   0.406210 0.506180 0.419550 -0.572257
O12   O     O_2   0.479065 0.299692 0.146488 -0.527497
Zn1   Zn    Zn3+2 0.374720 0.508290 0.504530 1.081329
Zn2   Zn    Zn3+2 0.625280 0.491710 0.495470 1.045078

loop_
_geom_bond_atom_site_label_1
_geom_bond_atom_site_label_2
_ccdc_geom_bond_type
C23   H10   S    
C41   H7    S    
C10   C13   A    
C42   H8    S    
C29   O12   S    
C27   C28   A    
C10   C18   A    
C23   C44   A    
C24   N3    A    
C3    H14   S    
C40   H1    S    
C31   C33   A    
O1    Zn1   S    
C18   C19   A    
Br3   C20   S    
C1    C8    S    
C13   H3    S    
C21   C24   A    
C34   C45   A    
C25   C27   A    
C16   C46   S    
C17   O11   A    
C43   H9    S    
C25   I2    S    
C9    H5    S    
C32   C35   A    
C44   C46   A    
C41   C43   A    
Br8   C14   S    
C32   O4    S    
Br5   C44   S    
C15   C19   A    
Br4   C21   S    
C26   N3    A    
C6    C34   A    
C4    H2    S    
C40   C42   A    
C12   O5    A    
C36   C38   A    
C39   C42   A    
C37   C39   A    
C7    C12   S    
O7    Zn1   S    
C46   C48   A    
C9    C19   A    
C6    N1    S    
O10   Zn2   S    
C10   H6    S    
C30   O2    S    
C48   H12   S    
C38   C43   A    
Br1   C24   S    
C1    O6    A    
C31   O3    S    
C22   N4    A    
C25   N4    A    
C17   O9    A    
C1    O1    A    
C2    C47   A    
C35   C37   A    
C30   C39   A    
C2    C4    A    
O5    Zn2   S    
C4    C6    A    
O11   Zn1   S    
C34   H11   S    
C33   C36   A    
O8    Zn1   S    
Br6   C45   S    
C36   C37   A    
C30   N2    A    
C29   N1    A    
C8    C14   A    
C45   C47   A    
C5    C23   A    
C35   C41   A    
C17   C47   S    
O9    Zn2   S    
C11   H4    S    
C21   C27   A    
O6    Zn2   S    
Br2   C22   S    
C20   C22   A    
C16   O8    A    
C3    C5    A    
C8    C11   A    
Br7   C15   S    
C7    C15   A    
C9    C11   A    
C33   C40   A    
C32   N2    A    
C26   C28   A    
C31   N1    A    
N3    Zn1   S    
C2    H13   S    
C7    C13   A    
C5    N2    S    
C20   C28   A    
C14   C18   A    
C12   O7    A    
C29   C38   A    
C16   O10   A    
C26   I1    S    
C3    C48   A    
N4    Zn2   S    
