data_mof_unit_24765.cif
_audit_creation_date              2013-03-05T15:53:26-0500
_audit_creation_method            fapswitch 2.2
_symmetry_space_group_name_H-M    P1
_symmetry_Int_Tables_number       1
_space_group_crystal_system       triclinic
_cell_length_a                    14.148266
_cell_length_b                    10.639163
_cell_length_c                    9.928749
_cell_angle_alpha                 89.97841
_cell_angle_beta                  89.905947
_cell_angle_gamma                 91.611758
_cell_volume                      1493.93853701

loop_
_atom_site_label
_atom_site_type_symbol
_atom_site_description
_atom_site_fract_x
_atom_site_fract_y
_atom_site_fract_z
_atom_type_partial_charge
O1    O     O_R   0.500000 0.316780 0.614690 -0.631308
O2    O     O_R   0.499990 0.316750 0.385360 -0.622121
C1    C     C_R   0.502235 0.260668 0.500040 0.843457
O3    O     O_R   0.373720 0.500010 0.614690 -0.607350
O4    O     O_R   0.373710 0.499990 0.385360 -0.615887
C2    C     C_R   0.329291 0.499639 0.500123 0.872191
Zn1   Zn    Zn3+2 0.500010 0.500020 0.653130 0.945394
Zn2   Zn    Zn3+2 0.499990 0.499980 0.346870 0.943300
O5    O     O_R   0.500010 0.683250 0.614640 -0.610031
O6    O     O_R   0.500000 0.683220 0.385310 -0.606065
O7    O     O_R   0.626290 0.500010 0.614640 -0.592301
O8    O     O_R   0.626280 0.499990 0.385310 -0.589705
C3    C     C_R   0.502726 0.739495 0.499937 0.861922
C4    C     C_R   0.670714 0.500283 0.499886 0.861726
C5    C     C_1   0.227793 0.499103 0.500306 -0.207901
C6    C     C_1   0.142517 0.498617 0.500243 0.000899
C7    C     C_1   0.042606 0.498334 0.500089 0.028777
C8    C     C_1   0.957337 0.498481 0.499967 0.042641
C9    C     C_1   0.857442 0.499047 0.499831 0.044495
C10   C     C_1   0.772189 0.499657 0.499770 -0.167490
H1    H     H_    0.381670 0.109503 0.380077 0.162001
C11   C     C_R   0.659882 0.137097 0.626476 -0.262625
H2    H     H_    0.662803 0.238591 0.624070 0.188010
C12   C     C_R   0.734050 0.074923 0.689471 0.368442
C13   C     C_R   0.732975 0.943271 0.689096 -0.212026
H3    H     H_    0.789607 0.892530 0.735585 0.186954
C14   C     C_R   0.659581 0.875231 0.627021 -0.258310
H4    H     H_    0.663673 0.773917 0.626380 0.160635
C15   C     C_R   0.584046 0.937392 0.565249 0.105498
C16   C     C_R   0.584085 0.069039 0.565158 0.047768
C17   C     C_R   0.508958 0.128618 0.499711 -0.065476
C18   C     C_R   0.438205 0.061892 0.431057 -0.211739
H5    H     H_    0.381951 0.881547 0.379733 0.159310
C19   C     C_R   0.438354 0.933467 0.430897 -0.192385
C20   C     C_R   0.509167 0.872094 0.499570 -0.085389
H6    H     H_    0.606405 0.640909 0.124687 0.149282
C21   C     C_R   0.375703 0.335782 0.140080 -0.169602
H7    H     H_    0.373787 0.329996 0.246627 0.203541
C22   C     C_R   0.313302 0.254590 0.070794 0.235272
C23   C     C_R   0.314891 0.254354 0.930667 -0.257180
H8    H     H_    0.267995 0.191335 0.874825 0.160371
C24   C     C_R   0.376045 0.335461 0.860660 -0.176911
H9    H     H_    0.371830 0.329542 0.753884 0.211686
C25   C     C_R   0.438840 0.419056 0.927949 0.169224
C26   C     C_R   0.438773 0.419132 0.072291 0.120062
N1    N     N_R   0.499190 0.498800 0.142780 -0.108775
C27   C     C_R   0.558578 0.577496 0.071262 -0.087956
H10   H     H_    0.606329 0.640923 0.874476 0.146581
C28   C     C_R   0.558545 0.577487 0.928259 -0.084266
N2    N     N_R   0.499160 0.498720 0.857170 -0.109841
N3    N     N_R   0.810508 0.145225 0.752260 0.209776
O9    O     O_R   0.812422 0.267652 0.751121 -0.398437
O10   O     O_R   0.878627 0.087449 0.812196 -0.392857
N4    N     N_2   0.251797 0.168937 0.141753 -0.315793
H11   H     H_    0.218683 0.101635 0.082148 0.239640
C29   C     C_3   0.188124 0.224488 0.237776 -0.762639
H12   H     H_    0.141532 0.149797 0.282596 0.247917
H13   H     H_    0.143255 0.294181 0.186900 0.258147
H14   H     H_    0.227971 0.270457 0.321191 0.227443

loop_
_geom_bond_atom_site_label_1
_geom_bond_atom_site_label_2
_geom_bond_distance
_ccdc_geom_bond_type
C7    C8    1.206446 T    
O4    Zn2   1.826447 S    
Zn1   O7    1.826447 S    
C23   H8    1.083343 S    
C15   C16   1.400596 A    
C14   C15   1.413230 A    
C15   C20   1.411181 A    
C9    C10   1.206393 T    
C29   H14   1.108732 S    
C16   C17   1.411982 A    
Zn2   O8    1.827701 S    
C12   N3    1.440593 S    
C23   C24   1.389943 A    
H5    C19   1.084782 S    
C13   H3    1.082508 S    
N3    O9    1.302083 A    
C21   C22   1.399440 A    
O1    Zn1   1.986666 S    
C26   N1    1.378608 A    
C29   H12   1.110553 S    
C1    C17   1.410788 S    
N4    H11   1.031891 S    
C21   H7    1.059908 S    
C24   C25   1.408762 A    
O3    Zn1   1.827703 S    
O3    C2    1.300491 A    
H10   C28   1.081938 S    
O7    C4    1.300290 A    
C29   H13   1.111395 S    
C3    C20   1.411131 S    
N4    C29   1.448227 S    
O4    C2    1.300316 A    
C19   C20   1.390584 A    
H1    C18   1.084675 S    
C11   C12   1.403846 A    
C22   N4    1.427202 S    
C13   C14   1.393665 A    
C24   H9    1.063715 S    
C21   C26   1.410209 A    
C5    C6    1.206383 T    
C4    C10   1.435885 S    
C14   H4    1.081098 S    
C12   C13   1.400328 A    
H6    C27   1.081751 S    
C27   C28   1.419838 A    
C28   N2    1.367175 A    
C25   N2    1.377473 A    
C22   C23   1.391434 A    
Zn1   O5    1.986377 S    
O5    C3    1.286314 A    
C11   H2    1.079689 S    
C8    C9    1.413529 S    
O2    C1    1.286150 A    
C11   C16   1.415544 A    
Zn2   N1    2.026450 S    
N3    O10   1.302212 A    
C2    C5    1.435868 S    
N1    C27   1.367205 A    
Zn2   O6    1.986665 S    
O2    Zn2   1.986378 S    
C25   C26   1.433139 A    
C17   C18   1.390433 A    
Zn1   N2    2.025918 S    
O8    C4    1.300614 A    
C6    C7    1.413488 S    
O1    C1    1.286326 A    
O6    C3    1.286309 A    
C18   C19   1.366390 A    
