data_mof_unit_68434.cif
_audit_creation_date              2012-12-11T18:21:51-0500
_audit_creation_method            fapswitch 2.2
_symmetry_space_group_name_H-M    P1
_symmetry_Int_Tables_number       1
_space_group_crystal_system       triclinic
_cell_length_a                    8.152532
_cell_length_b                    14.257814
_cell_length_c                    14.917117
_cell_angle_alpha                 95.07528
_cell_angle_beta                  97.835252
_cell_angle_gamma                 91.482352
_cell_volume                      1709.7384325

loop_
_atom_site_label
_atom_site_type_symbol
_atom_type_description
_atom_site_fract_x
_atom_site_fract_y
_atom_site_fract_z
_atom_type_partial_charge
Ba1   Ba    Ba6+2 0.833400 0.543310 0.453520 1.643740
Ba2   Ba    Ba6+2 0.356420 0.456770 0.546480 1.636977
C1    C     C_3   0.558314 0.891603 0.223581 -0.356207
C2    C     C_R   0.909033 0.443901 0.924955 -0.035863
C3    C     C_R   0.047707 0.461195 0.111954 -0.025400
C4    C     C_3   0.073037 0.786948 0.196789 0.308322
C5    C     C_R   0.900406 0.407674 0.080825 -0.048946
C6    C     C_R   0.831070 0.400662 0.989760 -0.113866
C7    C     C_R   0.114789 0.473248 0.205800 0.059507
C8    C     C_R   0.265830 0.523353 0.231454 -0.292157
C9    C     C_R   0.076533 0.526482 0.794512 0.034699
C10   C     C_R   0.143734 0.538409 0.888289 -0.025581
C11   C     C_R   0.061512 0.495024 0.953222 0.020030
C12   C     C_3   0.543524 0.791334 0.249374 0.389321
C13   C     C_R   0.290977 0.591861 0.919359 -0.005681
C14   C     C_R   0.361926 0.597403 0.010123 -0.052628
C15   C     C_R   0.284085 0.554105 0.074985 -0.013035
C16   C     C_3   0.995151 0.787455 0.097569 0.267846
C17   C     C_R   0.130684 0.503897 0.046905 0.024624
C18   C     C_R   0.353945 0.560607 0.167416 -0.020339
C19   C     C_R   0.927994 0.474035 0.768506 -0.292922
C20   C     C_R   0.706227 0.936855 0.549340 -0.039184
C21   C     C_R   0.508022 0.801000 0.497706 0.044352
C22   C     C_R   0.355201 0.767822 0.449383 -0.287897
C23   C     C_3   0.456966 0.315559 0.273358 0.311184
C24   C     C_R   0.243171 0.829717 0.409566 -0.003580
C25   C     C_R   0.288615 0.924497 0.410721 -0.154188
C26   C     C_R   0.444837 0.958703 0.454427 -0.006370
C27   C     C_R   0.554451 0.898152 0.501319 -0.027736
C28   C     C_3   0.212303 0.745145 0.642821 0.307002
C29   C     C_R   0.643168 0.091241 0.498282 -0.001253
C30   C     C_R   0.753050 0.031820 0.546255 0.003212
C31   C     C_R   0.689339 0.187189 0.497990 0.036133
C32   C     C_R   0.841842 0.222420 0.544053 -0.288656
C33   C     C_R   0.954769 0.163044 0.586247 0.004092
C34   C     C_3   0.414446 0.287188 0.171856 -0.392999
C35   C     C_R   0.909910 0.067969 0.588980 -0.147015
C36   C     C_R   0.490373 0.053432 0.452560 -0.028082
C37   C     C_3   0.228060 0.851838 0.662023 -0.405371
C38   C     C_3   0.972302 0.251603 0.350531 0.286219
C39   C     C_3   0.964682 0.144349 0.327883 0.261432
C40   C     C_3   0.731430 0.669105 0.723053 0.306944
C41   C     C_3   0.746816 0.694792 0.825170 -0.386275
C42   C     C_3   0.851638 0.128970 0.173791 0.338609
C43   C     C_3   0.740129 0.060808 0.105793 -0.206534
C44   C     C_3   0.754186 0.080052 0.008126 -0.532108
C45   C     C_3   0.168008 0.262589 0.805690 0.412299
C46   C     C_3   0.204971 0.841153 0.019798 0.264854
C47   C     C_3   0.130177 0.877525 0.930229 -0.201574
C48   C     C_3   0.234161 0.960294 0.907014 -0.490733
C49   C     C_3   0.193052 0.235425 0.902849 -0.385377
C50   C     C_3   0.699988 0.211274 0.788803 0.316384
C51   C     C_3   0.623497 0.111843 0.768975 -0.319562
C52   C     C_R   0.840147 0.436476 0.832372 -0.025173
H1    H     H_    0.620651 0.787969 0.316277 0.090981
H2    H     H_    0.647084 0.605856 0.705679 0.074204
H3    H     H_    0.690248 0.916169 0.235746 0.165797
H4    H     H_    0.832026 0.757289 0.845048 0.121734
H5    H     H_    0.795911 0.635389 0.862495 0.074822
H6    H     H_    0.623386 0.711319 0.844718 0.113174
H7    H     H_    0.412624 0.774411 0.255748 -0.099793
H8    H     H_    0.487930 0.939234 0.265716 0.078442
H9    H     H_    0.548968 0.375612 0.283313 0.056937
H10   H     H_    0.318142 0.229195 0.159653 0.117848
H11   H     H_    0.366685 0.348110 0.136319 0.051300
H12   H     H_    0.339291 0.872139 0.712447 0.126749
H13   H     H_    0.526726 0.263232 0.143301 0.113104
H14   H     H_    0.242282 0.328406 0.803200 0.094441
H15   H     H_    0.034905 0.275771 0.786411 -0.121061
H16   H     H_    0.325115 0.220437 0.923713 0.142323
H17   H     H_    0.157662 0.293961 0.949641 0.067047
H18   H     H_    0.114651 0.171841 0.908090 0.100149
H19   H     H_    0.804170 0.211734 0.845191 -0.006679
H20   H     H_    0.748216 0.229934 0.726110 -0.011328
H21   H     H_    0.721960 0.060790 0.760195 0.049821
H22   H     H_    0.533880 0.106935 0.705548 0.152552
H23   H     H_    0.239650 0.885226 0.598778 0.071202
H24   H     H_    0.123819 0.716155 0.206106 -0.004663
H25   H     H_    0.557284 0.093190 0.825548 0.126086
H26   H     H_    0.835284 0.370663 0.126076 0.088438
H27   H     H_    0.716317 0.359654 0.970882 0.088047
H28   H     H_    0.354881 0.629744 0.874202 0.087969
H29   H     H_    0.318972 0.529883 0.302319 0.074967
H30   H     H_    0.875439 0.466745 0.697540 0.074089
H31   H     H_    0.318943 0.694090 0.447707 0.071132
H32   H     H_    0.997181 0.022587 0.623456 0.066623
H33   H     H_    0.173339 0.842452 0.211795 -0.043802
H34   H     H_    0.116156 0.878236 0.689421 0.115027
H35   H     H_    0.876220 0.296129 0.543171 0.063478
H36   H     H_    0.790694 0.894195 0.588782 0.098601
H37   H     H_    0.404427 0.096833 0.414805 0.083756
H38   H     H_    0.890884 0.734108 0.084035 0.097414
H39   H     H_    0.940533 0.856709 0.085285 0.001439
H40   H     H_    0.327657 0.718948 0.620640 0.010708
H41   H     H_    0.106846 0.727156 0.588228 0.072515
H42   H     H_    0.982322 0.118876 0.161699 0.019494
H43   H     H_    0.816738 0.201690 0.160394 0.072187
H44   H     H_    0.777254 0.987744 0.115278 0.117875
H45   H     H_    0.851338 0.275101 0.366479 0.006070
H46   H     H_    0.609079 0.067475 0.117754 0.133086
H47   H     H_    0.710039 0.151329 0.995116 0.141309
H48   H     H_    0.676691 0.026692 0.960998 0.143903
H49   H     H_    0.884643 0.075097 0.994791 0.135432
H50   H     H_    0.342619 0.337710 0.300435 0.015880
H51   H     H_    0.508798 0.895094 0.151005 0.091106
H52   H     H_    0.332094 0.818020 0.012912 0.075160
H53   H     H_    0.218016 0.899512 0.075512 0.010582
H54   H     H_    0.123854 0.819799 0.874583 0.153158
H55   H     H_    0.002504 0.900721 0.935533 0.105899
H56   H     H_    0.068688 0.269743 0.410146 0.006506
H57   H     H_    0.243944 0.018583 0.962279 0.131269
H58   H     H_    0.174761 0.986814 0.843124 0.155372
H59   H     H_    0.360474 0.937716 0.897341 0.133673
H60   H     H_    0.477376 0.637754 0.028762 0.083214
H61   H     H_    0.201411 0.971506 0.378480 0.059885
H62   H     H_    0.952893 0.110868 0.391136 -0.003381
H63   H     H_    0.083698 0.120145 0.306769 -0.000006
H64   H     H_    0.854874 0.653386 0.704445 0.005816
O1    O     O_2   0.841230 0.444160 0.280430 -0.469419
O2    O     O_2   0.296854 0.169493 0.583627 -0.486721
O3    O     O_3   0.220470 0.189543 0.747959 -0.589626
O4    O     O_3   0.112860 0.447350 0.393710 -0.486116
O5    O     O_3   0.560610 0.613730 0.540770 -0.488733
O6    O     O_2   0.387460 0.270290 0.467210 -0.466142
O7    O     O_3   0.522059 0.238237 0.316098 -0.624930
O8    O     O_2   0.496814 0.448495 0.827607 -0.496640
O9    O     O_3   0.579954 0.272724 0.815884 -0.584320
O10   O     O_3   0.597940 0.615700 0.327690 -0.486034
O11   O     O_2   0.700753 0.556183 0.172656 -0.475690
O12   O     O_3   0.670136 0.746059 0.678708 -0.641754
O13   O     O_3   0.011960 0.294147 0.275329 -0.678179
O14   O     O_3   0.598769 0.728707 0.182741 -0.597554
O15   O     O_2   0.802240 0.729740 0.532850 -0.472903
O16   O     O_3   0.017180 0.664790 0.371080 -0.464869
O17   O     O_2   0.907436 0.830770 0.423209 -0.488431
O18   O     O_3   0.825474 0.113101 0.263336 -0.642754
O19   O     O_3   0.111184 0.761769 0.038149 -0.678290
O20   O     O_3   0.952222 0.807209 0.253477 -0.607460
O21   O     O_2   0.348480 0.555870 0.719620 -0.468431
O22   O     O_3   0.076830 0.552730 0.606300 -0.496551
O23   O     O_3   0.591760 0.384380 0.672320 -0.457142
O24   O     O_3   0.186423 0.706400 0.722753 -0.646155
O25   O     O_3   0.629090 0.386350 0.459240 -0.480828
O26   O     O_3   0.172520 0.335290 0.628920 -0.479788
P1    P     P_3+3 0.018600 0.416790 0.295970 0.972387
P2    P     P_3+3 0.635660 0.716530 0.560900 0.968553
P3    P     P_3+3 0.031752 0.785794 0.364501 0.958938
P4    P     P_3+3 0.171090 0.583290 0.704030 0.969947
P5    P     P_3+3 0.161136 0.213243 0.635190 0.965091
P6    P     P_3+3 0.562776 0.613752 0.210122 0.962565
P7    P     P_3+3 0.560817 0.268802 0.433578 0.950296
P8    P     P_3+3 0.629057 0.386497 0.789939 0.953113

loop_
_geom_bond_atom_site_label_1
_geom_bond_atom_site_label_2
_ccdc_geom_bond_type
C42   O18   S    
C20   C27   A    
O12   P2    S    
Ba2   O26   S    
Ba1   P1    S    
Ba1   O10   S    
C2    C6    A    
C18   P6    S    
O22   P4    S    
C38   H45   S    
C34   H13   S    
C5    C6    A    
C12   O14   S    
C43   C44   S    
C1    H51   S    
O16   P3    S    
C44   H48   S    
C24   C25   A    
C28   H41   S    
C20   C30   A    
C46   O19   S    
C42   H42   S    
Ba2   O21   S    
C21   C27   A    
C26   C27   A    
C51   H25   S    
C22   C24   A    
C32   C33   A    
C50   H20   S    
C43   H44   S    
Ba1   O1    S    
C19   C52   A    
C9    P4    S    
C4    H24   S    
C46   H53   S    
Ba2   P4    S    
C13   C14   A    
C8    H29   S    
C15   C18   A    
O14   P6    S    
Ba1   Ba2   S    
C23   H9    S    
O4    P1    S    
C2    C11   A    
C23   O7    S    
Ba1   O4    S    
C45   H15   S    
O7    P7    S    
C41   H4    S    
C40   H2    S    
O8    P8    D    
C46   H52   S    
C8    C18   A    
C14   C15   A    
C21   C22   A    
C19   H30   S    
C49   H16   S    
C13   H28   S    
C7    C8    A    
C41   H5    S    
O25   P7    S    
C12   H1    S    
Ba2   O25   S    
Ba1   P2    S    
C51   H21   S    
C49   H17   S    
C37   H34   S    
Ba1   O15   S    
C48   H58   S    
C44   H47   S    
C50   O9    S    
C47   H54   S    
Ba2   O4    S    
C4    C16   S    
C21   P2    S    
O21   P4    D    
C11   C17   A    
C6    H27   S    
O24   P4    S    
C35   H32   S    
C50   H19   S    
C31   P7    S    
C3    C5    A    
C34   H11   S    
C40   H64   S    
C52   P8    S    
Ba2   O5    S    
C12   H7    S    
C36   H37   S    
C9    C19   A    
C4    H33   S    
C4    O20   S    
C16   O19   S    
Ba1   O5    S    
C3    C7    A    
O26   P5    S    
Ba1   O25   S    
O9    P8    S    
C42   H43   S    
C29   C30   A    
C10   C13   A    
C26   C36   A    
O20   P3    S    
C29   C31   A    
C31   C32   A    
C20   H36   S    
C40   O12   S    
C30   C35   A    
C1    C12   S    
Ba1   O22   S    
C41   H6    S    
C1    H3    S    
O10   P6    S    
C46   C47   S    
O6    P7    D    
O5    P2    S    
O17   P3    D    
C37   H12   S    
C51   H22   S    
C40   C41   S    
C39   H62   S    
Ba1   O16   S    
C37   H23   S    
C45   H14   S    
C50   C51   S    
C33   C35   A    
C47   H55   S    
C22   H31   S    
C1    H8    S    
C16   H39   S    
C38   C39   S    
C2    C52   A    
C38   O13   S    
C42   C43   S    
C43   H46   S    
C14   H60   S    
C45   C49   S    
C9    C10   A    
C23   H50   S    
C3    C17   A    
Ba2   O6    S    
O2    P5    D    
O1    P1    D    
C44   H49   S    
C28   O24   S    
C29   C36   A    
C48   H59   S    
Ba2   O22   S    
C32   H35   S    
C16   H38   S    
O11   P6    D    
C28   H40   S    
C7    P1    S    
C48   H57   S    
C15   C17   A    
O3    P5    S    
C28   C37   S    
O13   P1    S    
C24   P3    S    
C38   H56   S    
C45   O3    S    
C23   C34   S    
C10   C11   A    
C47   C48   S    
C49   H18   S    
C25   C26   A    
Ba2   O23   S    
O15   P2    D    
C33   P5    S    
C39   H63   S    
C34   H10   S    
C39   O18   S    
O23   P8    S    
C5    H26   S    
C25   H61   S    
