data_mof_unit_41411.cif
_audit_creation_date              2012-12-10T17:11:59-0500
_audit_creation_method            fapswitch 2.2
_symmetry_space_group_name_H-M    P1
_symmetry_Int_Tables_number       1
_space_group_crystal_system       triclinic
_cell_length_a                    11.775751
_cell_length_b                    12.989686
_cell_length_c                    15.639241
_cell_angle_alpha                 93.759514
_cell_angle_beta                  73.237922
_cell_angle_gamma                 99.33827
_cell_volume                      2259.7835481

loop_
_atom_site_label
_atom_site_type_symbol
_atom_type_description
_atom_site_fract_x
_atom_site_fract_y
_atom_site_fract_z
_atom_type_partial_charge
C1    C     C_R   0.519736 0.700087 0.502733 0.899223
C2    C     C_R   0.480249 0.300175 0.497287 0.855509
C3    C     C_R   0.349677 0.396973 0.087662 0.076296
C4    C     C_R   0.633386 0.418128 0.905752 0.086627
C5    C     C_R   0.264836 0.393168 0.039449 0.321853
C6    C     C_R   0.718790 0.427861 0.953880 0.338830
C7    C     C_R   0.472481 0.187694 0.489536 -0.100616
C8    C     C_R   0.528115 0.813168 0.508909 -0.058013
C9    C     C_R   0.570218 0.975275 0.587115 0.148356
C10   C     C_R   0.445656 0.029843 0.401248 0.139466
C11   C     C_R   0.571650 0.867683 0.575836 0.038510
C12   C     C_R   0.444394 0.137514 0.414763 0.086165
C13   C     C_R   0.489348 0.864532 0.448964 0.086473
C14   C     C_R   0.501658 0.132560 0.552514 0.113936
C15   C     C_R   0.484307 0.973326 0.460143 0.019739
C16   C     C_R   0.518927 0.027391 0.533730 0.044205
C17   C     C_R   0.936036 0.604836 0.579756 0.343958
C18   C     C_R   0.062888 0.393291 0.422176 0.342365
C19   C     C_R   0.819281 0.591135 0.572585 -0.062170
C20   C     C_R   0.180186 0.407942 0.428285 -0.071332
C21   C     C_R   0.860284 0.455094 0.464633 0.580317
C22   C     C_R   0.139381 0.544133 0.536151 0.578950
C23   C     C_R   0.426021 0.492601 0.668967 0.813251
C24   C     C_R   0.573684 0.504188 0.330786 0.828425
C25   C     C_R   0.980050 0.460680 0.471312 -0.203103
C26   C     C_R   0.019302 0.538110 0.529989 -0.202803
C27   C     C_R   0.379417 0.473830 0.766420 -0.074943
C28   C     C_R   0.617581 0.495374 0.231789 -0.097912
C29   C     C_R   0.218889 0.422906 0.900658 -0.153908
C30   C     C_R   0.772071 0.473436 0.093248 -0.126385
C31   C     C_R   0.256157 0.447650 0.810017 0.124341
C32   C     C_R   0.739726 0.495880 0.185287 0.166593
C33   C     C_R   0.462097 0.474367 0.815434 -0.211057
C34   C     C_R   0.532483 0.479221 0.183473 -0.212007
C35   C     C_R   0.426819 0.439296 0.903885 0.070493
C36   C     C_R   0.562454 0.450165 0.092314 0.064614
C37   C     C_R   0.302663 0.418785 0.948510 -0.005238
C38   C     C_R   0.685178 0.450438 0.046165 -0.001246
C39   C     C_R   0.512437 0.430266 0.950293 -0.029871
C40   C     C_R   0.474056 0.427265 0.044911 -0.027438
Cu1   Cu    Cu3+1 0.386820 0.492450 0.493500 1.021564
Cu2   Cu    Cu3+1 0.613180 0.507550 0.506500 1.019793
H1    H     H_    0.242725 0.357844 0.390253 0.192791
H2    H     H_    0.756497 0.640792 0.610980 0.192640
H3    H     H_    0.442829 0.493514 0.217666 0.192217
H4    H     H_    0.554587 0.505339 0.784219 0.192653
H5    H     H_    0.123474 0.405939 0.932452 0.227161
H6    H     H_    0.866305 0.475546 0.058797 0.206583
N1    N     N_R   0.216750 0.481110 0.483710 -0.246513
N2    N     N_R   0.783250 0.518890 0.516290 -0.251821
O1    O     O_R   0.419950 0.645670 0.495380 -0.526787
O2    O     O_R   0.580050 0.354330 0.504620 -0.529274
O3    O     O_R   0.611110 0.658410 0.506370 -0.581849
O4    O     O_R   0.388890 0.341590 0.493630 -0.575661
O5    O     O_R   0.350820 0.490050 0.621260 -0.506215
O6    O     O_R   0.649180 0.509950 0.378740 -0.518865
O7    O     O_R   0.541970 0.502800 0.632250 -0.602100
O8    O     O_R   0.458030 0.497200 0.367750 -0.594208
Cl1   Cl    Cl    0.110592 0.357092 0.095482 -0.587129
Cl2   Cl    Cl    0.868171 0.411214 0.896388 -0.682646
Cl3   Cl    Cl    0.965832 0.712180 0.649415 -0.537643
Cl4   Cl    Cl    0.031175 0.283090 0.355903 -0.517871
N3    N     N_3   0.831146 0.522147 0.230526 -0.483879
H7    H     H_    0.836632 0.601930 0.246308 0.209204
H8    H     H_    0.915101 0.510587 0.188422 0.262510
N4    N     N_3   0.167881 0.446473 0.763194 -0.502290
H9    H     H_    0.116701 0.372228 0.768620 0.255597
H10   H     H_    0.111386 0.500405 0.794613 0.295919
N5    N     N_3   0.310759 0.357665 0.176773 -0.576087
H11   H     H_    0.270095 0.280065 0.175067 0.285792
H12   H     H_    0.247298 0.401632 0.216363 0.270314
N6    N     N_3   0.666254 0.383474 0.813959 -0.568587
H13   H     H_    0.694962 0.310837 0.810363 0.274276
H14   H     H_    0.737414 0.436778 0.777546 0.264234
N7    N     N_3   0.506537 0.180152 0.637926 -0.511016
H15   H     H_    0.484477 0.255435 0.646545 0.204164
H16   H     H_    0.439434 0.136860 0.687102 0.227287
N8    N     N_3   0.457221 0.802838 0.377377 -0.579447
H17   H     H_    0.514014 0.829738 0.315866 0.249469
H18   H     H_    0.366770 0.802809 0.382407 0.275081
N9    N     N_3   0.416326 0.197787 0.351633 -0.574618
H19   H     H_    0.478405 0.191717 0.289144 0.236694
H20   H     H_    0.330188 0.168799 0.346888 0.238341
N10   N     N_3   0.613607 0.812018 0.634305 -0.582725
H21   H     H_    0.561705 0.821861 0.700025 0.227308
H22   H     H_    0.703081 0.842268 0.629140 0.245209
N11   N     N_3   0.625698 0.032315 0.650141 -0.532831
H23   H     H_    0.583274 0.002798 0.713918 0.222477
H24   H     H_    0.716154 0.023134 0.632425 0.243058
N12   N     N_3   0.409963 0.979724 0.326575 -0.617224
H25   H     H_    0.321582 0.989532 0.332726 0.238634
H26   H     H_    0.466349 0.013344 0.267422 0.234240
Cl5   Cl    Cl    0.191153 0.627059 0.614943 -0.496299
Cl6   Cl    Cl    0.808554 0.371475 0.386243 -0.452078

loop_
_geom_bond_atom_site_label_1
_geom_bond_atom_site_label_2
_ccdc_geom_bond_type
C31   N4    S    
N4    H10   S    
N11   H23   S    
N3    H8    S    
C8    C13   A    
C5    C37   A    
C1    C8    S    
Cu1   Cu2   S    
C2    C7    S    
N9    H19   S    
C27   C33   A    
C29   H5    S    
C17   C26   A    
C30   H6    S    
C35   C37   A    
C9    C16   A    
N10   H22   S    
Cu1   O8    S    
C10   C15   A    
Cu2   O3    S    
C33   C35   A    
N8    H18   S    
C21   Cl6   S    
C15   C16   A    
C30   C38   A    
N5    H12   S    
C1    O3    A    
Cu1   O5    S    
Cu2   O6    S    
C7    C14   A    
C6    C38   A    
C23   C27   S    
C34   C36   A    
C17   Cl3   S    
N4    H9    S    
C28   C34   A    
C33   H4    S    
C18   C25   A    
C10   C12   A    
Cu2   O7    S    
Cu1   N1    S    
C21   N2    A    
N9    H20   S    
C7    C12   A    
C5    Cl1   S    
C27   C31   A    
C6    Cl2   S    
C36   C40   A    
N10   H21   S    
C4    C6    A    
C2    O4    A    
C39   C40   A    
N8    H17   S    
C18   Cl4   S    
C25   C26   A    
C35   C39   A    
N7    H15   S    
C20   N1    A    
N7    H16   S    
N12   H26   S    
C4    C39   A    
C28   C32   A    
C34   H3    S    
C1    O1    A    
C2    O2    A    
Cu2   N2    S    
C22   N1    A    
N6    H14   S    
C3    C40   A    
C9    C11   A    
C22   Cl5   S    
C14   C16   A    
C4    N6    S    
C20   H1    S    
C19   H2    S    
C23   O7    A    
C21   C25   A    
C13   N8    S    
C3    N5    S    
C24   C28   S    
C32   N3    S    
N6    H13   S    
C3    C5    A    
C23   O5    A    
C11   N10   S    
C24   O6    A    
C14   N7    S    
C13   C15   A    
C29   C31   A    
C9    N11   S    
C30   C32   A    
C19   N2    A    
N12   H25   S    
C8    C11   A    
C36   C38   A    
C17   C19   A    
C12   N9    S    
C18   C20   A    
N5    H11   S    
Cu1   O4    S    
N3    H7    S    
C10   N12   S    
C24   O8    A    
C22   C26   A    
C29   C37   A    
N11   H24   S    
Cu1   O1    S    
Cu2   O2    S    
