data_mof_unit_60544.cif
_audit_creation_date              2012-10-26T17:20:00-0400
_audit_creation_method            fapswitch 2.2
_symmetry_space_group_name_H-M    P1
_symmetry_Int_Tables_number       1
_space_group_crystal_system       triclinic
_cell_length_a                    30.22425
_cell_length_b                    30.22425
_cell_length_c                    47.270924
_cell_angle_alpha                 89.99998
_cell_angle_beta                  89.99998
_cell_angle_gamma                 89.999986
_cell_volume                      43182.2390456

loop_
_atom_site_label
_atom_site_type_symbol
_atom_type_description
_atom_site_fract_x
_atom_site_fract_y
_atom_site_fract_z
_atom_type_partial_charge
Br1   Br    Br    0.797511 0.406405 0.565712 -0.263481
Br2   Br    Br    0.093596 0.297511 0.065712 -0.263475
Br3   Br    Br    0.702489 0.093596 0.065712 -0.263472
Br4   Br    Br    0.906405 0.702489 0.065712 -0.263475
Br5   Br    Br    0.297511 0.093595 0.934288 -0.263485
Br6   Br    Br    0.093595 0.702489 0.934288 -0.263484
Br7   Br    Br    0.702489 0.906404 0.934288 -0.263485
Br8   Br    Br    0.906404 0.297511 0.934288 -0.263483
Br9   Br    Br    0.876954 0.474767 0.558044 -0.322014
Br10  Br    Br    0.525233 0.876954 0.558044 -0.322013
Br11  Br    Br    0.123046 0.525233 0.558044 -0.322014
Br12  Br    Br    0.593595 0.797511 0.565712 -0.263480
Br13  Br    Br    0.474767 0.123046 0.558044 -0.322013
Br14  Br    Br    0.876954 0.525233 0.441956 -0.322007
Br15  Br    Br    0.525233 0.123046 0.441956 -0.322007
Br16  Br    Br    0.123046 0.474767 0.441956 -0.322008
Br17  Br    Br    0.474767 0.876954 0.441956 -0.322007
Br18  Br    Br    0.376954 0.974766 0.058044 -0.322020
Br19  Br    Br    0.025234 0.376954 0.058044 -0.322017
Br20  Br    Br    0.623046 0.025234 0.058044 -0.322020
Br21  Br    Br    0.974766 0.623046 0.058044 -0.322017
Br22  Br    Br    0.376954 0.025234 0.941956 -0.322012
Br23  Br    Br    0.202489 0.593595 0.565712 -0.263481
Br24  Br    Br    0.025234 0.623046 0.941956 -0.322013
Br25  Br    Br    0.623046 0.974766 0.941956 -0.322012
Br26  Br    Br    0.974766 0.376954 0.941956 -0.322012
Br27  Br    Br    0.406405 0.202489 0.565712 -0.263480
Br28  Br    Br    0.797511 0.593595 0.434287 -0.263491
Br29  Br    Br    0.593594 0.202489 0.434287 -0.263492
Br30  Br    Br    0.202489 0.406405 0.434288 -0.263491
Br31  Br    Br    0.406405 0.797511 0.434288 -0.263492
Br32  Br    Br    0.297511 0.906404 0.065712 -0.263472
C1    C     C_R   0.914577 0.500000 0.500000 0.578819
C2    C     C_R   0.500000 1.000000 0.645562 0.092845
C3    C     C_R   0.477461 0.202742 0.521953 0.032976
C4    C     C_R   0.797258 0.522538 0.478047 0.032976
C5    C     C_R   0.522538 0.202742 0.478047 0.032976
C6    C     C_R   0.202742 0.477461 0.478048 0.032975
C7    C     C_R   0.477461 0.797258 0.478048 0.032976
C8    C     C_R   0.297258 0.977461 0.021952 0.032975
C9    C     C_R   0.022539 0.297258 0.021952 0.032976
C10   C     C_R   0.702742 0.022539 0.021952 0.032975
C11   C     C_R   0.977461 0.702742 0.021952 0.032976
C12   C     C_R   0.297258 0.022539 0.978048 0.032975
C13   C     C_R   1.000000 0.500000 0.354438 0.092843
C14   C     C_R   0.022539 0.702742 0.978048 0.032975
C15   C     C_R   0.702742 0.977461 0.978048 0.032975
C16   C     C_R   0.977461 0.297258 0.978048 0.032975
C17   C     C_R   0.774008 0.500000 0.500000 -0.035638
C18   C     C_R   0.500000 0.774007 0.500000 -0.035638
C19   C     C_R   0.225992 0.500000 0.500000 -0.035638
C20   C     C_R   0.500000 0.225992 0.500000 -0.035638
C21   C     C_R   0.274008 1.000000 1.000000 -0.035639
C22   C     C_R   1.000000 0.274008 0.000000 -0.035638
C23   C     C_R   0.725992 0.000000 0.000000 -0.035638
C24   C     C_R   0.500000 1.000000 0.354438 0.092843
C25   C     C_R   0.000000 0.725992 0.000000 -0.035638
C26   C     C_R   0.843658 0.482496 0.523338 0.146407
C27   C     C_R   0.517505 0.843658 0.523338 0.146408
C28   C     C_R   0.156342 0.517505 0.523338 0.146408
C29   C     C_R   0.482496 0.156342 0.523338 0.146407
C30   C     C_R   0.843658 0.517504 0.476662 0.146411
C31   C     C_R   0.517504 0.156342 0.476662 0.146411
C32   C     C_R   0.156342 0.482495 0.476662 0.146411
C33   C     C_R   0.482495 0.843658 0.476662 0.146411
C34   C     C_R   0.343658 0.982495 0.023337 0.146405
C35   C     C_R   0.500000 1.000000 0.145563 0.092846
C36   C     C_R   0.017505 0.343658 0.023337 0.146406
C37   C     C_R   0.656342 0.017505 0.023337 0.146405
C38   C     C_R   0.982495 0.656342 0.023337 0.146406
C39   C     C_R   0.343658 0.017505 0.976663 0.146410
C40   C     C_R   0.017505 0.656342 0.976663 0.146409
C41   C     C_R   0.656342 0.982495 0.976663 0.146410
C42   C     C_R   0.982495 0.343658 0.976663 0.146409
C43   C     C_R   0.000000 0.500000 0.554531 0.607243
C44   C     C_R   0.500000 0.000000 0.554531 0.607244
C45   C     C_R   0.000000 0.500000 0.445469 0.607255
C46   C     C_R   1.000000 0.500000 0.145563 0.092846
C47   C     C_R   0.500000 1.000000 0.445469 0.607257
C48   C     C_R   0.500000 0.000000 0.054531 0.607230
C49   C     C_R   0.000000 0.500000 0.054531 0.607233
C50   C     C_R   0.500000 0.000000 0.945469 0.607246
C51   C     C_R   0.000000 0.500000 0.945469 0.607244
C52   C     C_R   0.866363 0.500000 0.500000 0.015194
C53   C     C_R   0.500000 0.866363 0.500000 0.015194
C54   C     C_R   0.133637 0.500000 0.500000 0.015194
C55   C     C_R   0.500000 0.133637 0.500000 0.015194
C56   C     C_R   0.366363 1.000000 0.000000 0.015191
C57   C     C_R   0.500000 1.000000 0.854438 0.092843
C58   C     C_R   0.000000 0.366363 0.000000 0.015191
C59   C     C_R   0.633637 0.000000 0.000000 0.015191
C60   C     C_R   1.000000 0.633637 0.000000 0.015191
C61   C     C_R   0.500000 0.585843 0.500000 0.600818
C62   C     C_R   0.414157 0.500000 0.500000 0.600818
C63   C     C_R   0.500000 0.414157 0.500000 0.600818
C64   C     C_R   0.585843 0.500000 0.500000 0.600817
C65   C     C_R   1.000000 0.085843 0.000000 0.600817
C66   C     C_R   0.914157 0.000000 0.000000 0.600818
C67   C     C_R   0.000000 0.914157 0.000000 0.600818
C68   C     C_R   1.000000 0.500000 0.854438 0.092844
C69   C     C_R   0.085843 1.000000 0.000000 0.600817
C70   C     C_R   0.027742 0.528113 0.809772 0.456018
C71   C     C_R   0.528111 0.972256 0.809772 0.456018
C72   C     C_R   0.972258 0.471887 0.809772 0.456019
C73   C     C_R   0.471889 0.027743 0.809772 0.456018
C74   C     C_R   0.027730 0.471875 0.190228 0.456017
C75   C     C_R   0.528127 0.027727 0.190228 0.456018
C76   C     C_R   0.972270 0.528125 0.190228 0.456018
C77   C     C_R   0.471873 0.972272 0.190228 0.456016
C78   C     C_R   0.527755 0.028100 0.309772 0.456018
C79   C     C_R   0.657430 0.523190 0.479023 0.335909
C80   C     C_R   0.028102 0.472247 0.309772 0.456017
C81   C     C_R   0.472245 0.971900 0.309772 0.456017
C82   C     C_R   0.971898 0.527753 0.309772 0.456017
C83   C     C_R   0.527739 0.971884 0.690228 0.456019
C84   C     C_R   0.028114 0.527741 0.690228 0.456018
C85   C     C_R   0.472261 0.028116 0.690228 0.456019
C86   C     C_R   0.971886 0.472259 0.690228 0.456018
C87   C     C_R   0.971458 0.471364 0.779961 -0.010939
C88   C     C_R   0.471366 0.028544 0.779961 -0.010938
C89   C     C_R   0.028542 0.528636 0.779961 -0.010939
C90   C     C_R   0.476810 0.657430 0.479023 0.335909
C91   C     C_R   0.528634 0.971456 0.779961 -0.010938
C92   C     C_R   0.971470 0.528649 0.220039 -0.010940
C93   C     C_R   0.471349 0.971472 0.220039 -0.010940
C94   C     C_R   0.028530 0.471351 0.220039 -0.010940
C95   C     C_R   0.528651 0.028528 0.220039 -0.010940
C96   C     C_R   0.471444 0.971377 0.279961 -0.010938
C97   C     C_R   0.971375 0.528554 0.279961 -0.010940
C98   C     C_R   0.528556 0.028622 0.279961 -0.010938
C99   C     C_R   0.028625 0.471446 0.279961 -0.010939
C100  C     C_R   0.471460 0.028639 0.720039 -0.010939
C101  C     C_R   0.342570 0.476810 0.479023 0.335908
C102  C     C_R   0.971363 0.471458 0.720039 -0.010938
C103  C     C_R   0.528540 0.971361 0.720039 -0.010939
C104  C     C_R   0.028637 0.528541 0.720039 -0.010938
C105  C     C_R   1.000000 0.500000 0.764995 -0.168813
C106  C     C_R   0.500000 0.000000 0.764995 -0.168814
C107  C     C_R   1.000000 0.500000 0.235005 -0.168811
C108  C     C_R   0.500000 1.000000 0.235005 -0.168812
C109  C     C_R   0.500000 1.000000 0.264995 -0.168812
C110  C     C_R   1.000000 0.500000 0.264995 -0.168810
C111  C     C_R   0.500000 0.000000 0.735005 -0.168814
C112  C     C_R   0.500000 0.914577 0.500000 0.578820
C113  C     C_R   0.523190 0.342570 0.479023 0.335908
C114  C     C_R   0.000000 0.500000 0.735005 -0.168813
C115  C     C_R   0.943084 0.443006 0.764759 0.455752
C116  C     C_R   0.443010 0.056920 0.764759 0.455753
C117  C     C_R   0.056916 0.556994 0.764759 0.455752
C118  C     C_R   0.556990 0.943080 0.764759 0.455753
C119  C     C_R   0.943108 0.557019 0.235241 0.455750
C120  C     C_R   0.442977 0.943112 0.235242 0.455752
C121  C     C_R   0.056892 0.442981 0.235241 0.455751
C122  C     C_R   0.557023 0.056888 0.235242 0.455752
C123  C     C_R   0.443056 0.943034 0.264759 0.455751
C124  C     C_R   0.657430 0.476810 0.520977 0.335908
C125  C     C_R   0.943029 0.556940 0.264759 0.455751
C126  C     C_R   0.556944 0.056966 0.264759 0.455751
C127  C     C_R   0.056970 0.443060 0.264759 0.455751
C128  C     C_R   0.443088 0.056999 0.735241 0.455752
C129  C     C_R   0.943005 0.443084 0.735241 0.455753
C130  C     C_R   0.556911 0.943001 0.735241 0.455752
C131  C     C_R   0.056995 0.556916 0.735241 0.455753
C132  C     C_R   0.986079 0.537517 0.630633 -0.008358
C133  C     C_R   0.462483 0.986080 0.630633 -0.008359
C134  C     C_R   0.013921 0.462483 0.630633 -0.008358
C135  C     C_R   0.476810 0.342570 0.520977 0.335910
C136  C     C_R   0.537517 0.013920 0.630633 -0.008358
C137  C     C_R   0.986066 0.462488 0.369367 -0.008358
C138  C     C_R   0.462488 0.013935 0.369367 -0.008357
C139  C     C_R   0.013933 0.537512 0.369367 -0.008358
C140  C     C_R   0.537512 0.986065 0.369367 -0.008358
C141  C     C_R   0.486094 0.037522 0.130634 -0.008358
C142  C     C_R   0.962479 0.486090 0.130634 -0.008359
C143  C     C_R   0.513906 0.962478 0.130634 -0.008359
C144  C     C_R   0.037521 0.513910 0.130634 -0.008358
C145  C     C_R   0.486077 0.962484 0.869367 -0.008358
C146  C     C_R   0.342570 0.523190 0.520977 0.335909
C147  C     C_R   0.962483 0.513921 0.869367 -0.008358
C148  C     C_R   0.513923 0.037516 0.869367 -0.008358
C149  C     C_R   0.037517 0.486079 0.869367 -0.008358
C150  C     C_R   0.986076 0.537702 0.601081 0.355543
C151  C     C_R   0.462297 0.986077 0.601081 0.355544
C152  C     C_R   0.013924 0.462297 0.601081 0.355544
C153  C     C_R   0.537702 0.013923 0.601081 0.355543
C154  C     C_R   0.986063 0.462302 0.398919 0.355542
C155  C     C_R   0.462303 0.013938 0.398919 0.355542
C156  C     C_R   0.013936 0.537698 0.398919 0.355541
C157  C     C_R   0.523190 0.657430 0.520977 0.335909
C158  C     C_R   0.537697 0.986062 0.398919 0.355541
C159  C     C_R   0.486091 0.037708 0.101082 0.355545
C160  C     C_R   0.962294 0.486086 0.101082 0.355546
C161  C     C_R   0.513909 0.962292 0.101082 0.355546
C162  C     C_R   0.037706 0.513914 0.101082 0.355545
C163  C     C_R   0.486074 0.962298 0.898919 0.355543
C164  C     C_R   0.962298 0.513924 0.898919 0.355543
C165  C     C_R   0.513926 0.037702 0.898919 0.355543
C166  C     C_R   0.037702 0.486076 0.898919 0.355543
C167  C     C_R   0.000000 0.500000 0.585889 0.039221
C168  C     C_R   0.157430 0.023190 0.979023 0.335909
C169  C     C_R   0.500000 1.000000 0.585889 0.039221
C170  C     C_R   1.000000 0.500000 0.414111 0.039222
C171  C     C_R   0.500000 0.000000 0.414111 0.039224
C172  C     C_R   0.500000 1.000000 0.085889 0.039215
C173  C     C_R   1.000000 0.500000 0.085889 0.039215
C174  C     C_R   0.500000 0.000000 0.914111 0.039220
C175  C     C_R   0.000000 0.500000 0.914111 0.039221
C176  C     C_R   0.976810 0.157430 0.979023 0.335910
C177  C     C_R   0.842570 0.976810 0.979023 0.335910
C178  C     C_R   0.023190 0.842570 0.979023 0.335910
C179  C     C_R   0.157430 0.976810 0.020977 0.335910
C180  C     C_R   0.085423 0.500000 0.500000 0.578819
C181  C     C_R   0.976810 0.842570 0.020977 0.335910
C182  C     C_R   0.842570 0.023190 0.020977 0.335910
C183  C     C_R   0.023190 0.157430 0.020977 0.335910
C184  C     C_R   0.634268 0.500000 0.500000 0.040855
C185  C     C_R   0.500000 0.634268 0.500000 0.040855
C186  C     C_R   0.365732 0.500000 0.500000 0.040855
C187  C     C_R   0.500000 0.365732 0.500000 0.040855
C188  C     C_R   0.134268 1.000000 1.000000 0.040856
C189  C     C_R   1.000000 0.134268 0.000000 0.040855
C190  C     C_R   0.865732 1.000000 0.000000 0.040855
C191  C     C_R   0.500000 0.085423 0.500000 0.578819
C192  C     C_R   0.000000 0.865732 0.000000 0.040855
C193  C     C_R   0.703766 0.476567 0.520977 -0.006191
C194  C     C_R   0.523433 0.703766 0.520977 -0.006191
C195  C     C_R   0.296234 0.523433 0.520977 -0.006191
C196  C     C_R   0.476567 0.296234 0.520977 -0.006192
C197  C     C_R   0.703766 0.523433 0.479023 -0.006192
C198  C     C_R   0.523433 0.296234 0.479023 -0.006191
C199  C     C_R   0.296234 0.476567 0.479023 -0.006191
C200  C     C_R   0.476567 0.703766 0.479023 -0.006191
C201  C     C_R   0.203765 0.976566 0.020977 -0.006192
C202  C     C_R   0.414577 1.000000 0.000000 0.578812
C203  C     C_R   0.023434 0.203765 0.020977 -0.006191
C204  C     C_R   0.796234 0.023434 0.020977 -0.006192
C205  C     C_R   0.976566 0.796234 0.020977 -0.006192
C206  C     C_R   0.203765 0.023434 0.979023 -0.006191
C207  C     C_R   0.023434 0.796234 0.979023 -0.006191
C208  C     C_R   0.796234 0.976566 0.979023 -0.006191
C209  C     C_R   0.976566 0.203765 0.979023 -0.006191
C210  C     C_R   0.727232 0.500000 0.500000 -0.055554
C211  C     C_R   0.500000 0.727232 0.500000 -0.055554
C212  C     C_R   0.272768 0.500000 0.500000 -0.055554
C213  C     C_R   1.000000 0.414577 0.000000 0.578813
C214  C     C_R   0.500000 0.272768 0.500000 -0.055554
C215  C     C_R   0.227232 1.000000 1.000000 -0.055554
C216  C     C_R   1.000000 0.227232 0.000000 -0.055554
C217  C     C_R   0.772768 0.000000 0.000000 -0.055554
C218  C     C_R   0.000000 0.772768 0.000000 -0.055554
C219  C     C_R   0.726811 0.452049 0.541142 -0.028450
C220  C     C_R   0.547951 0.726811 0.541142 -0.028450
C221  C     C_R   0.273189 0.547951 0.541142 -0.028450
C222  C     C_R   0.452049 0.273189 0.541142 -0.028450
C223  C     C_R   0.726811 0.547951 0.458858 -0.028450
C224  C     C_R   0.585423 1.000000 0.000000 0.578812
C225  C     C_R   0.547951 0.273189 0.458858 -0.028450
C226  C     C_R   0.273189 0.452049 0.458858 -0.028450
C227  C     C_R   0.452049 0.726811 0.458858 -0.028450
C228  C     C_R   0.226811 0.952049 0.041141 -0.028449
C229  C     C_R   0.047951 0.226811 0.041141 -0.028449
C230  C     C_R   0.773189 0.047951 0.041141 -0.028449
C231  C     C_R   0.952049 0.773189 0.041142 -0.028449
C232  C     C_R   0.226811 0.047951 0.958858 -0.028449
C233  C     C_R   0.047951 0.773189 0.958858 -0.028450
C234  C     C_R   0.773189 0.952049 0.958858 -0.028450
C235  C     C_R   0.000000 0.585423 0.000000 0.578812
C236  C     C_R   0.952049 0.226811 0.958858 -0.028450
C237  C     C_R   0.772842 0.451293 0.541502 0.190733
C238  C     C_R   0.548707 0.772842 0.541502 0.190733
C239  C     C_R   0.227158 0.548707 0.541502 0.190733
C240  C     C_R   0.451293 0.227158 0.541502 0.190733
C241  C     C_R   0.772842 0.548707 0.458498 0.190731
C242  C     C_R   0.548707 0.227158 0.458498 0.190731
C243  C     C_R   0.227158 0.451293 0.458498 0.190732
C244  C     C_R   0.451293 0.772842 0.458498 0.190731
C245  C     C_R   0.272842 0.951292 0.041501 0.190734
C246  C     C_R   0.000000 0.500000 0.645562 0.092843
C247  C     C_R   0.048708 0.272842 0.041501 0.190733
C248  C     C_R   0.727158 0.048708 0.041501 0.190734
C249  C     C_R   0.951292 0.727158 0.041501 0.190733
C250  C     C_R   0.272842 0.048708 0.958499 0.190732
C251  C     C_R   0.048708 0.727158 0.958499 0.190733
C252  C     C_R   0.727158 0.951292 0.958499 0.190732
C253  C     C_R   0.951292 0.272842 0.958499 0.190732
C254  C     C_R   0.797258 0.477461 0.521952 0.032976
C255  C     C_R   0.522538 0.797258 0.521952 0.032976
C256  C     C_R   0.202742 0.522538 0.521952 0.032976
Cu1   Cu    Cu3+1 0.000000 0.455560 0.500000 1.255807
Cu2   Cu    Cu3+1 0.500000 0.500000 0.471890 1.269886
Cu3   Cu    Cu3+1 0.000000 0.000000 0.028110 1.269894
Cu4   Cu    Cu3+1 0.000000 1.000000 0.971890 1.269889
Cu5   Cu    Cu3+1 0.544440 1.000000 0.500000 1.255806
Cu6   Cu    Cu3+1 1.000000 0.544440 0.500000 1.255807
Cu7   Cu    Cu3+1 0.455560 1.000000 0.500000 1.255806
Cu8   Cu    Cu3+1 0.500000 0.955560 0.000000 1.255812
Cu9   Cu    Cu3+1 0.044440 0.500000 0.000000 1.255811
Cu10  Cu    Cu3+1 0.500000 0.044440 0.000000 1.255812
Cu11  Cu    Cu3+1 0.955560 0.500000 0.000000 1.255811
Cu12  Cu    Cu3+1 0.500000 0.500000 0.528110 1.269890
F1    F     F_    0.915045 0.414949 0.778262 -0.476789
F2    F     F_    0.914984 0.584991 0.278262 -0.476787
F3    F     F_    0.584997 0.085009 0.278262 -0.476787
F4    F     F_    0.085016 0.415009 0.278262 -0.476787
F5    F     F_    0.415053 0.085058 0.721738 -0.476789
F6    F     F_    0.914948 0.415046 0.721738 -0.476789
F7    F     F_    0.584947 0.914942 0.721738 -0.476789
F8    F     F_    0.085052 0.584953 0.721738 -0.476789
F9    F     F_    0.971622 0.574525 0.587485 -0.549610
F10   F     F_    0.425475 0.971622 0.587485 -0.549610
F11   F     F_    0.028378 0.425475 0.587485 -0.549610
F12   F     F_    0.414955 0.084961 0.778262 -0.476789
F13   F     F_    0.574525 0.028377 0.587485 -0.549610
F14   F     F_    0.971597 0.425485 0.412516 -0.549612
F15   F     F_    0.425486 0.028407 0.412516 -0.549613
F16   F     F_    0.028403 0.574515 0.412516 -0.549611
F17   F     F_    0.574514 0.971593 0.412516 -0.549612
F18   F     F_    0.471651 0.074536 0.087486 -0.549606
F19   F     F_    0.925467 0.471642 0.087485 -0.549607
F20   F     F_    0.528349 0.925464 0.087486 -0.549607
F21   F     F_    0.074533 0.528358 0.087485 -0.549607
F22   F     F_    0.471618 0.925477 0.912515 -0.549610
F23   F     F_    0.084955 0.585051 0.778262 -0.476789
F24   F     F_    0.925476 0.528379 0.912515 -0.549610
F25   F     F_    0.528382 0.074523 0.912515 -0.549610
F26   F     F_    0.074524 0.471621 0.912515 -0.549610
F27   F     F_    0.634837 0.546494 0.459078 -0.589343
F28   F     F_    0.453506 0.634837 0.459078 -0.589344
F29   F     F_    0.365163 0.453505 0.459078 -0.589343
F30   F     F_    0.546494 0.365163 0.459078 -0.589343
F31   F     F_    0.634837 0.453506 0.540922 -0.589342
F32   F     F_    0.453506 0.365163 0.540922 -0.589342
F33   F     F_    0.365163 0.546494 0.540922 -0.589343
F34   F     F_    0.585044 0.915039 0.778262 -0.476789
F35   F     F_    0.546494 0.634837 0.540922 -0.589342
F36   F     F_    0.134837 0.046495 0.959078 -0.589343
F37   F     F_    0.953505 0.134837 0.959078 -0.589342
F38   F     F_    0.865163 0.953505 0.959078 -0.589342
F39   F     F_    0.046495 0.865163 0.959078 -0.589342
F40   F     F_    0.134837 0.953505 0.040922 -0.589341
F41   F     F_    0.953505 0.865163 0.040922 -0.589341
F42   F     F_    0.865163 0.046495 0.040922 -0.589341
F43   F     F_    0.046495 0.134837 0.040922 -0.589341
F44   F     F_    0.915081 0.585088 0.221738 -0.476787
F45   F     F_    0.414906 0.915088 0.221739 -0.476788
F46   F     F_    0.084918 0.414912 0.221738 -0.476787
F47   F     F_    0.585094 0.084912 0.221739 -0.476788
F48   F     F_    0.415003 0.914990 0.278262 -0.476787
H1    H     H_    0.974991 0.566567 0.642016 0.198024
H2    H     H_    0.933426 0.475009 0.142016 0.198020
H3    H     H_    0.524984 0.933423 0.142016 0.198021
H4    H     H_    0.066574 0.524991 0.142016 0.198020
H5    H     H_    0.474987 0.933434 0.857984 0.198025
H6    H     H_    0.933434 0.525010 0.857984 0.198024
H7    H     H_    0.525013 0.066566 0.857984 0.198025
H8    H     H_    0.066567 0.474990 0.857984 0.198024
H9    H     H_    0.708944 0.432017 0.556344 0.223913
H10   H     H_    0.567982 0.708944 0.556344 0.223913
H11   H     H_    0.291056 0.567982 0.556344 0.223913
H12   H     H_    0.433433 0.974991 0.642016 0.198022
H13   H     H_    0.432018 0.291056 0.556344 0.223913
H14   H     H_    0.708944 0.567982 0.443656 0.223913
H15   H     H_    0.567982 0.291056 0.443656 0.223913
H16   H     H_    0.291056 0.432017 0.443656 0.223913
H17   H     H_    0.432018 0.708944 0.443656 0.223913
H18   H     H_    0.208944 0.932017 0.056344 0.223914
H19   H     H_    0.067983 0.208944 0.056344 0.223914
H20   H     H_    0.791056 0.067983 0.056344 0.223914
H21   H     H_    0.932017 0.791056 0.056344 0.223914
H22   H     H_    0.208944 0.067983 0.943656 0.223913
H23   H     H_    0.025009 0.433433 0.642016 0.198024
H24   H     H_    0.067983 0.791056 0.943656 0.223913
H25   H     H_    0.791056 0.932017 0.943656 0.223913
H26   H     H_    0.932017 0.208944 0.943656 0.223913
H27   H     H_    0.566567 0.025009 0.642016 0.198022
H28   H     H_    0.974967 0.433441 0.357984 0.198026
H29   H     H_    0.433443 0.025035 0.357985 0.198027
H30   H     H_    0.025032 0.566559 0.357984 0.198026
H31   H     H_    0.566557 0.974964 0.357985 0.198027
H32   H     H_    0.475016 0.066577 0.142016 0.198021
N1    N     N_R   1.000000 0.500000 0.823966 -0.418419
N2    N     N_R   0.500000 1.000000 0.823966 -0.418419
N3    N     N_R   1.000000 0.500000 0.176034 -0.418421
N4    N     N_R   0.500000 1.000000 0.176034 -0.418421
N5    N     N_R   0.500000 1.000000 0.323967 -0.418416
N6    N     N_R   1.000000 0.500000 0.323966 -0.418417
N7    N     N_R   0.500000 1.000000 0.676034 -0.418419
N8    N     N_R   0.000000 0.500000 0.676034 -0.418419
O1    O     O_R   0.935160 0.462470 0.499980 -0.483834
O2    O     O_R   0.037530 0.435160 0.999980 -0.483837
O3    O     O_R   0.564840 0.037530 0.999980 -0.483835
O4    O     O_R   0.962470 0.564840 0.999980 -0.483837
O5    O     O_R   0.435160 0.037530 0.000020 -0.483848
O6    O     O_R   0.037530 0.564840 0.000020 -0.483845
O7    O     O_R   0.564840 0.962470 0.000020 -0.483847
O8    O     O_R   0.962470 0.435160 0.000020 -0.483845
O9    O     O_R   0.000060 0.462470 0.541030 -0.446526
O10   O     O_R   0.537530 0.000060 0.541030 -0.446526
O11   O     O_R   0.999940 0.537530 0.541030 -0.446526
O12   O     O_R   0.537530 0.935160 0.499980 -0.483833
O13   O     O_R   0.462470 0.999940 0.541030 -0.446526
O14   O     O_R   0.000060 0.537530 0.458970 -0.446534
O15   O     O_R   0.537530 0.999940 0.458970 -0.446535
O16   O     O_R   0.999940 0.462470 0.458970 -0.446534
O17   O     O_R   0.462470 0.000060 0.458970 -0.446535
O18   O     O_R   0.500060 0.962470 0.041030 -0.446516
O19   O     O_R   0.037530 0.500060 0.041030 -0.446519
O20   O     O_R   0.499940 0.037530 0.041030 -0.446517
O21   O     O_R   0.962470 0.499940 0.041030 -0.446519
O22   O     O_R   0.500060 0.037530 0.958970 -0.446527
O23   O     O_R   0.064840 0.537530 0.499980 -0.483834
O24   O     O_R   0.037530 0.499940 0.958970 -0.446526
O25   O     O_R   0.499940 0.962470 0.958970 -0.446526
O26   O     O_R   0.962470 0.500060 0.958970 -0.446525
O27   O     O_2   0.054140 0.555703 0.824552 -0.340704
O28   O     O_2   0.555700 0.945856 0.824552 -0.340705
O29   O     O_2   0.945860 0.444296 0.824552 -0.340705
O30   O     O_2   0.444300 0.054144 0.824552 -0.340705
O31   O     O_2   0.054117 0.444274 0.175448 -0.340699
O32   O     O_2   0.555731 0.054112 0.175448 -0.340700
O33   O     O_2   0.945883 0.555726 0.175448 -0.340699
O34   O     O_R   0.462470 0.064840 0.499980 -0.483833
O35   O     O_2   0.444269 0.945887 0.175448 -0.340699
O36   O     O_2   0.554167 0.055678 0.324552 -0.340708
O37   O     O_2   0.055682 0.445837 0.324552 -0.340707
O38   O     O_2   0.445833 0.944322 0.324553 -0.340707
O39   O     O_2   0.944318 0.554163 0.324552 -0.340707
O40   O     O_2   0.554135 0.944292 0.675448 -0.340703
O41   O     O_2   0.055704 0.554139 0.675448 -0.340704
O42   O     O_2   0.445864 0.055708 0.675448 -0.340703
O43   O     O_2   0.944296 0.445861 0.675448 -0.340705
O44   O     O_R   0.500030 0.564920 0.523750 -0.462693
O45   O     O_R   0.935160 0.537530 0.500020 -0.483844
O46   O     O_R   0.435080 0.500030 0.523750 -0.462693
O47   O     O_R   0.499970 0.435080 0.523750 -0.462693
O48   O     O_R   0.564920 0.499970 0.523750 -0.462693
O49   O     O_R   0.500030 0.435080 0.476250 -0.462692
O50   O     O_R   0.435080 0.499970 0.476250 -0.462693
O51   O     O_R   0.499970 0.564920 0.476250 -0.462693
O52   O     O_R   0.564920 0.500030 0.476250 -0.462693
O53   O     O_R   0.000030 0.064920 0.023750 -0.462693
O54   O     O_R   0.935080 0.000030 0.023750 -0.462693
O55   O     O_R   0.999970 0.935080 0.023750 -0.462693
O56   O     O_R   0.537530 0.064840 0.500020 -0.483845
O57   O     O_R   0.064920 0.999970 0.023750 -0.462693
O58   O     O_R   0.000030 0.935080 0.976250 -0.462693
O59   O     O_R   0.935080 0.999970 0.976250 -0.462693
O60   O     O_R   0.999970 0.064920 0.976250 -0.462693
O61   O     O_R   0.064920 0.000030 0.976250 -0.462693
O62   O     O_R   0.064840 0.462470 0.500020 -0.483844
O63   O     O_R   0.462470 0.935160 0.500020 -0.483844
O64   O     O_R   0.435160 0.962470 0.999980 -0.483834

loop_
_geom_bond_atom_site_label_1
_geom_bond_atom_site_label_2
_ccdc_geom_bond_type
C7    C244  A    
C133  H12   S    
C113  C198  A    
C182  F42   S    
C4    C241  A    
C77   N4    A    
C19   C212  A    
C84   N8    A    
C177  C208  A    
C71   C91   A    
C45   C170  S    
Cu12  O48   S    
C130  F7    S    
C195  C221  A    
C179  C188  A    
C45   O16   A    
C118  F34   S    
C213  O2    A    
C90   C185  A    
C44   O13   A    
C122  C126  A    
C106  C111  A    
C107  C110  A    
Cu5   O56   S    
Cu8   O7    S    
C154  C170  A    
Cu2   O49   S    
C116  C128  A    
C98   C109  A    
C143  H3    S    
C182  C190  A    
C90   F28   S    
C124  F31   S    
C12   C21   A    
Cu3   Cu4   S    
C66   O59   A    
C138  C155  A    
C124  C184  A    
C67   O58   A    
C36   C58   A    
C23   C217  A    
C77   O35   S    
C238  C255  A    
C14   C40   A    
C198  C214  A    
C116  F12   S    
C122  F47   S    
C208  C217  A    
C193  C219  A    
C177  C190  A    
C7    C33   A    
C219  C237  A    
C165  C174  A    
C76   C92   A    
C4    C30   A    
Br31  C244  S    
C183  C189  A    
C53   C112  S    
Cu9   O2    S    
C5    C31   A    
C157  C185  A    
C6    C32   A    
C102  C114  A    
C213  O8    A    
C178  C192  A    
C150  C167  A    
C151  C169  A    
C16   C42   A    
C105  C114  A    
C134  C152  A    
C108  C109  A    
C28   C54   A    
C97   C110  A    
C229  H19   S    
C80   N6    A    
C193  C210  A    
C27   C255  A    
C132  H1    S    
C141  C159  A    
C28   C256  A    
Cu10  O3    S    
C55   C191  S    
C85   O42   S    
C21   C215  A    
Cu1   O16   S    
C10   C23   A    
C16   C253  A    
Cu8   O25   S    
C91   C106  A    
C227  C244  A    
C68   C149  A    
C8    C245  A    
C88   C116  A    
C168  C188  A    
C88   C106  A    
Br11  C28   S    
C56   C202  S    
C233  C251  A    
Cu8   O64   S    
C234  C252  A    
Cu7   O17   S    
C145  C163  A    
C246  N8    S    
C129  F6    S    
C78   O36   S    
C72   N1    A    
C24   N5    S    
C54   C180  S    
C142  H2    S    
C191  O56   A    
C64   C184  S    
C47   O17   A    
C231  H21   S    
C75   C95   A    
C228  C245  A    
C139  H30   S    
C42   C58   A    
C135  C196  A    
C227  H17   S    
C156  C170  A    
C89   C117  A    
C127  F4    S    
C80   C99   A    
C6    C243  A    
C180  O23   A    
C68   N1    S    
C146  F33   S    
Cu3   O55   S    
C72   O29   S    
C47   O15   A    
C144  H4    S    
Cu11  O21   S    
C143  C161  A    
C104  C114  A    
Br32  C245  S    
C115  F1    S    
C197  C210  A    
C70   O27   S    
C18   C255  A    
C154  F14   S    
C200  C211  A    
C160  C173  A    
C92   C107  A    
C162  F21   S    
Br28  C241  S    
C239  C256  A    
C168  F36   S    
C134  H23   S    
C157  F35   S    
C63   O47   A    
C221  C239  A    
C86   O43   S    
C137  H28   S    
C34   C56   A    
C181  C192  A    
C57   C148  A    
Br1   C237  S    
C145  H5    S    
Br14  C30   S    
C58   C213  S    
C136  H27   S    
C61   C185  S    
C89   C105  A    
C85   C100  A    
C222  H13   S    
Cu4   O61   S    
C51   C175  S    
C29   C55   A    
C11   C249  A    
C223  H14   S    
C200  C227  A    
C73   C88   A    
Cu2   O52   S    
C70   C89   A    
Cu10  O20   S    
C61   O44   A    
C86   C102  A    
C57   N2    S    
Cu9   O24   S    
C103  C111  A    
C91   C118  A    
C66   O54   A    
Cu9   Cu11  S    
C121  F46   S    
C51   O26   A    
C95   C122  A    
C135  C187  A    
C93   C108  A    
C17   C254  A    
Cu5   O10   S    
Br5   C250  S    
C1    O1    A    
C237  C254  A    
Cu2   O51   S    
Cu2   Cu12  S    
C18   C211  A    
C195  C212  A    
C5    C20   A    
C44   C169  S    
C201  C215  A    
C6    C19   A    
Cu7   O63   S    
C179  C201  A    
C44   O10   A    
C206  C215  A    
C99   C127  A    
C76   O33   S    
C27   C53   A    
C5    C242  A    
C10   C248  A    
C63   C187  S    
C198  C225  A    
Cu3   O53   S    
C70   N1    A    
C12   C250  A    
Cu7   O13   S    
C146  C195  A    
C150  F9    S    
Cu8   O18   S    
C3    C29   A    
C83   N7    A    
Cu5   O15   S    
C48   O18   A    
Cu9   O6    S    
C81   N5    A    
C73   N2    A    
C92   C119  A    
C75   N4    A    
C69   O57   A    
C149  H8    S    
C79   C197  A    
C196  C222  A    
C205  C218  A    
C95   C108  A    
C203  C216  A    
C50   C174  S    
Br24  C40   S    
C26   C254  A    
C162  C173  A    
C30   C52   A    
C24   C138  A    
C166  C175  A    
Cu11  O4    S    
C182  C204  A    
C13   C137  A    
Cu9   O19   S    
C43   C167  S    
Br18  C34   S    
C159  F18   S    
C101  C186  A    
C71   N2    A    
C102  C129  A    
C178  C207  A    
C199  C212  A    
C13   N6    S    
C165  F25   S    
C163  C174  A    
C83   C103  A    
C64   O52   A    
C46   N3    S    
C66   C190  S    
C112  O12   A    
C151  F10   S    
Cu2   O50   S    
Br25  C41   S    
C119  F44   S    
C71   O28   S    
C168  C206  A    
Br7   C252  S    
Cu1   O1    S    
Br30  C243  S    
Cu3   O57   S    
C50   O25   A    
C201  C228  A    
C51   O24   A    
C37   C59   A    
C142  C160  A    
Cu10  O5    S    
C124  C193  A    
C204  C230  A    
Cu5   O12   S    
C181  F41   S    
C236  C253  A    
C205  C231  A    
Cu4   O59   S    
C232  C250  A    
Cu6   O11   S    
C206  C232  A    
C157  C194  A    
C3    C240  A    
Cu11  O26   S    
C81   C96   A    
C194  C220  A    
Br23  C239  S    
C225  C242  A    
C43   O11   A    
C139  C156  A    
C119  C125  A    
C15   C23   A    
Br12  C238  S    
C137  C154  A    
C62   O46   A    
C40   C60   A    
C128  F5    S    
C87   C115  A    
C155  C171  A    
C160  F19   S    
C226  H16   S    
Br9   C26   S    
C224  O3    A    
C153  C169  A    
C131  F8    S    
C48   O20   A    
Cu6   O14   S    
C202  O5    A    
C197  C223  A    
C138  H29   S    
C35   C143  A    
C155  F15   S    
C152  F11   S    
C22   C216  A    
C9    C36   A    
C96   C109  A    
C232  H22   S    
C100  C111  A    
Cu8   Cu10  S    
C177  F38   S    
C203  C229  A    
Cu6   O45   S    
C8    C34   A    
C24   C140  A    
C207  C218  A    
C61   O51   A    
Cu6   O23   S    
C2    C136  A    
C13   C139  A    
Cu12  O47   S    
C32   C54   A    
C158  F17   S    
C147  C164  A    
C76   N3    A    
C118  C130  A    
C50   O22   A    
C191  O34   A    
C79   C184  A    
C15   C41   A    
C115  C129  A    
C73   O30   S    
C125  F2    S    
C133  C151  A    
C9    C247  A    
C208  C234  A    
C19   C256  A    
C229  C247  A    
C120  C123  A    
C230  C248  A    
C147  H6    S    
C67   O55   A    
C112  O63   A    
C117  F23   S    
C65   O53   A    
Br8   C253  S    
Cu1   O62   S    
C141  H32   S    
C82   C97   A    
C159  C172  A    
C126  F3    S    
C78   N5    A    
C43   O9    A    
C226  C243  A    
C233  H24   S    
Br17  C33   S    
C146  C186  A    
C65   O60   A    
C38   C60   A    
C179  F40   S    
C221  H11   S    
C2    N7    S    
C84   C104  A    
C90   C200  A    
C74   C94   A    
C62   O50   A    
Cu1   Cu6   S    
C98   C126  A    
C140  C158  A    
Br10  C27   S    
C123  F48   S    
C156  F16   S    
C235  O4    A    
C101  F29   S    
C82   N6    A    
C69   C188  S    
C220  C238  A    
Br3   C248  S    
C48   C172  S    
C35   C141  A    
C222  C240  A    
C78   C98   A    
C1    C52   S    
C132  C150  A    
C1    O45   A    
C94   C121  A    
C196  C214  A    
Cu5   Cu7   S    
C3    C20   A    
C183  F43   S    
C63   O49   A    
C144  C162  A    
C25   C218  A    
C74   N3    A    
C4    C17   A    
C180  O62   A    
C176  F37   S    
C104  C131  A    
C94   C107  A    
C209  C216  A    
C148  H7    S    
C80   O37   S    
C219  H9    S    
C161  F20   S    
C204  C217  A    
C97   C125  A    
C17   C210  A    
C74   O31   S    
C64   O48   A    
C16   C22   A    
C100  C128  A    
C161  C172  A    
C223  C241  A    
Cu4   O58   S    
Cu10  O22   S    
C235  O6    A    
C176  C209  A    
C181  C205  A    
C158  C171  A    
C59   C224  S    
C62   C186  S    
C207  C233  A    
C12   C39   A    
C178  F39   S    
C148  C165  A    
C96   C123  A    
C60   C235  S    
C224  O7    A    
C69   O61   A    
C83   O40   S    
C202  O64   A    
C81   O38   S    
C117  C131  A    
C57   C145  A    
C163  F22   S    
C120  F45   S    
Br27  C240  S    
C35   N4    S    
C46   C144  A    
C14   C251  A    
C132  C246  A    
C113  F30   S    
C149  C166  A    
C85   N7    A    
C199  C226  A    
C86   N8    A    
C87   C105  A    
Br19  C36   S    
C183  C203  A    
C41   C59   A    
C140  H31   S    
Cu12  O46   S    
Br2   C247  S    
C11   C25   A    
Cu1   O9    S    
C176  C189  A    
C45   O14   A    
C10   C37   A    
C220  H10   S    
C121  C127  A    
C101  C199  A    
C93   C120  A    
C26   C52   A    
C113  C187  A    
C152  C167  A    
Br4   C249  S    
C209  C236  A    
Cu11  O8    S    
C164  F24   S    
C39   C56   A    
C99   C110  A    
C84   O41   S    
C225  H15   S    
C236  H26   S    
C77   C93   A    
C11   C38   A    
C47   C171  S    
C14   C25   A    
C103  C130  A    
Br20  C37   S    
C2    C133  A    
Br22  C39   S    
C49   O21   A    
C49   C173  S    
Br29  C242  S    
C228  H18   S    
C67   C192  S    
C136  C153  A    
C31   C55   A    
Cu4   O60   S    
C230  H20   S    
Cu12  O44   S    
Br6   C251  S    
C20   C214  A    
C33   C53   A    
C153  F13   S    
C231  C249  A    
Br21  C38   S    
C72   C87   A    
Cu7   O34   S    
C166  F26   S    
C234  H25   S    
C135  F32   S    
C75   O32   S    
Cu3   O54   S    
Br26  C42   S    
C65   C189  S    
C164  C175  A    
C82   O39   S    
C9    C22   A    
C15   C252  A    
C194  C211  A    
C7    C18   A    
Br13  C29   S    
C8    C21   A    
C46   C142  A    
Br15  C31   S    
Br16  C32   S    
C79   F27   S    
C49   O19   A    
C68   C147  A    
C134  C246  A    
