data_mof_unit_49098.cif
_audit_creation_date              2012-12-10T19:17:23-0500
_audit_creation_method            fapswitch 2.2
_symmetry_space_group_name_H-M    P1
_symmetry_Int_Tables_number       1
_space_group_crystal_system       triclinic
_cell_length_a                    15.99315
_cell_length_b                    14.755511
_cell_length_c                    15.87156
_cell_angle_alpha                 90.218993
_cell_angle_beta                  89.645241
_cell_angle_gamma                 90.067979
_cell_volume                      3745.38174297

loop_
_atom_site_label
_atom_site_type_symbol
_atom_type_description
_atom_site_fract_x
_atom_site_fract_y
_atom_site_fract_z
_atom_type_partial_charge
C1    C     C_R   0.340942 0.499960 0.499104 0.813705
C2    C     C_3   0.591928 0.505092 0.954767 0.011398
C3    C     C_3   0.579463 0.506851 0.053728 -0.391625
C4    C     C_1   0.497750 0.499110 0.825173 -0.028531
C5    C     C_1   0.491764 0.497597 0.175535 0.028533
C6    C     C_1   0.497267 0.499423 0.250766 -0.208940
C7    C     C_R   0.956907 0.575430 0.529091 -0.111166
C8    C     C_R   0.956429 0.432942 0.448619 -0.115613
C9    C     C_R   0.912871 0.503595 0.490224 -0.067507
C10   C     C_R   0.044406 0.431820 0.450090 0.338236
C11   C     C_R   0.044905 0.575237 0.527310 0.335292
C12   C     C_R   0.087839 0.502649 0.489683 -0.096106
C13   C     C_1   0.822966 0.501977 0.493728 -0.003796
C14   C     C_R   0.500635 0.499881 0.339930 0.823094
C15   C     C_1   0.177328 0.500831 0.492474 0.061133
C16   C     C_1   0.252149 0.500034 0.495629 -0.181149
C17   C     C_1   0.748036 0.500701 0.496773 -0.182926
C18   C     C_R   0.543433 0.952684 0.559536 -0.252467
C19   C     C_R   0.542934 0.048286 0.559397 -0.251761
C20   C     C_R   0.498651 0.902765 0.499137 -0.101981
C21   C     C_R   0.498350 0.097043 0.498366 -0.094289
C22   C     C_R   0.452237 0.950838 0.438429 0.359594
C23   C     C_R   0.454108 0.047573 0.436406 0.362445
C24   C     C_1   0.499660 0.802671 0.499865 0.194203
C25   C     C_1   0.499218 0.197267 0.499261 0.186278
C26   C     C_R   0.659107 0.500110 0.499608 0.823017
C27   C     C_R   0.499017 0.500120 0.660218 0.824142
C28   C     C_3   0.434450 0.580731 0.049624 0.318732
C29   C     C_3   0.453964 0.399190 0.048727 0.318352
C30   C     C_3   0.449553 0.410350 0.949325 0.231778
C31   C     C_3   0.444068 0.580639 0.948964 0.190455
C32   C     C_1   0.497745 0.500110 0.749653 -0.231789
C33   C     C_3   0.486305 0.495583 0.083169 0.013092
C34   C     C_3   0.498545 0.497448 0.917729 0.037983
Cu1   Cu    Cu3+1 0.500000 0.589220 0.500020 0.972835
Cu2   Cu    Cu3+1 0.500000 0.410780 0.500020 0.965703
H1    H     H_    0.382422 0.571372 0.920009 0.009004
H2    H     H_    0.384385 0.424868 0.931605 -0.026627
H3    H     H_    0.608320 0.565577 0.084998 0.164799
H4    H     H_    0.615673 0.452008 0.084338 0.206201
H5    H     H_    0.577836 0.084387 0.607247 0.157256
H6    H     H_    0.578961 0.917558 0.607236 0.159389
N1    N     N_1   0.499980 0.276710 0.500030 -0.160605
N2    N     N_1   0.499980 0.723290 0.500030 -0.157739
O1    O     O_R   0.380310 0.575320 0.500040 -0.572570
O2    O     O_R   0.380310 0.424680 0.500040 -0.568647
O3    O     O_R   0.500000 0.575380 0.379460 -0.564287
O4    O     O_R   0.500000 0.424620 0.379460 -0.574634
O5    O     O_R   0.619690 0.575360 0.500000 -0.570781
O6    O     O_R   0.619690 0.424640 0.500000 -0.571971
O7    O     O_R   0.500000 0.575310 0.620580 -0.569621
O8    O     O_R   0.500000 0.424690 0.620580 -0.576671
O9    O     O_3   0.409222 0.903340 0.377149 -0.577032
C35   C     C_3   0.326027 0.890526 0.404826 0.095310
H7    H     H_    0.323630 0.857534 0.467893 0.130342
H8    H     H_    0.292398 0.956508 0.407931 0.168474
C36   C     C_3   0.281031 0.829082 0.342612 -0.818815
H9    H     H_    0.215011 0.819588 0.362628 0.192941
H10   H     H_    0.281960 0.859790 0.278859 0.244712
H11   H     H_    0.312128 0.761845 0.339958 0.248331
O10   O     O_3   0.407765 0.093663 0.377031 -0.590271
C37   C     C_3   0.448798 0.090365 0.297764 0.110861
H12   H     H_    0.495934 0.034919 0.291112 0.141063
H13   H     H_    0.481591 0.155836 0.287243 0.136573
C38   C     C_3   0.383963 0.077217 0.228995 -0.793969
H14   H     H_    0.338831 0.134257 0.229700 0.247095
H15   H     H_    0.415208 0.074088 0.166407 0.180382
H16   H     H_    0.349462 0.012852 0.239252 0.266275
C39   C     C_R   0.342219 0.576148 0.084495 0.026318
C40   C     C_R   0.270611 0.554422 0.035694 -0.202591
C41   C     C_R   0.190464 0.553867 0.071551 -0.095313
C42   C     C_R   0.178923 0.574425 0.156434 -0.088369
C43   C     C_R   0.247478 0.596526 0.205825 -0.147913
C44   C     C_R   0.327566 0.598040 0.170401 -0.088680
H17   H     H_    0.273203 0.532944 0.971059 0.101097
H18   H     H_    0.137079 0.535728 0.033389 0.111953
H19   H     H_    0.116835 0.573118 0.183936 0.112911
H20   H     H_    0.238636 0.613162 0.271779 0.122172
H21   H     H_    0.378166 0.618145 0.210963 0.159407
C45   C     C_R   0.369630 0.368912 0.092731 0.025014
C46   C     C_R   0.370022 0.347697 0.179782 -0.139848
C47   C     C_R   0.297316 0.323124 0.223082 -0.129426
C48   C     C_R   0.222466 0.313372 0.180002 -0.094242
C49   C     C_R   0.221050 0.325617 0.093163 -0.116379
C50   C     C_R   0.293578 0.351336 0.049594 -0.176063
H22   H     H_    0.427610 0.345830 0.214620 0.152880
H23   H     H_    0.299779 0.309353 0.289922 0.149724
H24   H     H_    0.166167 0.293692 0.213474 0.141562
H25   H     H_    0.163379 0.315016 0.059137 0.111922
H26   H     H_    0.286602 0.356935 0.982651 0.098609
O11   O     O_3   0.518677 0.335007 0.068033 -0.562859
C51   C     C_3   0.495756 0.242036 0.064393 0.167307
H27   H     H_    0.441456 0.227882 0.023045 0.158477
H28   H     H_    0.480040 0.218546 0.128835 0.121574
C52   C     C_3   0.570047 0.186700 0.033348 -0.777718
H29   H     H_    0.624629 0.198140 0.075013 0.239942
H30   H     H_    0.553833 0.113506 0.033774 0.174498
H31   H     H_    0.587106 0.206605 0.968173 0.283834
O12   O     O_3   0.474983 0.659302 0.084702 -0.569501
C53   C     C_3   0.435462 0.744026 0.069321 0.123955
H32   H     H_    0.370316 0.738634 0.045842 0.131799
H33   H     H_    0.472732 0.781934 0.021990 0.191081
C54   C     C_3   0.436348 0.801766 0.149117 -0.821085
H34   H     H_    0.501171 0.807842 0.173223 0.259455
H35   H     H_    0.412382 0.870651 0.135060 0.201249
H36   H     H_    0.396177 0.771588 0.198607 0.255522
O13   O     O_3   0.479002 0.330896 0.907947 -0.556765
C55   C     C_3   0.418649 0.292760 0.853451 0.047917
H37   H     H_    0.395696 0.343523 0.807370 0.150416
H38   H     H_    0.365038 0.265669 0.890419 0.130340
C56   C     C_3   0.457966 0.214767 0.804448 -0.806906
H39   H     H_    0.481427 0.162609 0.848646 0.241223
H40   H     H_    0.410648 0.183345 0.762545 0.205734
H41   H     H_    0.510751 0.239888 0.765183 0.242140
O14   O     O_3   0.479838 0.662786 0.918720 -0.551590
C57   C     C_3   0.429058 0.706650 0.858538 0.064420
H42   H     H_    0.371110 0.732753 0.889121 0.119621
H43   H     H_    0.411738 0.660128 0.806151 0.156557
C58   C     C_3   0.477217 0.785794 0.820856 -0.783683
H44   H     H_    0.534202 0.760585 0.788061 0.265225
H45   H     H_    0.437459 0.821748 0.774654 0.196586
H46   H     H_    0.495824 0.834067 0.871217 0.230430
C59   C     C_R   0.637325 0.591439 0.919104 0.173457
C60   C     C_R   0.669673 0.589179 0.835600 -0.132743
C61   C     C_R   0.708766 0.664278 0.799482 -0.141563
C62   C     C_R   0.717530 0.744114 0.845437 -0.129772
C63   C     C_R   0.686896 0.749038 0.927508 -0.161694
C64   C     C_R   0.647299 0.674321 0.964147 -0.061215
H47   H     H_    0.664822 0.528940 0.797117 0.115326
H48   H     H_    0.731914 0.660346 0.735372 0.152830
H49   H     H_    0.747317 0.802571 0.817295 0.120669
H50   H     H_    0.692527 0.811747 0.962663 0.120459
H51   H     H_    0.621466 0.686311 0.025737 0.160694
C65   C     C_R   0.653686 0.425459 0.934399 0.161889
C66   C     C_R   0.730223 0.421372 0.979106 -0.168856
C67   C     C_R   0.789236 0.353713 0.962990 -0.128448
C68   C     C_R   0.775631 0.290571 0.899191 -0.119136
C69   C     C_R   0.704157 0.296724 0.849977 -0.183432
C70   C     C_R   0.644857 0.364229 0.866034 -0.065603
H52   H     H_    0.744834 0.471423 0.026884 0.110118
H53   H     H_    0.846150 0.351062 0.999454 0.117109
H54   H     H_    0.821540 0.238396 0.886389 0.118970
H55   H     H_    0.695158 0.249888 0.798140 0.125777
H56   H     H_    0.594674 0.368510 0.821929 0.169526
O15   O     O_3   0.089300 0.643900 0.566579 -0.573486
C71   C     C_3   0.104326 0.713727 0.507794 0.090725
H57   H     H_    0.044812 0.739744 0.480974 0.139026
H58   H     H_    0.145476 0.689418 0.455557 0.137309
C72   C     C_3   0.147918 0.791955 0.552167 -0.798288
H59   H     H_    0.108945 0.816228 0.605835 0.253145
H60   H     H_    0.209609 0.769509 0.576104 0.246399
H61   H     H_    0.157559 0.848836 0.507577 0.186720
O16   O     O_3   0.088372 0.363785 0.408995 -0.576477
C73   C     C_3   0.100007 0.291128 0.465355 0.073753
H62   H     H_    0.038926 0.260685 0.483944 0.142826
H63   H     H_    0.133669 0.313643 0.523055 0.138900
C74   C     C_3   0.152245 0.218224 0.422229 -0.770197
H64   H     H_    0.215003 0.245545 0.406086 0.252123
H65   H     H_    0.159913 0.159545 0.465084 0.196971
H66   H     H_    0.120943 0.194941 0.363720 0.242558
C75   C     C_R   0.912228 0.652507 0.569829 0.160444
C76   C     C_R   0.927067 0.674481 0.654671 -0.081485
C77   C     C_R   0.888410 0.749881 0.691506 -0.179264
C78   C     C_R   0.833982 0.803294 0.644339 -0.135884
C79   C     C_R   0.818378 0.781602 0.560143 -0.130885
C80   C     C_R   0.857690 0.706905 0.522760 -0.166016
H67   H     H_    0.968906 0.633557 0.692049 0.142329
H68   H     H_    0.900425 0.766707 0.756749 0.130621
H69   H     H_    0.803890 0.861483 0.673013 0.118494
H70   H     H_    0.776355 0.823131 0.523625 0.131276
H71   H     H_    0.846420 0.692078 0.456916 0.128625
C81   C     C_R   0.910980 0.360429 0.402596 0.171878
C82   C     C_R   0.921520 0.350659 0.315093 -0.094028
C83   C     C_R   0.878352 0.282886 0.271458 -0.164195
C84   C     C_R   0.824651 0.224323 0.314837 -0.110339
C85   C     C_R   0.814271 0.233205 0.401982 -0.133020
C86   C     C_R   0.857411 0.300800 0.445869 -0.168395
H72   H     H_    0.962660 0.395897 0.280716 0.128894
H73   H     H_    0.886394 0.275894 0.203980 0.122023
H74   H     H_    0.791167 0.172006 0.280944 0.120333
H75   H     H_    0.772828 0.187674 0.435541 0.127999
H76   H     H_    0.849217 0.306658 0.513461 0.125165

loop_
_geom_bond_atom_site_label_1
_geom_bond_atom_site_label_2
_ccdc_geom_bond_type
C81   C86   A    
C68   H54   S    
C79   C80   A    
C30   O13   S    
C43   C44   A    
C28   C39   S    
Cu1   O3    S    
C25   N1    T    
C26   O6    A    
O15   C71   S    
C59   C64   A    
C52   H31   S    
C59   C60   A    
C82   C83   A    
C57   H42   S    
C7    C11   A    
C7    C75   S    
C2    C65   S    
C48   C49   A    
C17   C26   S    
C62   H49   S    
C78   C79   A    
C19   C21   A    
C76   C77   A    
C2    C3    S    
C69   H55   S    
C72   H60   S    
C5    C6    T    
C1    O2    A    
C36   H10   S    
O10   C37   S    
C3    C33   S    
C47   H23   S    
C29   C33   S    
C55   H37   S    
C30   H2    S    
C18   C19   A    
C9    C13   S    
C83   C84   A    
C51   H27   S    
C37   H13   S    
C54   H34   S    
C42   H19   S    
C63   H50   S    
C61   H48   S    
C74   H64   S    
C52   H29   S    
C55   H38   S    
C8    C9    A    
C38   H15   S    
C5    C33   S    
Cu1   O5    S    
C43   H20   S    
Cu2   O2    S    
C40   C41   A    
C56   H41   S    
C29   C30   S    
C73   H63   S    
C46   H22   S    
Cu2   O8    S    
C42   C43   A    
C2    C34   S    
C48   H24   S    
C3    H3    S    
C80   H71   S    
C74   H65   S    
C78   H69   S    
C66   H52   S    
C10   O16   S    
C31   O14   S    
C27   O7    A    
C46   C47   A    
C22   O9    S    
C71   H58   S    
C58   H45   S    
C85   H75   S    
C35   H8    S    
C15   C16   T    
C30   C34   S    
C57   C58   S    
C20   C24   S    
C66   C67   A    
C49   C50   A    
C27   O8    A    
C73   C74   S    
C54   H35   S    
C26   O5    A    
C65   C70   A    
C11   O15   S    
C36   H11   S    
C14   O4    A    
O9    C35   S    
C53   C54   S    
C31   H1    S    
Cu1   Cu2   S    
C45   C50   A    
C6    C14   S    
C71   C72   S    
C70   H56   S    
O12   C53   S    
C12   C15   S    
O13   C55   S    
C38   H16   S    
C37   H12   S    
C51   H28   S    
C31   C34   S    
C39   C44   A    
C56   H40   S    
C1    C16   S    
C58   H44   S    
Cu1   N2    S    
C86   H76   S    
C73   H62   S    
C4    C32   T    
C10   C12   A    
C28   O12   S    
C85   C86   A    
C53   H33   S    
C20   C22   A    
C3    H4    S    
C47   C48   A    
C74   H66   S    
C44   H21   S    
C21   C23   A    
Cu1   O7    S    
C61   C62   A    
C24   N2    T    
C72   H61   S    
C49   H25   S    
C63   C64   A    
Cu1   O1    S    
C29   O11   S    
Cu2   O6    S    
C81   C82   A    
C71   H57   S    
C58   H46   S    
C79   H70   S    
C7    C9    A    
C21   C25   S    
C35   H7    S    
C56   H39   S    
C27   C32   S    
C28   C31   S    
C75   C80   A    
C45   C46   A    
C28   C33   S    
C50   H26   S    
C52   H30   S    
C14   O3    A    
C68   C69   A    
C65   C66   A    
C55   C56   S    
C13   C17   T    
C18   H6    S    
C77   H68   S    
C41   C42   A    
C84   C85   A    
C75   C76   A    
C72   H59   S    
C1    O1    A    
C36   H9    S    
C41   H18   S    
C29   C45   S    
C82   H72   S    
C62   C63   A    
C53   H32   S    
C37   C38   S    
C67   H53   S    
C57   H43   S    
C60   H47   S    
Cu2   O4    S    
C54   H36   S    
C18   C20   A    
C51   C52   S    
C4    C34   S    
C39   C40   A    
C77   C78   A    
C69   C70   A    
C84   H74   S    
C76   H67   S    
C19   H5    S    
C23   O10   S    
C8    C10   A    
C38   H14   S    
C40   H17   S    
C22   C23   A    
C67   C68   A    
Cu2   N1    S    
O14   C57   S    
O16   C73   S    
C64   H51   S    
C83   H73   S    
C2    C59   S    
O11   C51   S    
C8    C81   S    
C11   C12   A    
C60   C61   A    
C35   C36   S    
