data_mof_unit_13942.cif
_audit_creation_date              2012-10-26T17:11:14-0400
_audit_creation_method            fapswitch 2.2
_symmetry_space_group_name_H-M    P1
_symmetry_Int_Tables_number       1
_space_group_crystal_system       triclinic
_cell_length_a                    27.977288
_cell_length_b                    18.85138
_cell_length_c                    16.848865
_cell_angle_alpha                 90.010819
_cell_angle_beta                  62.439477
_cell_angle_gamma                 90.004985
_cell_volume                      7877.87719794

loop_
_atom_site_label
_atom_site_type_symbol
_atom_type_description
_atom_site_fract_x
_atom_site_fract_y
_atom_site_fract_z
_atom_type_partial_charge
C1    C     C_R   0.294989 0.728171 0.329669 0.810161
C2    C     C_R   0.705001 0.271791 0.670341 0.776930
C3    C     C_R   0.705073 0.728058 0.670288 0.789042
C4    C     C_R   0.295043 0.271715 0.329613 0.797707
C5    C     C_R   0.794958 0.228113 0.329693 0.809862
C6    C     C_R   0.205006 0.771799 0.670339 0.777176
C7    C     C_R   0.205110 0.227996 0.670274 0.788755
C8    C     C_R   0.794997 0.771799 0.329653 0.798587
C9    C     C_R   0.525833 0.872770 0.592061 -0.200234
C10   C     C_R   0.425218 0.127509 0.576426 -0.222725
C11   C     C_R   0.425415 0.872574 0.575858 -0.206355
C12   C     C_R   0.525730 0.127310 0.592500 -0.209422
C13   C     C_R   0.057295 0.374987 0.474492 -0.213797
C14   C     C_R   0.961454 0.625995 0.462736 -0.223384
C15   C     C_R   0.942208 0.375047 0.526838 -0.213941
C16   C     C_R   0.038327 0.626011 0.538185 -0.223846
C17   C     C_R   0.220381 0.767000 0.953935 -0.062607
C18   C     C_R   0.779437 0.233251 0.046582 -0.066618
C19   C     C_R   0.780333 0.765731 0.045440 -0.066105
C20   C     C_R   0.221822 0.231021 0.952354 -0.065317
C21   C     C_R   0.720191 0.266674 0.954092 -0.064316
C22   C     C_R   0.279769 0.733783 0.046253 -0.064519
C23   C     C_R   0.281158 0.264240 0.044721 -0.064129
C24   C     C_R   0.721099 0.732366 0.952925 -0.067720
C25   C     C_R   0.276229 0.779024 0.914101 -0.349859
C26   C     C_R   0.723717 0.220478 0.085996 -0.355137
C27   C     C_R   0.724590 0.778415 0.084762 -0.344705
C28   C     C_R   0.277421 0.217320 0.913248 -0.359888
C29   C     C_R   0.776003 0.278914 0.914518 -0.347252
C30   C     C_R   0.224016 0.721172 0.085888 -0.356861
C31   C     C_R   0.225477 0.277344 0.083883 -0.347622
C32   C     C_R   0.776761 0.719158 0.913707 -0.355535
C33   C     C_R   0.305843 0.764051 0.960153 0.512032
C34   C     C_R   0.693424 0.238382 0.041364 0.524744
C35   C     C_R   0.695096 0.763363 0.038617 0.511777
C36   C     C_R   0.307874 0.235058 0.957847 0.528907
C37   C     C_R   0.805517 0.263830 0.960649 0.511746
C38   C     C_R   0.193643 0.738945 0.041340 0.526067
C39   C     C_R   0.195941 0.262353 0.037823 0.512271
C40   C     C_R   0.807080 0.737017 0.958369 0.526302
C41   C     C_R   0.144624 0.830006 0.943918 -0.133958
C42   C     C_R   0.855548 0.170364 0.055825 -0.125554
C43   C     C_R   0.855896 0.829114 0.055621 -0.134774
C44   C     C_R   0.145247 0.169069 0.943544 -0.124387
C45   C     C_R   0.644530 0.329854 0.943988 -0.133907
C46   C     C_R   0.355789 0.670743 0.055629 -0.125701
C47   C     C_R   0.356581 0.327942 0.055012 -0.134694
C48   C     C_R   0.644797 0.669833 0.943889 -0.124797
C49   C     C_R   0.117946 0.852212 0.895101 -0.081915
C50   C     C_R   0.882146 0.147945 0.104746 -0.091317
C51   C     C_R   0.882267 0.851879 0.104717 -0.083051
C52   C     C_R   0.118187 0.147459 0.895031 -0.089949
C53   C     C_R   0.617901 0.352144 0.895129 -0.082167
C54   C     C_R   0.382246 0.648091 0.104678 -0.090259
C55   C     C_R   0.382534 0.351454 0.104485 -0.083169
C56   C     C_R   0.617988 0.647757 0.895158 -0.089322
C57   C     C_R   0.136596 0.829898 0.806895 -0.241947
C58   C     C_R   0.863417 0.170079 0.193056 -0.235105
C59   C     C_R   0.863456 0.829855 0.193071 -0.238797
C60   C     C_R   0.136715 0.169951 0.806914 -0.238488
C61   C     C_R   0.636566 0.329856 0.806908 -0.241232
C62   C     C_R   0.363454 0.670121 0.193042 -0.237514
C63   C     C_R   0.363492 0.329830 0.193046 -0.237559
C64   C     C_R   0.636618 0.670051 0.806934 -0.242002
C65   C     C_R   0.182485 0.787630 0.765973 -0.059657
C66   C     C_R   0.817500 0.212279 0.234051 -0.066968
C67   C     C_R   0.817671 0.787382 0.233902 -0.069424
C68   C     C_R   0.182877 0.211684 0.765707 -0.057678
C69   C     C_R   0.682438 0.287551 0.766004 -0.061727
C70   C     C_R   0.317619 0.712476 0.233961 -0.066082
C71   C     C_R   0.317857 0.287079 0.233760 -0.066796
C72   C     C_R   0.682643 0.712051 0.765845 -0.060780
C73   C     C_R   0.208992 0.765283 0.815044 -0.206501
C74   C     C_R   0.790963 0.234556 0.185049 -0.224249
C75   C     C_R   0.791437 0.764553 0.184580 -0.203748
C76   C     C_R   0.209961 0.232996 0.814231 -0.226385
C77   C     C_R   0.708888 0.265106 0.815131 -0.207528
C78   C     C_R   0.291253 0.735047 0.184798 -0.220403
C79   C     C_R   0.291949 0.263681 0.184162 -0.205785
C80   C     C_R   0.709418 0.733924 0.814637 -0.223824
C81   C     C_R   0.190205 0.786313 0.904279 0.144255
C82   C     C_R   0.809773 0.213658 0.095795 0.124451
C83   C     C_R   0.810397 0.785279 0.095200 0.144258
C84   C     C_R   0.191313 0.211816 0.903313 0.124917
C85   C     C_R   0.690073 0.286096 0.904384 0.144351
C86   C     C_R   0.310118 0.714234 0.095480 0.127232
C87   C     C_R   0.311148 0.283977 0.094558 0.145580
C88   C     C_R   0.690698 0.712889 0.903793 0.123038
C89   C     C_R   0.197755 0.631481 0.523392 0.836780
C90   C     C_R   0.799207 0.368772 0.486995 0.842860
C91   C     C_R   0.802228 0.631475 0.476668 0.834975
C92   C     C_R   0.200753 0.368774 0.513115 0.843847
C93   C     C_R   0.696843 0.131700 0.526350 0.834940
C94   C     C_R   0.297879 0.868635 0.491564 0.848558
C95   C     C_R   0.297859 0.131379 0.491618 0.848707
C96   C     C_R   0.696847 0.868316 0.526326 0.833614
C97   C     C_R   0.926472 0.903246 0.066642 0.807350
C98   C     C_R   0.073614 0.096642 0.933309 0.808923
C99   C     C_R   0.073589 0.903336 0.933298 0.807362
C100  C     C_R   0.926463 0.096743 0.066637 0.809018
C101  C     C_R   0.426549 0.403129 0.066570 0.807811
C102  C     C_R   0.573567 0.596707 0.933343 0.808558
C103  C     C_R   0.573578 0.403320 0.933306 0.807810
C104  C     C_R   0.426482 0.596769 0.066623 0.808757
C105  C     C_R   0.048167 0.500464 0.507005 0.045385
C106  C     C_R   0.951477 0.500488 0.494127 0.045359
C107  C     C_R   0.529034 0.000055 0.575159 0.040065
C108  C     C_R   0.431447 0.000059 0.561740 0.040131
C109  C     C_R   0.021753 0.564917 0.510564 0.038260
C110  C     C_R   0.973718 0.436347 0.504451 0.039401
C111  C     C_R   0.977930 0.564924 0.490537 0.037986
C112  C     C_R   0.025833 0.436323 0.496885 0.039402
C113  C     C_R   0.502386 0.064912 0.579745 0.041777
C114  C     C_R   0.453555 0.935197 0.572212 0.039618
C115  C     C_R   0.453461 0.064915 0.572508 0.044701
C116  C     C_R   0.502458 0.935196 0.579483 0.037545
C117  C     C_R   0.126730 0.436309 0.497259 -0.008370
C118  C     C_R   0.883347 0.563398 0.468100 -0.008034
C119  C     C_R   0.873005 0.436346 0.503462 -0.008393
C120  C     C_R   0.116504 0.563398 0.532486 -0.007940
C121  C     C_R   0.608487 0.935234 0.564985 -0.010085
C122  C     C_R   0.362754 0.064978 0.536078 -0.001633
C123  C     C_R   0.362811 0.935102 0.535919 -0.005367
C124  C     C_R   0.608468 0.064839 0.565085 -0.008150
C125  C     C_R   0.174621 0.435614 0.506926 -0.234525
C126  C     C_R   0.830589 0.564323 0.474317 -0.224665
C127  C     C_R   0.825255 0.435627 0.493393 -0.234279
C128  C     C_R   0.169342 0.564328 0.525929 -0.224962
C129  C     C_R   0.664849 0.934984 0.540675 -0.226765
C130  C     C_R   0.320166 0.064936 0.510774 -0.233171
C131  C     C_R   0.320195 0.935107 0.510693 -0.232290
C132  C     C_R   0.664842 0.065056 0.540715 -0.226906
C133  C     C_R   0.198686 0.500385 0.509040 0.402082
C134  C     C_R   0.801245 0.500388 0.491096 0.401705
C135  C     C_R   0.692879 0.000018 0.521112 0.408234
C136  C     C_R   0.296462 0.000015 0.507254 0.395103
C137  C     C_R   0.097198 0.500046 0.512632 0.070454
C138  C     C_R   0.902539 0.500072 0.488208 0.070429
C139  C     C_R   0.582285 0.000045 0.567533 0.076088
C140  C     C_R   0.386047 0.000050 0.543245 0.077382
C141  C     C_R   0.576607 0.873377 0.588078 -0.156239
C142  C     C_R   0.380224 0.127009 0.562030 -0.164200
C143  C     C_R   0.380376 0.873064 0.561634 -0.162270
C144  C     C_R   0.576561 0.126696 0.588348 -0.155833
C145  C     C_R   0.108218 0.376469 0.468722 -0.150159
C146  C     C_R   0.917275 0.623773 0.445745 -0.146299
C147  C     C_R   0.891366 0.376535 0.532270 -0.150093
C148  C     C_R   0.082599 0.623797 0.554931 -0.146446
Cu1   Cu    Cu3+1 0.209920 0.785290 0.495070 0.943592
Cu2   Cu    Cu3+1 0.790080 0.214710 0.504930 0.960557
Cu3   Cu    Cu3+1 0.790080 0.785290 0.504930 0.952567
Cu4   Cu    Cu3+1 0.209920 0.214710 0.495070 0.951819
Cu5   Cu    Cu3+1 0.709920 0.285290 0.495070 0.948756
Cu6   Cu    Cu3+1 0.290080 0.714710 0.504930 0.955581
Cu7   Cu    Cu3+1 0.290080 0.285290 0.504930 0.947337
Cu8   Cu    Cu3+1 0.709920 0.714710 0.495070 0.958350
Cu9   Cu    Cu3+1 0.495240 0.500000 0.924150 0.938821
Cu10  Cu    Cu3+1 0.504760 0.500000 0.075850 0.942896
Cu11  Cu    Cu3+1 0.995240 0.000000 0.924150 0.938133
Cu12  Cu    Cu3+1 0.004760 0.000000 0.075850 0.944024
H1    H     H_    0.589299 0.824223 0.604879 0.174568
H2    H     H_    0.358551 0.176305 0.576958 0.176298
H3    H     H_    0.358762 0.823731 0.576527 0.178915
H4    H     H_    0.589281 0.175831 0.605177 0.172803
H5    H     H_    0.132862 0.330858 0.437235 0.174856
H6    H     H_    0.911268 0.670026 0.413904 0.171602
H7    H     H_    0.866657 0.330945 0.563636 0.174907
H8    H     H_    0.088720 0.670085 0.586605 0.171801
H9    H     H_    0.505896 0.822069 0.605701 0.139151
H10   H     H_    0.436213 0.178388 0.592085 0.126928
H11   H     H_    0.436507 0.821655 0.591198 0.138480
H12   H     H_    0.505723 0.177977 0.606379 0.127306
H13   H     H_    0.044449 0.326856 0.454812 0.145686
H14   H     H_    0.984421 0.674711 0.448822 0.136668
H15   H     H_    0.954973 0.326931 0.546664 0.145694
H16   H     H_    0.015391 0.674752 0.552094 0.136355
H17   H     H_    0.296924 0.801367 0.847371 0.170728
H18   H     H_    0.704186 0.194740 0.150702 0.166530
H19   H     H_    0.703917 0.801559 0.151047 0.175379
H20   H     H_    0.296582 0.191030 0.848875 0.165336
H21   H     H_    0.796725 0.301682 0.848031 0.171804
H22   H     H_    0.204542 0.695585 0.150692 0.166590
H23   H     H_    0.204878 0.300773 0.150018 0.171842
H24   H     H_    0.796181 0.693141 0.849167 0.167020
H25   H     H_    0.131338 0.848848 0.011621 0.158268
H26   H     H_    0.869007 0.152005 0.987864 0.174608
H27   H     H_    0.869324 0.847656 0.987763 0.157801
H28   H     H_    0.131883 0.150553 0.011411 0.173889
H29   H     H_    0.631238 0.348685 0.011691 0.157668
H30   H     H_    0.369253 0.652363 0.987677 0.174439
H31   H     H_    0.370232 0.346041 0.986904 0.158878
H32   H     H_    0.631384 0.651424 0.011811 0.174623
H33   H     H_    0.116605 0.847902 0.768747 0.173842
H34   H     H_    0.883382 0.152009 0.231213 0.180094
H35   H     H_    0.883226 0.848257 0.231401 0.176926
H36   H     H_    0.116364 0.152563 0.769075 0.177191
H37   H     H_    0.616612 0.347922 0.768731 0.175125
H38   H     H_    0.383289 0.651827 0.231310 0.178325
H39   H     H_    0.382958 0.348764 0.231620 0.176472
H40   H     H_    0.616484 0.652270 0.768913 0.176551
H41   H     H_    0.244846 0.732624 0.783640 0.156637
H42   H     H_    0.755042 0.267096 0.216508 0.155555
H43   H     H_    0.755640 0.731785 0.215898 0.159769
H44   H     H_    0.246110 0.265096 0.782590 0.153020
H45   H     H_    0.744724 0.232411 0.783759 0.157063
H46   H     H_    0.255386 0.767690 0.216213 0.155052
H47   H     H_    0.256200 0.230820 0.215441 0.157830
H48   H     H_    0.745427 0.766294 0.783113 0.154870
O1    O     O_R   0.255040 0.869590 0.478480 -0.523158
O2    O     O_R   0.744960 0.130410 0.521520 -0.520367
O3    O     O_R   0.744960 0.869590 0.521520 -0.521343
O4    O     O_R   0.255040 0.130410 0.478480 -0.522049
O5    O     O_R   0.755040 0.369590 0.478480 -0.524448
O6    O     O_R   0.244960 0.630410 0.521520 -0.521186
O7    O     O_R   0.244960 0.369590 0.521520 -0.524136
O8    O     O_R   0.755040 0.630410 0.478480 -0.521239
O9    O     O_R   0.182050 0.796550 0.624440 -0.607007
O10   O     O_R   0.817950 0.203450 0.375560 -0.585221
O11   O     O_R   0.817950 0.796550 0.375560 -0.594366
O12   O     O_R   0.182050 0.203450 0.624440 -0.597920
O13   O     O_R   0.682050 0.296550 0.624440 -0.603595
O14   O     O_R   0.317950 0.703450 0.375560 -0.590244
O15   O     O_R   0.317950 0.296550 0.375560 -0.593513
O16   O     O_R   0.682050 0.703450 0.624440 -0.600854
O17   O     O_R   0.250530 0.763330 0.367210 -0.588267
O18   O     O_R   0.749470 0.236670 0.632790 -0.601314
O19   O     O_R   0.749470 0.763330 0.632790 -0.592917
O20   O     O_R   0.250530 0.236670 0.367210 -0.596579
O21   O     O_R   0.750530 0.263330 0.367210 -0.590033
O22   O     O_R   0.249470 0.736670 0.632790 -0.602412
O23   O     O_R   0.249470 0.263330 0.632790 -0.603518
O24   O     O_R   0.750530 0.736670 0.367210 -0.587966
O25   O     O_R   0.177260 0.690030 0.513710 -0.611862
O26   O     O_R   0.822740 0.309970 0.486290 -0.609183
O27   O     O_R   0.822740 0.690030 0.486290 -0.612162
O28   O     O_R   0.177260 0.309970 0.513710 -0.608672
O29   O     O_R   0.677260 0.190030 0.513710 -0.612009
O30   O     O_R   0.322740 0.809970 0.486290 -0.609041
O31   O     O_R   0.322740 0.190030 0.486290 -0.610536
O32   O     O_R   0.677260 0.809970 0.513710 -0.609264
O33   O     O_R   0.051640 0.926880 0.885090 -0.593125
O34   O     O_R   0.948360 0.073120 0.114910 -0.587595
O35   O     O_R   0.948360 0.926880 0.114910 -0.591056
O36   O     O_R   0.051640 0.073120 0.885090 -0.589629
O37   O     O_R   0.551640 0.426880 0.885090 -0.592471
O38   O     O_R   0.448360 0.573120 0.114910 -0.588577
O39   O     O_R   0.448360 0.426880 0.114910 -0.591535
O40   O     O_R   0.551640 0.573120 0.885090 -0.590123
O41   O     O_R   0.940620 0.926560 0.986760 -0.594069
O42   O     O_R   0.059380 0.073440 0.013240 -0.588821
O43   O     O_R   0.059380 0.926560 0.013240 -0.593777
O44   O     O_R   0.940620 0.073440 0.986760 -0.589168
O45   O     O_R   0.440620 0.426560 0.986760 -0.593469
O46   O     O_R   0.559380 0.573440 0.013240 -0.588512
O47   O     O_R   0.559380 0.426560 0.013240 -0.593442
O48   O     O_R   0.440620 0.573440 0.986760 -0.589640
O49   O     O_3   0.252045 0.501222 0.492490 -0.536967
C149  C     C_3   0.285404 0.501741 0.398788 -0.214607
H49   H     H_    0.277328 0.548831 0.366904 0.132624
H50   H     H_    0.280732 0.452256 0.367019 0.129714
H51   H     H_    0.328062 0.504786 0.385476 0.178623
O50   O     O_3   0.747938 0.501224 0.507358 -0.537108
C150  C     C_3   0.714434 0.501764 0.601019 -0.213216
H52   H     H_    0.722438 0.548857 0.633007 0.134000
H53   H     H_    0.719022 0.452286 0.632866 0.131096
H54   H     H_    0.671819 0.504819 0.614104 0.177783
O51   O     O_3   0.748716 0.000013 0.481831 -0.538690
C151  C     C_3   0.769187 0.000002 0.387860 -0.235084
H55   H     H_    0.756660 0.048412 0.364455 0.131783
H56   H     H_    0.756667 0.951577 0.364450 0.132751
H57   H     H_    0.813870 0.000007 0.356383 0.184385
O52   O     O_3   0.248340 0.000003 0.502521 -0.537587
C152  C     C_3   0.205423 0.000005 0.590818 -0.209667
H58   H     H_    0.206068 0.048311 0.628330 0.135252
H59   H     H_    0.206080 0.951714 0.628323 0.135713
H60   H     H_    0.166775 0.999991 0.587400 0.173540
O53   O     O_3   0.139180 0.722434 0.077332 -0.568086
C153  C     C_3   0.110312 0.749176 0.165282 -0.342413
H61   H     H_    0.113176 0.712251 0.214244 0.171338
H62   H     H_    0.123668 0.803484 0.172327 0.145159
H63   H     H_    0.067106 0.752868 0.181954 0.196178
O54   O     O_3   0.860355 0.276671 0.919870 -0.584157
C154  C     C_3   0.868640 0.347764 0.936364 -0.300570
H64   H     H_    0.851873 0.358314 0.009422 0.164056
H65   H     H_    0.851091 0.385200 0.905763 0.160348
H66   H     H_    0.912660 0.357898 0.905123 0.196976
O55   O     O_3   0.861450 0.720114 0.922860 -0.567669
C155  C     C_3   0.890590 0.746145 0.834616 -0.342766
H67   H     H_    0.887638 0.708899 0.786002 0.171408
H68   H     H_    0.877553 0.800456 0.826831 0.144548
H69   H     H_    0.933778 0.749557 0.818125 0.196056
O56   O     O_3   0.141227 0.276075 0.078244 -0.583574
C156  C     C_3   0.133638 0.347174 0.060748 -0.300612
H70   H     H_    0.150603 0.357143 0.987537 0.164020
H71   H     H_    0.151457 0.384558 0.090977 0.159997
H72   H     H_    0.089719 0.357996 0.091681 0.197066
O57   O     O_3   0.638986 0.221867 0.077283 -0.568887
C157  C     C_3   0.610053 0.249819 0.164578 -0.334431
H73   H     H_    0.612989 0.213965 0.214422 0.171500
H74   H     H_    0.623307 0.304504 0.170349 0.143738
H75   H     H_    0.566850 0.253044 0.181122 0.199492
O58   O     O_3   0.360797 0.776189 0.919151 -0.586854
C158  C     C_3   0.369668 0.848602 0.928585 -0.302373
H76   H     H_    0.351745 0.864194 0.000414 0.164958
H77   H     H_    0.353734 0.882848 0.892409 0.161581
H78   H     H_    0.413762 0.857880 0.898494 0.196150
O59   O     O_3   0.362214 0.217769 0.922923 -0.565844
C159  C     C_3   0.391412 0.238098 0.832194 -0.348032
H79   H     H_    0.388295 0.196796 0.787793 0.171518
H80   H     H_    0.378599 0.290823 0.818794 0.144796
H81   H     H_    0.434636 0.242509 0.815174 0.196055
O60   O     O_3   0.640338 0.776752 0.079171 -0.581999
C160  C     C_3   0.632471 0.847451 0.060593 -0.298883
H82   H     H_    0.649040 0.856530 0.987276 0.162338
H83   H     H_    0.650499 0.885574 0.089673 0.160120
H84   H     H_    0.588517 0.858094 0.091931 0.197563

loop_
_geom_bond_atom_site_label_1
_geom_bond_atom_site_label_2
_ccdc_geom_bond_type
C51   C97   S    
Cu3   O19   S    
C11   H11   S    
Cu9   Cu10  S    
C9    H9    S    
C79   C87   A    
C158  H77   S    
C13   H13   S    
C58   C66   A    
O54   C154  S    
C3    O16   A    
C95   O4    A    
C13   C112  A    
C152  H60   S    
C62   C70   A    
C107  C113  A    
C7    C68   S    
O52   C152  S    
Cu8   O8    S    
C98   O36   A    
C159  H81   S    
C96   O3    A    
Cu5   O5    S    
C144  H4    S    
C30   H22   S    
C143  H3    S    
C16   C109  A    
C155  H69   S    
C12   H12   S    
C61   H37   S    
C97   O41   A    
C20   C28   A    
C27   C35   A    
Cu2   O26   S    
C73   H41   S    
C92   O28   A    
C2    O13   A    
C23   C31   A    
Cu6   O14   S    
C101  O45   A    
C24   C32   A    
C77   H45   S    
C6    O9    A    
C158  H76   S    
C43   H27   S    
C136  O52   S    
Cu1   O9    S    
C28   H20   S    
C147  H7    S    
C105  C112  A    
C63   C71   A    
C120  C148  A    
C64   H40   S    
Cu3   O11   S    
C157  H73   S    
Cu11  O36   S    
C100  O34   A    
C2    O18   A    
C150  H53   S    
C9    C116  A    
Cu1   O1    S    
Cu4   O28   S    
C50   C100  S    
C1    C70   S    
C17   C25   A    
C3    C72   S    
C80   C88   A    
C79   H47   S    
C52   C98   S    
C18   C82   S    
Cu9   O40   S    
C126  C134  A    
C23   C36   A    
Cu12  O34   S    
C118  C138  A    
C119  C147  A    
C4    C71   S    
C47   C87   A    
C89   O6    A    
C113  C115  A    
C43   C83   A    
C124  C139  A    
C69   C77   A    
C127  C134  A    
C13   C145  A    
C43   C51   A    
C92   C125  S    
C71   C79   A    
C30   C38   A    
C103  O37   A    
C36   O59   S    
Cu2   O2    S    
C108  C115  A    
C109  C111  A    
C160  H83   S    
C66   C74   A    
C91   O27   A    
C49   C57   A    
O60   C160  S    
C124  C132  A    
C92   O7    A    
O49   C149  S    
C89   O25   A    
C52   C60   A    
C59   C67   A    
C129  C135  A    
C53   C61   A    
C93   O29   A    
C55   C63   A    
C95   C130  S    
C56   C64   A    
C93   C132  S    
C44   C52   A    
C4    O20   A    
C45   C53   A    
O53   C153  S    
C154  H66   S    
Cu5   O21   S    
C19   C83   S    
C159  H80   S    
C106  C111  A    
Cu11  O41   S    
C131  C136  A    
C75   H43   S    
Cu2   Cu5   S    
Cu1   O25   S    
C155  H68   S    
Cu10  O46   S    
C156  H70   S    
C49   C99   S    
Cu8   O24   S    
C38   O53   S    
Cu3   O27   S    
C60   C68   A    
C42   C50   A    
C7    O12   A    
C80   H48   S    
C104  O38   A    
C6    O22   A    
C67   C75   A    
Cu10  O39   S    
C105  C109  A    
C22   C30   A    
C119  C138  A    
C5    C66   S    
C114  C116  A    
O51   C151  S    
O50   C150  S    
C68   C76   A    
C4    O15   A    
Cu6   O30   S    
C45   C85   A    
Cu8   O16   S    
C121  C139  A    
C20   C84   S    
C149  H49   S    
C56   C102  S    
C72   C80   A    
C8    O11   A    
C11   C143  A    
C152  H59   S    
C153  H62   S    
C17   C38   A    
C107  C139  A    
C110  C112  A    
C107  C116  A    
C19   C40   A    
C105  C137  A    
C8    C67   S    
C93   O2    A    
C153  H61   S    
C96   C129  S    
C117  C125  A    
C25   C33   A    
C119  C127  A    
Cu2   O18   S    
C103  O47   A    
C18   C26   A    
Cu6   O6    S    
C76   C84   A    
C150  H52   S    
C7    O23   A    
C54   C104  S    
C27   H19   S    
C156  H72   S    
C25   H17   S    
C154  H65   S    
C61   C69   A    
C117  C145  A    
C10   C142  A    
C108  C114  A    
Cu7   O15   S    
C6    C65   S    
C153  H63   S    
C90   C127  S    
C48   C88   A    
C16   H16   S    
C133  O49   S    
Cu4   O4    S    
Cu7   O31   S    
C96   O32   A    
C15   C110  A    
C157  H74   S    
C74   C82   A    
C158  H78   S    
C21   C85   S    
O59   C159  S    
C50   C58   A    
C121  C141  A    
Cu9   O48   S    
C98   O42   A    
C20   C39   A    
C21   C34   A    
C74   H42   S    
C58   H34   S    
C1    O14   A    
C102  O46   A    
C157  H75   S    
Cu1   Cu6   S    
C78   H46   S    
Cu5   O13   S    
C91   O8    A    
Cu11  Cu12  S    
Cu4   Cu7   S    
C41   C81   A    
C46   C54   A    
Cu3   Cu8   S    
Cu7   O7    S    
C24   C88   S    
Cu3   O3    S    
C73   C81   A    
C145  H5    S    
C99   O43   A    
C148  H8    S    
C101  O39   A    
C3    O19   A    
C1    O17   A    
C14   C146  A    
C123  C131  A    
C39   O56   S    
C121  C129  A    
C44   C84   A    
C142  H2    S    
C120  C128  A    
Cu5   O29   S    
C10   H10   S    
C41   C49   A    
C54   C62   A    
C40   O55   S    
C94   C131  S    
C59   H35   S    
C14   H14   S    
C15   C147  A    
C75   C83   A    
C160  H82   S    
C21   C29   A    
C53   C103  S    
C17   C81   S    
C22   C86   S    
C47   H31   S    
C48   H32   S    
Cu12  O43   S    
C122  C140  A    
C151  H55   S    
C28   C36   A    
C29   C37   A    
C120  C137  A    
Cu11  O33   S    
C90   O5    A    
C89   C128  S    
C150  H54   S    
C141  H1    S    
C91   C126  S    
C70   C78   A    
Cu1   O17   S    
O57   C157  S    
C42   C82   A    
Cu8   O32   S    
C29   H21   S    
O56   C156  S    
C18   C37   A    
Cu11  O44   S    
C106  C138  A    
C65   C73   A    
C90   O26   A    
C11   C114  A    
Cu10  O47   S    
C35   O60   S    
Cu4   O20   S    
C94   O30   A    
C5    O10   A    
C31   C39   A    
C19   C27   A    
C78   C86   A    
C32   C40   A    
C146  H6    S    
C134  O50   S    
C23   C87   S    
Cu6   O22   S    
C135  O51   S    
C46   H30   S    
C26   C34   A    
C26   H18   S    
C14   C111  A    
C24   C35   A    
Cu12  O42   S    
C118  C146  A    
C102  O40   A    
C62   H38   S    
C108  C140  A    
C9    C141  A    
C160  H84   S    
C95   O31   A    
C117  C137  A    
C123  C140  A    
C12   C144  A    
C57   H33   S    
C99   O33   A    
C149  H50   S    
Cu9   O45   S    
C97   O35   A    
C151  H57   S    
C152  H58   S    
Cu2   O10   S    
C41   H25   S    
C44   H28   S    
C45   H29   S    
O55   C155  S    
C5    O21   A    
C149  H51   S    
C51   C59   A    
C122  C142  A    
C2    C69   S    
C154  H64   S    
C159  H79   S    
C60   H36   S    
C47   C55   A    
C12   C113  A    
C106  C110  A    
C125  C133  A    
C48   C56   A    
C22   C33   A    
O58   C158  S    
C31   H23   S    
C32   H24   S    
C130  C136  A    
C151  H56   S    
C100  O44   A    
C76   H44   S    
C118  C126  A    
C55   C101  S    
C104  O48   A    
C15   H15   S    
C16   C148  A    
C155  H67   S    
C156  H71   S    
C128  C133  A    
C33   O58   S    
C8    O24   A    
C42   H26   S    
C34   O57   S    
Cu9   O37   S    
C132  C135  A    
C57   C65   A    
Cu4   O12   S    
Cu7   O23   S    
C63   H39   S    
C64   C72   A    
Cu12  O35   S    
C77   C85   A    
C94   O1    A    
C123  C143  A    
C124  C144  A    
Cu10  O38   S    
C37   O54   S    
C122  C130  A    
C10   C115  A    
C46   C86   A    
