data_mof_unit_62217.cif
_audit_creation_date              2012-12-10T17:35:55-0500
_audit_creation_method            fapswitch 2.2
_symmetry_space_group_name_H-M    P1
_symmetry_Int_Tables_number       1
_space_group_crystal_system       triclinic
_cell_length_a                    24.339415
_cell_length_b                    24.339706
_cell_length_c                    27.676166
_cell_angle_alpha                 89.999981
_cell_angle_beta                  90.0
_cell_angle_gamma                 90.001565
_cell_volume                      16395.7538809

loop_
_atom_site_label
_atom_site_type_symbol
_atom_type_description
_atom_site_fract_x
_atom_site_fract_y
_atom_site_fract_z
_atom_type_partial_charge
C1    C     C_1   0.000000 0.500000 0.569087 -0.086825
C2    C     C_1   0.000000 0.500000 0.474483 0.046457
C3    C     C_R   0.244739 0.326655 0.752580 0.006273
C4    C     C_R   0.288965 0.792983 0.294411 0.001192
C5    C     C_R   0.711065 0.206987 0.705591 0.001204
C6    C     C_R   0.244736 0.326649 0.247298 0.006215
C7    C     C_R   0.755273 0.673362 0.752848 0.006167
C8    C     C_R   0.173351 0.255266 0.252702 0.006214
C9    C     C_R   0.826641 0.744727 0.747149 0.006161
C10   C     C_R   0.292982 0.788969 0.205588 0.001199
C11   C     C_R   0.706989 0.211062 0.794409 0.001186
C12   C     C_R   0.826666 0.744747 0.252394 0.006335
C13   C     C_1   0.500000 0.000000 0.525517 0.046455
C14   C     C_R   0.173340 0.255260 0.747430 0.006285
C15   C     C_R   0.706973 0.211079 0.205595 0.001200
C16   C     C_R   0.293027 0.788920 0.794406 0.001204
C17   C     C_R   0.211076 0.706976 0.794408 0.001177
C18   C     C_R   0.788929 0.293019 0.205592 0.001149
C19   C     C_R   0.255256 0.173340 0.747442 0.006248
C20   C     C_R   0.744747 0.826666 0.252391 0.006336
C21   C     C_R   0.788932 0.293015 0.794409 0.001209
C22   C     C_R   0.211027 0.707025 0.205586 0.001186
C23   C     C_R   0.744730 0.826640 0.747151 0.006154
C24   C     C_1   0.500000 0.000000 0.474483 0.046459
C25   C     C_R   0.255265 0.173352 0.252703 0.006215
C26   C     C_R   0.729559 0.770443 0.749998 0.029709
C27   C     C_R   0.270443 0.229557 0.250001 0.029694
C28   C     C_R   0.770453 0.270455 0.750000 0.033516
C29   C     C_R   0.229543 0.729549 0.249998 0.033503
C30   C     C_R   0.270442 0.229554 0.750007 0.029725
C31   C     C_R   0.729553 0.770442 0.250007 0.029739
C32   C     C_R   0.229546 0.729545 0.749999 0.033514
C33   C     C_R   0.770457 0.270452 0.250002 0.033512
C34   C     C_R   0.729547 0.229545 0.250003 0.033491
C35   C     C_1   0.500000 0.000000 0.025517 0.046460
C36   C     C_R   0.270456 0.770452 0.749999 0.033516
C37   C     C_R   0.770442 0.729554 0.250005 0.029707
C38   C     C_R   0.229554 0.270442 0.750006 0.029692
C39   C     C_R   0.270452 0.770457 0.249999 0.033494
C40   C     C_R   0.729546 0.229545 0.750000 0.033522
C41   C     C_R   0.229557 0.270443 0.250000 0.029694
C42   C     C_R   0.770444 0.729558 0.749998 0.029693
C43   C     C_R   0.659163 0.700292 0.764330 -0.106850
C44   C     C_R   0.340878 0.299747 0.235960 -0.106821
C45   C     C_R   0.781463 0.259603 0.662479 -0.090327
C46   C     C_1   0.500000 1.000000 0.974483 0.046456
C47   C     C_R   0.218599 0.740333 0.337533 -0.090336
C48   C     C_R   0.340911 0.299779 0.763779 -0.106836
C49   C     C_R   0.659033 0.700163 0.236626 -0.106796
C50   C     C_R   0.218509 0.740424 0.662485 -0.090322
C51   C     C_R   0.781490 0.259577 0.337518 -0.090314
C52   C     C_R   0.740425 0.218512 0.337518 -0.090319
C53   C     C_R   0.259580 0.781484 0.662482 -0.090327
C54   C     C_R   0.700165 0.659038 0.236610 -0.106809
C55   C     C_R   0.299781 0.340907 0.763786 -0.106836
C56   C     C_R   0.259665 0.781398 0.337533 -0.090302
C57   C     C_1   0.000000 0.500000 0.025517 0.046456
C58   C     C_R   0.740398 0.218538 0.662479 -0.090310
C59   C     C_R   0.299749 0.340876 0.235960 -0.106812
C60   C     C_R   0.700292 0.659165 0.764335 -0.106848
C61   C     C_R   0.159122 0.200253 0.264041 -0.106820
C62   C     C_R   0.840839 0.799707 0.735662 -0.106850
C63   C     C_R   0.281396 0.759671 0.162464 -0.090342
C64   C     C_R   0.718539 0.240393 0.837522 -0.090326
C65   C     C_R   0.840959 0.799829 0.263404 -0.106809
C66   C     C_R   0.159086 0.200218 0.736230 -0.106832
C67   C     C_R   0.718509 0.240425 0.162488 -0.090343
C68   C     C_1   1.000000 0.500000 0.974483 0.046453
C69   C     C_R   0.281494 0.759572 0.837513 -0.090323
C70   C     C_R   0.240424 0.718511 0.837516 -0.090328
C71   C     C_R   0.759585 0.281478 0.162484 -0.090295
C72   C     C_R   0.200210 0.159086 0.736247 -0.106825
C73   C     C_R   0.799831 0.840959 0.263399 -0.106813
C74   C     C_R   0.759598 0.281464 0.837521 -0.090316
C75   C     C_R   0.240324 0.718614 0.162462 -0.090293
C76   C     C_R   0.799711 0.840836 0.735666 -0.106841
C77   C     C_R   0.200251 0.159125 0.264041 -0.106815
C78   C     C_2   0.604598 0.688282 0.786086 0.966897
C79   C     C_R   1.000000 0.500000 0.879046 0.833439
C80   C     C_2   0.395498 0.311818 0.214340 0.966842
C81   C     C_2   0.819434 0.263600 0.620558 0.960817
C82   C     C_2   0.180662 0.736302 0.379475 0.960765
C83   C     C_2   0.395588 0.311910 0.785260 0.966882
C84   C     C_2   0.604266 0.687930 0.215363 0.966889
C85   C     C_2   0.180509 0.736454 0.620582 0.960825
C86   C     C_2   0.819474 0.263563 0.379429 0.960792
C87   C     C_2   0.736441 0.180530 0.379431 0.960833
C88   C     C_2   0.263569 0.819466 0.620570 0.960875
C89   C     C_2   0.687944 0.604289 0.215303 0.966789
C90   C     C_R   0.000000 0.500000 0.120953 0.833477
C91   C     C_2   0.311911 0.395575 0.785286 0.966842
C92   C     C_2   0.263693 0.819332 0.379477 0.960771
C93   C     C_2   0.736401 0.180567 0.620559 0.960807
C94   C     C_2   0.311821 0.395495 0.214339 0.966834
C95   C     C_2   0.688286 0.604606 0.786103 0.966853
C96   C     C_2   0.104502 0.188183 0.285662 0.966842
C97   C     C_2   0.895400 0.811712 0.713895 0.966852
C98   C     C_2   0.319339 0.763694 0.120524 0.960739
C99   C     C_2   0.680575 0.236386 0.879447 0.960832
C100  C     C_2   0.895711 0.812048 0.284706 0.966830
C101  C     C_R   0.500000 1.000000 0.879046 0.833432
C102  C     C_2   0.104417 0.188088 0.714728 0.966804
C103  C     C_2   0.680515 0.236454 0.120580 0.960745
C104  C     C_2   0.319495 0.763542 0.879416 0.960832
C105  C     C_2   0.236440 0.680525 0.879426 0.960877
C106  C     C_2   0.763583 0.319447 0.120564 0.960870
C107  C     C_2   0.188066 0.104401 0.714791 0.966917
C108  C     C_2   0.812053 0.895715 0.284689 0.966856
C109  C     C_2   0.763586 0.319442 0.879437 0.960807
C110  C     C_2   0.236284 0.680688 0.120513 0.960803
C111  C     C_2   0.811720 0.895400 0.713908 0.966890
C112  C     C_1   1.000000 0.500000 0.430912 -0.086819
C113  C     C_R   0.500000 0.000000 0.120954 0.833463
C114  C     C_2   0.188179 0.104505 0.285663 0.966836
C115  C     C_R   0.500000 1.000000 0.379046 0.833476
C116  C     C_R   0.500000 0.000000 0.620954 0.833441
C117  C     C_R   1.000000 0.500000 0.379046 0.833463
C118  C     C_R   0.000000 0.500000 0.620954 0.833429
C119  C     C_R   0.105899 0.605899 0.750000 0.882628
C120  C     C_R   0.894101 0.394102 0.250001 0.882648
C121  C     C_R   0.605907 0.894094 0.750000 0.873089
C122  C     C_R   0.394094 0.105906 0.250000 0.873142
C123  C     C_R   0.894101 0.394102 0.750000 0.882637
C124  C     C_1   0.500000 0.000000 0.569087 -0.086829
C125  C     C_R   0.105898 0.605898 0.250000 0.882659
C126  C     C_R   0.394095 0.105905 0.750000 0.873202
C127  C     C_R   0.605905 0.894095 0.250000 0.873278
C128  C     C_R   0.105906 0.394094 0.250000 0.873144
C129  C     C_R   0.894094 0.605907 0.750000 0.873089
C130  C     C_R   0.605898 0.105899 0.250001 0.882642
C131  C     C_R   0.394101 0.894101 0.750000 0.882631
C132  C     C_R   0.894095 0.605904 0.250000 0.873274
C133  C     C_R   0.105905 0.394095 0.750000 0.873197
C134  C     C_R   0.394101 0.894102 0.250000 0.882658
C135  C     C_1   0.500000 1.000000 0.430912 -0.086822
C136  C     C_R   0.605899 0.105898 0.750000 0.882637
C137  C     C_R   0.703632 0.866749 0.754712 0.106403
C138  C     C_R   0.296384 0.133260 0.245152 0.106280
C139  C     C_R   0.835520 0.327673 0.793749 0.106224
C140  C     C_R   0.164440 0.672364 0.206254 0.106144
C141  C     C_R   0.296398 0.133266 0.754981 0.106070
C142  C     C_R   0.703581 0.866718 0.244858 0.105891
C143  C     C_R   0.164486 0.672321 0.793750 0.106215
C144  C     C_R   0.835518 0.327677 0.206251 0.106152
C145  C     C_R   0.672316 0.164491 0.206252 0.106273
C146  C     C_1   0.500000 0.000000 0.069088 -0.086816
C147  C     C_R   0.327681 0.835510 0.793749 0.106255
C148  C     C_R   0.866719 0.703582 0.244863 0.105930
C149  C     C_R   0.133264 0.296399 0.754969 0.106161
C150  C     C_R   0.327641 0.835555 0.206255 0.106178
C151  C     C_R   0.672333 0.164472 0.793748 0.106184
C152  C     C_R   0.133259 0.296385 0.245151 0.106275
C153  C     C_R   0.866751 0.703630 0.754711 0.106433
C154  C     C_R   0.203616 0.366741 0.254848 0.106281
C155  C     C_R   0.796370 0.633251 0.745288 0.106426
C156  C     C_R   0.335552 0.827642 0.293745 0.106163
C157  C     C_1   0.500000 1.000000 0.930912 -0.086824
C158  C     C_R   0.664476 0.172331 0.706252 0.106210
C159  C     C_R   0.796416 0.633278 0.255140 0.105947
C160  C     C_R   0.203602 0.366731 0.745037 0.106151
C161  C     C_R   0.664490 0.172316 0.293754 0.106204
C162  C     C_R   0.335516 0.827678 0.706248 0.106210
C163  C     C_R   0.172319 0.664488 0.706249 0.106258
C164  C     C_R   0.827681 0.335512 0.293751 0.106230
C165  C     C_R   0.366731 0.203599 0.745028 0.106111
C166  C     C_R   0.633277 0.796418 0.255153 0.105854
C167  C     C_R   0.827670 0.335524 0.706251 0.106200
C168  C     C_1   0.000000 0.500000 0.069087 -0.086825
C169  C     C_R   0.172360 0.664445 0.293743 0.106162
C170  C     C_R   0.633251 0.796371 0.745285 0.106398
C171  C     C_R   0.366741 0.203615 0.254849 0.106275
C172  C     C_R   0.648277 0.851724 0.749999 -0.138496
C173  C     C_R   0.351725 0.148275 0.250001 -0.138324
C174  C     C_R   0.851740 0.351742 0.750000 -0.133478
C175  C     C_R   0.148258 0.648259 0.249999 -0.133495
C176  C     C_R   0.351725 0.148272 0.750001 -0.138145
C177  C     C_R   0.648271 0.851726 0.250003 -0.137915
C178  C     C_R   0.148259 0.648259 0.750000 -0.133487
C179  C     C_1   1.000000 0.500000 0.930912 -0.086830
C180  C     C_R   0.851742 0.351741 0.250001 -0.133538
C181  C     C_R   0.648258 0.148259 0.250002 -0.133562
C182  C     C_R   0.351742 0.851740 0.749999 -0.133490
C183  C     C_R   0.851726 0.648272 0.250000 -0.137945
C184  C     C_R   0.148273 0.351726 0.750002 -0.138176
C185  C     C_R   0.351741 0.851743 0.250000 -0.133510
C186  C     C_R   0.648260 0.148257 0.750000 -0.133471
C187  C     C_R   0.148275 0.351725 0.250000 -0.138325
C188  C     C_R   0.851725 0.648276 0.750000 -0.138503
C189  C     C_R   0.673360 0.755273 0.752845 0.006157
C190  C     C_1   0.000000 0.500000 0.525517 0.046454
C191  C     C_R   0.326650 0.244734 0.247298 0.006214
C192  C     C_R   0.793013 0.288936 0.705591 0.001193
C193  C     C_R   0.207016 0.711034 0.294409 0.001193
C194  C     C_R   0.326656 0.244738 0.752574 0.006266
C195  C     C_R   0.673327 0.755249 0.247625 0.006310
C196  C     C_R   0.206975 0.711077 0.705592 0.001206
C197  C     C_R   0.793027 0.288922 0.294409 0.001181
C198  C     C_R   0.711079 0.206973 0.294411 0.001157
C199  C     C_R   0.288927 0.793021 0.705590 0.001173
C200  C     C_R   0.755249 0.673331 0.247614 0.006354
H1    H     H_    0.548493 0.708127 0.836812 0.375360
H2    H     H_    0.279806 0.829471 0.549663 0.359130
H3    H     H_    0.707273 0.547762 0.164791 0.375402
H4    H     H_    0.292352 0.451923 0.835885 0.375394
H5    H     H_    0.280008 0.829256 0.450380 0.359201
H6    H     H_    0.720143 0.170580 0.549653 0.359177
H7    H     H_    0.292124 0.451729 0.163683 0.375338
H8    H     H_    0.708149 0.548508 0.836830 0.375353
H9    H     H_    0.048267 0.207881 0.336317 0.375360
H10   H     H_    0.951501 0.791847 0.663174 0.375361
H11   H     H_    0.329272 0.779973 0.049616 0.359213
H12   H     H_    0.451733 0.292121 0.163684 0.375363
H13   H     H_    0.670603 0.220118 0.950353 0.359192
H14   H     H_    0.952242 0.792722 0.335216 0.375386
H15   H     H_    0.048071 0.207646 0.664127 0.375389
H16   H     H_    0.670495 0.220259 0.049667 0.359149
H17   H     H_    0.329529 0.779728 0.950328 0.359115
H18   H     H_    0.220212 0.670513 0.950333 0.359118
H19   H     H_    0.779886 0.329433 0.049666 0.359180
H20   H     H_    0.207567 0.048022 0.664201 0.375392
H21   H     H_    0.792741 0.952256 0.335192 0.375405
H22   H     H_    0.779818 0.329437 0.950348 0.359168
H23   H     H_    0.829421 0.279857 0.549652 0.359183
H24   H     H_    0.219938 0.670781 0.049612 0.359211
H25   H     H_    0.791872 0.951502 0.663181 0.375351
H26   H     H_    0.207877 0.048271 0.336319 0.375342
H27   H     H_    0.170735 0.720002 0.450380 0.359214
H28   H     H_    0.451952 0.292367 0.835850 0.375386
H29   H     H_    0.547706 0.707201 0.164863 0.375387
H30   H     H_    0.170477 0.720267 0.549669 0.359114
H31   H     H_    0.829478 0.279792 0.450338 0.359160
H32   H     H_    0.720200 0.170529 0.450339 0.359170
I1    I     I_    0.722120 0.946532 0.784394 -0.185497
I2    I     I_    0.334684 0.890157 0.854714 -0.191814
I3    I     I_    0.946323 0.721760 0.214666 -0.186147
I4    I     I_    0.053584 0.278094 0.784953 -0.185900
I5    I     I_    0.334606 0.890262 0.145329 -0.191879
I6    I     I_    0.665348 0.109796 0.854694 -0.191970
I7    I     I_    0.053532 0.277994 0.215304 -0.185706
I8    I     I_    0.946534 0.722120 0.784390 -0.185502
I9    I     I_    0.222009 0.446466 0.284695 -0.185713
I10   I     I_    0.777878 0.553467 0.715612 -0.185497
I11   I     I_    0.390259 0.834609 0.354670 -0.191725
I12   I     I_    0.277990 0.053534 0.215306 -0.185711
I13   I     I_    0.609806 0.165339 0.645302 -0.191836
I14   I     I_    0.778240 0.553674 0.285336 -0.186188
I15   I     I_    0.221913 0.446408 0.715051 -0.185899
I16   I     I_    0.609838 0.165307 0.354714 -0.191884
I17   I     I_    0.390175 0.834678 0.645291 -0.191971
I18   I     I_    0.165316 0.609840 0.645286 -0.191832
I19   I     I_    0.834681 0.390166 0.354711 -0.191730
I20   I     I_    0.446404 0.221902 0.715027 -0.185911
I21   I     I_    0.553677 0.778258 0.285368 -0.186167
I22   I     I_    0.834663 0.390193 0.645302 -0.191972
I23   I     I_    0.890183 0.334670 0.854703 -0.191837
I24   I     I_    0.165403 0.609733 0.354665 -0.191887
I25   I     I_    0.553465 0.777885 0.715605 -0.185488
I26   I     I_    0.446469 0.222005 0.284695 -0.185715
I27   I     I_    0.109724 0.665401 0.145334 -0.191748
I28   I     I_    0.278107 0.053592 0.784987 -0.185916
I29   I     I_    0.721756 0.946315 0.214649 -0.186196
I30   I     I_    0.109830 0.665322 0.854710 -0.191979
I31   I     I_    0.890179 0.334683 0.145294 -0.191889
I32   I     I_    0.665307 0.109845 0.145286 -0.191712
O1    O     O_3   0.000000 0.500000 0.750000 -0.528517
O2    O     O_R   0.954240 0.500000 0.143870 -0.619402
O3    O     O_R   0.299508 0.778193 0.924973 -0.701731
O4    O     O_2   0.245205 0.631474 0.873687 -0.580103
O5    O     O_R   0.221758 0.700525 0.924970 -0.701671
O6    O     O_2   0.754775 0.368494 0.126277 -0.580178
O7    O     O_R   0.778330 0.299434 0.075040 -0.701555
O8    O     O_2   0.152275 0.075126 0.732055 -0.513178
O9    O     O_R   0.218942 0.086028 0.675367 -0.761744
O10   O     O_2   0.847791 0.924928 0.267258 -0.513230
O11   O     O_R   0.781322 0.914218 0.324153 -0.761661
O12   O     O_2   0.754816 0.368493 0.873708 -0.580060
O13   O     O_R   0.500000 0.954240 0.856130 -0.619403
O14   O     O_R   0.778271 0.299432 0.924978 -0.701667
O15   O     O_2   0.245086 0.631634 0.126182 -0.580148
O16   O     O_R   0.221514 0.700752 0.075011 -0.701524
O17   O     O_2   0.847639 0.924761 0.730848 -0.513213
O18   O     O_R   0.780567 0.913563 0.674577 -0.761870
O19   O     O_2   0.152309 0.075190 0.268582 -0.513262
O20   O     O_R   0.219215 0.086239 0.325028 -0.761822
O21   O     O_R   0.500000 0.045760 0.143870 -0.619402
O22   O     O_R   0.454240 0.000000 0.356130 -0.619411
O23   O     O_R   0.545760 0.000000 0.643870 -0.619406
O24   O     O_R   0.000000 0.545760 0.356130 -0.619405
O25   O     O_R   0.000000 0.454240 0.643870 -0.619403
O26   O     O_R   0.545760 0.000000 0.356130 -0.619400
O27   O     O_R   0.454240 0.000000 0.643870 -0.619402
O28   O     O_R   0.000000 0.454240 0.356130 -0.619405
O29   O     O_3   0.000000 0.500000 0.250000 -0.528514
O30   O     O_R   0.000000 0.545760 0.643870 -0.619402
O31   O     O_R   0.110440 0.564520 0.777740 -0.610625
O32   O     O_R   0.889560 0.435480 0.222260 -0.610649
O33   O     O_R   0.564520 0.889560 0.777740 -0.613551
O34   O     O_R   0.435480 0.110440 0.222260 -0.613551
O35   O     O_R   0.889560 0.435480 0.777740 -0.610600
O36   O     O_R   0.110440 0.564520 0.222260 -0.610622
O37   O     O_R   0.435480 0.110440 0.777740 -0.613544
O38   O     O_R   0.564520 0.889560 0.222260 -0.613559
O39   O     O_R   0.110440 0.435480 0.222260 -0.613560
O40   O     O_3   0.500000 0.000000 0.750000 -0.528515
O41   O     O_R   0.889560 0.564520 0.777740 -0.613555
O42   O     O_R   0.564520 0.110440 0.222260 -0.610599
O43   O     O_R   0.435480 0.889560 0.777740 -0.610591
O44   O     O_R   0.889560 0.564520 0.222260 -0.613546
O45   O     O_R   0.110440 0.435480 0.777740 -0.613546
O46   O     O_R   0.435480 0.889560 0.222260 -0.610636
O47   O     O_R   0.564520 0.110440 0.777740 -0.610627
O48   O     O_R   0.610440 0.064520 0.277740 -0.610646
O49   O     O_R   0.389560 0.935480 0.722260 -0.610628
O50   O     O_R   0.064520 0.389560 0.277740 -0.613551
O51   O     O_3   0.500000 0.000000 0.250000 -0.528515
O52   O     O_R   0.935480 0.610440 0.722260 -0.613549
O53   O     O_R   0.389560 0.935480 0.277740 -0.610618
O54   O     O_R   0.610440 0.064520 0.722260 -0.610601
O55   O     O_R   0.935480 0.610440 0.277740 -0.613550
O56   O     O_R   0.064520 0.389560 0.722260 -0.613545
O57   O     O_R   0.610440 0.935480 0.722260 -0.613558
O58   O     O_R   0.389560 0.064520 0.277740 -0.613561
O59   O     O_R   0.064520 0.610440 0.722260 -0.610591
O60   O     O_R   0.935480 0.389560 0.277740 -0.610607
O61   O     O_R   0.389560 0.064520 0.722260 -0.613555
O62   O     O_R   0.954240 0.500000 0.856130 -0.619406
O63   O     O_R   0.610440 0.935480 0.277740 -0.613545
O64   O     O_R   0.935480 0.389560 0.722260 -0.610623
O65   O     O_R   0.064520 0.610440 0.277740 -0.610635
O66   O     O_2   0.575236 0.652366 0.769142 -0.513210
O67   O     O_R   0.586433 0.719432 0.825417 -0.761863
O68   O     O_2   0.424816 0.347686 0.231423 -0.513255
O69   O     O_R   0.413764 0.280784 0.174974 -0.761813
O70   O     O_2   0.868487 0.254827 0.626279 -0.580100
O71   O     O_R   0.799417 0.278300 0.575023 -0.701623
O72   O     O_2   0.131604 0.745079 0.373789 -0.580152
O73   O     O_R   0.045760 0.500000 0.143870 -0.619411
O74   O     O_R   0.200716 0.721573 0.424990 -0.701570
O75   O     O_2   0.424865 0.347721 0.768031 -0.513205
O76   O     O_R   0.413952 0.280999 0.824665 -0.761755
O77   O     O_2   0.575054 0.652214 0.232830 -0.513206
O78   O     O_R   0.585753 0.718624 0.175881 -0.761663
O79   O     O_2   0.131458 0.745206 0.626337 -0.580059
O80   O     O_R   0.200497 0.721803 0.575025 -0.701738
O81   O     O_2   0.868526 0.254798 0.373694 -0.580119
O82   O     O_R   0.799469 0.278243 0.424973 -0.701661
O83   O     O_2   0.745221 0.131481 0.373699 -0.580152
O84   O     O_R   0.500000 0.045760 0.856130 -0.619402
O85   O     O_R   0.721745 0.200535 0.424971 -0.701637
O86   O     O_2   0.254798 0.868517 0.626303 -0.580110
O87   O     O_R   0.278258 0.799461 0.575028 -0.701650
O88   O     O_2   0.652191 0.575076 0.232709 -0.513296
O89   O     O_R   0.718694 0.585795 0.175846 -0.761645
O90   O     O_2   0.347736 0.424851 0.768079 -0.513237
O91   O     O_R   0.280983 0.413929 0.824685 -0.761747
O92   O     O_2   0.254900 0.868386 0.373797 -0.580130
O93   O     O_R   0.278440 0.799277 0.424988 -0.701559
O94   O     O_2   0.745175 0.131515 0.626280 -0.580072
O95   O     O_R   0.500000 0.954240 0.143870 -0.619405
O96   O     O_R   0.721700 0.200583 0.575024 -0.701628
O97   O     O_2   0.347691 0.424811 0.231420 -0.513266
O98   O     O_R   0.280785 0.413761 0.174974 -0.761825
O99   O     O_2   0.652356 0.575246 0.769179 -0.513246
O100  O     O_R   0.719452 0.586444 0.825426 -0.761862
O101  O     O_2   0.075185 0.152314 0.268580 -0.513254
O102  O     O_R   0.086236 0.219218 0.325027 -0.761815
O103  O     O_2   0.924757 0.847643 0.730819 -0.513242
O104  O     O_R   0.913565 0.780543 0.674575 -0.761858
O105  O     O_2   0.368396 0.754920 0.126216 -0.580143
O106  O     O_R   0.045760 0.500000 0.856130 -0.619402
O107  O     O_R   0.299289 0.778410 0.075005 -0.701604
O108  O     O_2   0.631521 0.245160 0.873734 -0.580112
O109  O     O_R   0.700601 0.221678 0.924977 -0.701589
O110  O     O_2   0.924926 0.847795 0.267292 -0.513259
O111  O     O_R   0.914206 0.781305 0.324166 -0.761666
O112  O     O_2   0.075142 0.152261 0.731931 -0.513277
O113  O     O_R   0.086064 0.219016 0.675328 -0.761734
O114  O     O_2   0.631462 0.245198 0.126330 -0.580091
O115  O     O_R   0.700512 0.221806 0.075026 -0.701740
O116  O     O_2   0.368546 0.754790 0.873659 -0.580059
Zn1   Zn    Zn3+2 0.000000 0.565500 0.710070 1.055045
Zn2   Zn    Zn3+2 0.500000 0.934500 0.789930 1.055047
Zn3   Zn    Zn3+2 0.065500 0.500000 0.210070 1.055061
Zn4   Zn    Zn3+2 0.934500 0.500000 0.789930 1.055040
Zn5   Zn    Zn3+2 0.500000 0.934500 0.210070 1.055095
Zn6   Zn    Zn3+2 0.500000 0.065500 0.789930 1.055064
Zn7   Zn    Zn3+2 0.934500 0.500000 0.210070 1.055090
Zn8   Zn    Zn3+2 0.065500 0.500000 0.789930 1.055063
Zn9   Zn    Zn3+2 0.000000 0.434500 0.289930 1.055069
Zn10  Zn    Zn3+2 0.565500 0.000000 0.710070 1.055039
Zn11  Zn    Zn3+2 0.434500 0.000000 0.289930 1.055062
Zn12  Zn    Zn3+2 0.000000 0.434500 0.710070 1.055062
Zn13  Zn    Zn3+2 0.000000 0.565500 0.289930 1.055096
Zn14  Zn    Zn3+2 0.434500 0.000000 0.710070 1.055062
Zn15  Zn    Zn3+2 0.565500 0.000000 0.289930 1.055095
Zn16  Zn    Zn3+2 0.500000 0.065500 0.210070 1.055073

loop_
_geom_bond_atom_site_label_1
_geom_bond_atom_site_label_2
_ccdc_geom_bond_type
O36   Zn3   S    
C22   C29   A    
C99   O109  S    
C83   O76   S    
C32   C196  A    
O30   Zn1   S    
C150  C185  A    
C109  O14   S    
C156  C185  A    
C105  O4    D    
C171  C173  A    
C50   C53   A    
C95   O99   D    
C92   O93   S    
H30   O80   S    
O52   Zn1   S    
C63   C98   S    
O64   Zn12  S    
C142  C177  A    
C100  O110  D    
O31   Zn8   S    
C28   C40   A    
C102  O112  D    
H9    O102  S    
C30   C38   A    
C7    C42   A    
O21   Zn16  S    
C51   C197  A    
C113  O21   A    
C129  O41   A    
H12   O69   S    
C66   C72   A    
C10   C63   A    
C86   O81   D    
C93   O94   D    
C104  O116  D    
C1    C190  T    
H20   O9    S    
C19   C141  A    
O29   Zn13  S    
C4    C56   A    
C169  I24   S    
C125  O65   A    
C98   O107  S    
C152  C187  A    
C87   O85   S    
O50   Zn9   S    
C121  O57   A    
C123  O35   A    
C149  I4    S    
H31   O82   S    
C51   C52   A    
C161  I16   S    
C13   C124  T    
C73   C108  S    
O63   Zn15  S    
C49   C195  A    
C91   O91   S    
C103  O114  D    
H28   O76   S    
C31   C37   A    
C165  C176  A    
C113  C146  S    
C14   C38   A    
C133  C184  S    
O51   Zn15  S    
C145  I32   S    
C166  C177  A    
H25   O18   S    
C117  O24   A    
H1    O67   S    
C134  O46   A    
C167  C174  A    
C159  C200  A    
C21   C28   A    
C117  O28   A    
C97   O103  D    
C111  O18   S    
C79   C179  S    
C52   C198  A    
C21   C139  A    
H6    O96   S    
C123  C174  S    
C164  C197  A    
C15   C145  A    
C110  O15   D    
C154  C187  A    
O1    Zn8   S    
C101  O13   A    
C18   C71   A    
O46   Zn5   S    
C136  C186  S    
C107  O8    D    
O44   Zn7   S    
O106  Zn8   S    
C47   C193  A    
C171  I26   S    
C45   C81   S    
C2    C190  S    
H7    O98   S    
C70   C105  S    
O35   Zn4   S    
O54   Zn10  S    
O24   Zn13  S    
C31   C195  A    
O25   Zn12  S    
C120  O60   A    
C126  O37   A    
C163  C196  A    
C29   C193  A    
C93   O96   S    
O51   Zn11  S    
C141  I28   S    
O49   Zn14  S    
H21   O11   S    
H19   O7    S    
C85   O79   D    
H23   O71   S    
C69   C70   A    
C107  O9    S    
C60   C95   S    
C5    C158  A    
C71   C106  S    
C17   C32   A    
C98   O105  D    
C19   C30   A    
C96   O102  S    
O29   Zn3   S    
C151  C186  A    
C128  C187  S    
H8    O100  S    
C36   C199  A    
C23   C76   A    
C108  O11   S    
O38   Zn5   S    
C61   C96   S    
C67   C103  S    
C57   C168  T    
C130  O48   A    
C101  O84   A    
C161  C198  A    
C32   C36   A    
C49   C84   S    
C8    C152  A    
O27   Zn14  S    
C131  C182  S    
C23   C26   A    
C44   C59   A    
H24   O16   S    
C145  C181  A    
O26   Zn15  S    
C92   O92   D    
C94   O98   S    
C3    C55   A    
C64   C99   S    
C144  C180  A    
C136  O54   A    
C81   O70   D    
C20   C73   A    
C149  C184  A    
C72   C107  S    
C118  O25   A    
C142  I29   S    
C154  I9    S    
C103  O115  S    
C106  O7    S    
C134  O53   A    
C26   C189  A    
C53   C199  A    
C119  O31   A    
C8    C41   A    
C120  O32   A    
C125  O36   A    
C128  O39   A    
C155  I10   S    
C62   C97   S    
C34   C198  A    
C150  I5    S    
C15   C67   A    
C115  O26   A    
C143  I30   S    
C11   C151  A    
C59   C94   S    
C84   O78   S    
C113  O95   A    
C119  O59   A    
C5    C40   A    
C57   C68   S    
H11   O107  S    
C26   C42   A    
O62   Zn4   S    
H15   O113  S    
C151  I6    S    
C131  O43   A    
C75   C110  S    
C90   C168  S    
C6    C59   A    
C118  O30   A    
C163  I18   S    
C83   O75   D    
C130  C181  S    
C143  C178  A    
C68   C179  T    
C48   C83   S    
O40   Zn14  S    
C148  I3    S    
C16   C36   A    
C144  I31   S    
C152  I7    S    
C115  C135  S    
C148  C183  A    
C126  O61   A    
C161  C181  A    
C11   C40   A    
C18   C33   A    
C109  O12   D    
C147  I2    S    
C114  O19   D    
C121  C172  S    
C86   O82   S    
C139  C174  A    
O13   Zn2   S    
C89   O89   S    
C47   C56   A    
C48   C55   A    
O56   Zn12  S    
C165  I20   S    
O55   Zn13  S    
C132  O55   A    
C104  O3    S    
C165  C194  A    
C127  O38   A    
C43   C78   S    
C170  C189  A    
C2    C112  T    
C80   O68   D    
C16   C147  A    
O40   Zn10  S    
C58   C93   S    
C162  I17   S    
C108  O10   D    
O59   Zn1   S    
C112  C117  S    
O42   Zn16  S    
C22   C140  A    
C166  I21   S    
C78   O67   S    
C116  O23   A    
C14   C149  A    
C37   C200  A    
C12   C37   A    
C66   C102  S    
O2    Zn7   S    
C137  C172  A    
C55   C91   S    
C50   C85   S    
C50   C196  A    
C141  C176  A    
C121  O33   A    
C158  I13   S    
C15   C34   A    
C164  C180  A    
C101  C157  S    
O37   Zn6   S    
C111  O17   D    
C62   C76   A    
C132  O44   A    
O23   Zn10  S    
C158  C186  A    
C51   C86   S    
C133  O45   A    
C110  O16   S    
C105  O5    S    
C45   C58   A    
O1    Zn4   S    
C95   O100  S    
C127  C177  S    
C44   C80   S    
C79   O106  A    
C162  C199  A    
O29   Zn7   S    
C10   C39   A    
C35   C146  T    
C127  O63   A    
C139  I23   S    
C159  I14   S    
C87   O83   D    
C45   C192  A    
H3    O89   S    
O47   Zn6   S    
C138  C173  A    
C80   O69   S    
C169  C175  A    
C171  C191  A    
O45   Zn8   S    
C6    C154  A    
H16   O115  S    
C5    C58   A    
C136  O47   A    
C4    C156  A    
O32   Zn7   S    
C160  I15   S    
C77   C114  S    
C7    C60   A    
C138  I12   S    
O53   Zn11  S    
O41   Zn4   S    
O51   Zn5   S    
C116  C124  S    
C153  I8    S    
C48   C194  A    
H18   O5    S    
C65   C100  S    
H10   O104  S    
C169  C193  A    
O39   Zn3   S    
C153  C188  A    
C102  O113  S    
C130  O42   A    
C12   C65   A    
C17   C143  A    
C18   C144  A    
C120  C180  S    
C88   O87   S    
C132  C183  S    
C10   C150  A    
C30   C194  A    
C170  C172  A    
O51   Zn16  S    
C140  C175  A    
C128  O50   A    
C170  I25   S    
C67   C71   A    
O40   Zn2   S    
C78   O66   D    
C7    C155  A    
C129  C188  S    
C99   O108  D    
C97   O104  S    
C64   C74   A    
C35   C46   S    
C147  C182  A    
C140  I27   S    
C129  O52   A    
C123  O64   A    
O84   Zn6   S    
C74   C109  S    
C65   C73   A    
C100  O111  S    
C167  C192  A    
C9    C42   A    
O65   Zn13  S    
C25   C77   A    
O60   Zn9   S    
C90   O2    A    
C162  C182  A    
C155  C188  A    
C76   C111  S    
C44   C191  A    
C85   O80   S    
C115  O22   A    
C49   C54   A    
C54   C200  A    
C47   C82   S    
C3    C38   A    
H17   O3    S    
C6    C41   A    
C119  C178  S    
H22   O14   S    
C96   O101  D    
H5    O93   S    
O57   Zn10  S    
C8    C61   A    
C89   O88   D    
C17   C70   A    
C167  I22   S    
O73   Zn3   S    
H4    O91   S    
C134  C185  S    
O40   Zn6   S    
C19   C72   A    
C27   C191  A    
C22   C75   A    
C163  C178  A    
C28   C192  A    
O28   Zn9   S    
C88   O86   D    
C91   O90   D    
O34   Zn16  S    
C9    C62   A    
C20   C142  A    
C164  I19   S    
C166  C195  A    
C54   C89   S    
C11   C64   A    
C61   C77   A    
C79   O62   A    
O48   Zn15  S    
C46   C157  T    
C21   C74   A    
O1    Zn1   S    
O58   Zn11  S    
C13   C24   S    
C122  O34   A    
H27   O74   S    
C90   O73   A    
O1    Zn12  S    
C94   O97   D    
H14   O111  S    
C156  I11   S    
O95   Zn5   S    
C27   C41   A    
C4    C39   A    
C33   C197  A    
H29   O78   S    
C81   O71   S    
C29   C39   A    
C33   C34   A    
C14   C66   A    
C43   C60   A    
C122  O58   A    
C24   C135  T    
C114  O20   S    
C106  O6    D    
C3    C160  A    
C137  I1    S    
C125  C175  S    
H32   O85   S    
C126  C176  S    
C63   C75   A    
C69   C104  S    
O61   Zn14  S    
O43   Zn2   S    
O33   Zn2   S    
C23   C137  A    
C52   C87   S    
C16   C69   A    
C133  O56   A    
C82   O74   S    
C25   C27   A    
C122  C173  S    
C116  O27   A    
C12   C148  A    
C25   C138  A    
H13   O109  S    
C131  O49   A    
C53   C88   S    
O29   Zn9   S    
C1    C118  S    
H26   O20   S    
C9    C153  A    
C82   O72   D    
C56   C92   S    
C84   O77   D    
C43   C189  A    
O22   Zn11  S    
C159  C183  A    
H2    O87   S    
C160  C184  A    
C20   C31   A    
