data_mof_unit_68525.cif
_audit_creation_date              2012-12-11T14:37:57-0500
_audit_creation_method            fapswitch 2.2
_symmetry_space_group_name_H-M    P1
_symmetry_Int_Tables_number       1
_space_group_crystal_system       triclinic
_cell_length_a                    14.595571
_cell_length_b                    15.776821
_cell_length_c                    6.95947
_cell_angle_alpha                 89.786927
_cell_angle_beta                  80.709834
_cell_angle_gamma                 89.882124
_cell_volume                      1581.53621013

loop_
_atom_site_label
_atom_site_type_symbol
_atom_type_description
_atom_site_fract_x
_atom_site_fract_y
_atom_site_fract_z
_atom_type_partial_charge
O1    O     O_R   0.337080 0.165770 0.524980 -0.528404
O2    O     O_R   0.662920 0.834230 0.475020 -0.523076
O3    O     O_R   0.662920 0.665770 0.475020 -0.533913
O4    O     O_R   0.337080 0.334230 0.524980 -0.539511
O5    O     O_R   0.348340 0.341430 0.191390 -0.526701
O6    O     O_R   0.651660 0.658570 0.808610 -0.555963
O7    O     O_R   0.651660 0.841430 0.808610 -0.521578
O8    O     O_R   0.348340 0.158570 0.191390 -0.556481
O9    O     O_R   0.165780 0.339950 0.082750 -0.528434
O10   O     O_R   0.834220 0.660050 0.917250 -0.525775
O11   O     O_R   0.834220 0.839950 0.917250 -0.529197
O12   O     O_R   0.165780 0.160050 0.082750 -0.530728
C1    C     C_R   0.370157 0.364386 0.355582 0.681415
C2    C     C_R   0.630169 0.635274 0.644344 0.682015
C3    C     C_R   0.629804 0.864225 0.643866 0.591463
C4    C     C_R   0.370045 0.135625 0.355988 0.711465
H1    H     H_    0.392299 0.464227 0.966143 0.171842
H2    H     H_    0.565459 0.332916 0.452994 0.109556
H3    H     H_    0.678626 0.990524 0.154844 0.154849
H4    H     H_    0.401393 0.980777 0.586986 0.130655
O13   O     O_3   0.191540 0.250000 0.407620 -0.376698
O14   O     O_3   0.808460 0.750000 0.592380 -0.371158
V1    V     V_3+5 0.262540 0.250000 0.108780 1.492898
V2    V     V_3+5 0.737460 0.750000 0.891220 1.483112
O15   O     O_R   0.154530 0.164290 0.756910 -0.550421
O16   O     O_R   0.845470 0.835710 0.243090 -0.547486
O17   O     O_R   0.845470 0.664290 0.243090 -0.549017
O18   O     O_R   0.154530 0.335710 0.756910 -0.549722
C5    C     C_R   0.133634 0.132310 0.932177 0.705840
C6    C     C_R   0.865675 0.868315 0.068340 0.706275
C7    C     C_R   0.867858 0.633448 0.067693 0.715928
C8    C     C_R   0.133222 0.367448 0.931350 0.715534
V3    V     V_3+5 0.240320 0.250000 0.616280 1.425755
V4    V     V_3+5 0.759680 0.750000 0.383720 1.430552
O19   O     O_3   0.311330 0.250000 0.867310 -0.369579
O20   O     O_3   0.688670 0.750000 0.132690 -0.368964
C9    C     C_3   0.070617 0.516809 0.091019 0.512373
C10   C     C_3   0.931660 0.485372 0.904274 0.514479
C11   C     C_3   0.931344 0.018671 0.904363 0.517333
C12   C     C_3   0.067481 0.983012 0.097691 0.513759
C13   C     C_3   0.041322 0.575548 0.933826 -0.284029
C14   C     C_3   0.960667 0.426539 0.061741 -0.284819
C15   C     C_3   0.960765 0.075861 0.063046 -0.275579
C16   C     C_3   0.038195 0.925581 0.939341 -0.277702
H5    H     H_    0.074372 0.636716 0.883236 0.114528
H6    H     H_    0.927206 0.365375 0.110970 0.113475
H7    H     H_    0.928840 0.137515 0.113033 0.117187
H8    H     H_    0.070317 0.863859 0.890614 0.113772
C17   C     C_3   0.939138 0.563451 0.032722 -0.106409
C18   C     C_3   0.063079 0.438484 0.963640 -0.105602
C19   C     C_3   0.063151 0.061808 0.968141 -0.107012
C20   C     C_3   0.935511 0.939568 0.033582 -0.111620
C21   C     C_3   0.969181 0.505515 0.191419 -0.263356
C22   C     C_3   0.033323 0.496572 0.804254 -0.259941
C23   C     C_3   0.033236 0.005161 0.808370 -0.265710
C24   C     C_3   0.965543 0.996245 0.193854 -0.264133
C25   C     C_2   0.562577 0.319434 0.606209 -0.159622
C26   C     C_2   0.417191 0.491580 0.824748 -0.299581
C27   C     C_2   0.421389 0.948016 0.450140 -0.348168
C28   C     C_2   0.653487 0.033031 0.274159 -0.199619
H9    H     H_    0.945885 0.511619 0.350226 0.140633
H10   H     H_    0.059358 0.491997 0.645855 0.141185
H11   H     H_    0.060544 0.009731 0.650563 0.143160
H12   H     H_    0.937849 0.992155 0.351673 0.143719
C29   C     C_2   0.525985 0.373506 0.745308 0.390611
C30   C     C_2   0.483162 0.454658 0.693545 0.292755
C31   C     C_2   0.500541 0.963553 0.325770 0.367314
C32   C     C_2   0.568322 0.026747 0.379111 0.286409
O21   O     O_3   0.515081 0.489880 0.509842 -0.590233
C33   C     C_3   0.455333 0.553155 0.454567 0.070021
H13   H     H_    0.454118 0.609974 0.549120 0.125349
H14   H     H_    0.383576 0.528391 0.463155 0.123473
C34   C     C_3   0.489602 0.579966 0.245579 -0.742281
H15   H     H_    0.498275 0.524079 0.149926 0.209660
H16   H     H_    0.437899 0.622039 0.194253 0.181591
H17   H     H_    0.557033 0.613339 0.233669 0.243107
O22   O     O_3   0.520800 0.348801 0.937923 -0.562238
C35   C     C_3   0.599096 0.379157 0.013046 0.052771
H18   H     H_    0.575056 0.401700 0.162858 0.162455
H19   H     H_    0.634493 0.434355 0.932150 0.126416
C36   C     C_3   0.668170 0.307648 0.026613 -0.734699
H20   H     H_    0.695845 0.283082 0.879684 0.213643
H21   H     H_    0.726913 0.331577 0.094440 0.194436
H22   H     H_    0.633818 0.255139 0.117601 0.231178
O23   O     O_3   0.540795 0.087194 0.520726 -0.566554
C37   C     C_3   0.560821 0.057592 0.700947 0.051248
H23   H     H_    0.635757 0.042645 0.693345 0.140948
H24   H     H_    0.519962 0.000278 0.748538 0.091446
C38   C     C_3   0.533755 0.124829 0.854870 -0.602920
H25   H     H_    0.460944 0.144980 0.854744 0.244264
H26   H     H_    0.540365 0.099334 0.000613 0.169908
H27   H     H_    0.580022 0.180195 0.824121 0.227165
O24   O     O_3   0.524341 0.920059 0.149458 -0.559835
C39   C     C_3   0.447520 0.884580 0.076831 0.149027
H28   H     H_    0.463096 0.884786 0.915851 0.099573
H29   H     H_    0.382402 0.922095 0.113747 0.125064
C40   C     C_3   0.434052 0.792467 0.139958 -0.743971
H30   H     H_    0.420551 0.786807 0.301007 0.220215
H31   H     H_    0.374427 0.765184 0.080428 0.168671
H32   H     H_    0.497743 0.756149 0.082510 0.235548
O25   O     O_3   0.146632 0.530582 0.189199 -0.556717
C41   C     C_3   0.133529 0.607570 0.293077 0.091533
H33   H     H_    0.066562 0.608187 0.395471 0.116484
H34   H     H_    0.135501 0.662355 0.191304 0.109741
C42   C     C_3   0.211001 0.618479 0.412560 -0.741087
H35   H     H_    0.278132 0.625512 0.313838 0.217901
H36   H     H_    0.198345 0.676013 0.504157 0.177075
H37   H     H_    0.214097 0.562618 0.508878 0.220019
O26   O     O_3   0.855257 0.473446 0.806056 -0.557112
C43   C     C_3   0.868717 0.399644 0.690671 0.072510
H38   H     H_    0.860281 0.342183 0.784843 0.116413
H39   H     H_    0.938441 0.397855 0.598446 0.117048
C44   C     C_3   0.796959 0.397643 0.554497 -0.708742
H40   H     H_    0.801548 0.455583 0.462858 0.222722
H41   H     H_    0.808156 0.341273 0.458691 0.172428
H42   H     H_    0.726460 0.395007 0.639781 0.223083
O27   O     O_3   0.858252 0.038119 0.800765 -0.558875
C45   C     C_3   0.879880 0.114317 0.694947 0.069529
H43   H     H_    0.946678 0.108882 0.593061 0.122630
H44   H     H_    0.884030 0.168592 0.794892 0.109984
C46   C     C_3   0.805139 0.134233 0.573158 -0.706419
H45   H     H_    0.740603 0.153895 0.669041 0.220634
H46   H     H_    0.828261 0.187017 0.471067 0.171582
H47   H     H_    0.791782 0.077763 0.487440 0.232759
O28   O     O_3   0.141805 0.966314 0.199541 -0.559325
C47   C     C_3   0.122634 0.891686 0.311797 0.076813
H48   H     H_    0.122139 0.835427 0.215943 0.109251
H49   H     H_    0.054809 0.895857 0.410604 0.121328
C48   C     C_3   0.197040 0.878601 0.438659 -0.720147
H50   H     H_    0.207801 0.937747 0.518044 0.229778
H51   H     H_    0.175664 0.827507 0.546475 0.168951
H52   H     H_    0.263016 0.859922 0.346993 0.227645

loop_
_geom_bond_atom_site_label_1
_geom_bond_atom_site_label_2
_ccdc_geom_bond_type
O24   C39   S    
O12   C5    A    
C41   H33   S    
C34   H15   S    
O5    V1    S    
C35   C36   S    
C36   H22   S    
C36   H20   S    
O1    V3    S    
C10   C17   S    
C19   C23   S    
O22   C35   S    
C42   H36   S    
O12   V1    S    
O25   C41   S    
C10   C14   S    
C14   C21   S    
O23   C37   S    
C35   H19   S    
C30   O21   S    
O13   V3    S    
O7    V2    S    
O11   V2    S    
O8    V1    S    
C27   C31   D    
C41   C42   S    
C14   H6    S    
O4    C1    A    
C43   H38   S    
C46   H47   S    
C38   H27   S    
O9    C8    A    
C40   H31   S    
C45   H43   S    
C21   H9    S    
O10   C7    A    
C26   C30   D    
C11   C23   S    
O11   C6    A    
C12   C24   S    
C23   H11   S    
C24   H12   S    
C33   H13   S    
C38   H26   S    
O5    C1    A    
H1    C26   S    
C44   H42   S    
C9    C21   S    
C16   C20   S    
O7    C3    A    
C11   C20   S    
O8    C4    A    
C32   O23   S    
C34   H16   S    
O21   C33   S    
C7    C17   S    
C13   C17   S    
C36   H21   S    
O16   V4    S    
C40   H30   S    
C45   H44   S    
O17   V4    S    
O15   C5    A    
O14   V4    S    
C42   H37   S    
C29   O22   S    
C37   H24   S    
O17   C7    A    
C31   C32   S    
O18   C8    A    
C37   H23   S    
O9    V1    S    
C11   C15   S    
C22   H10   S    
C39   C40   S    
O10   V2    S    
C11   O27   S    
C10   O26   S    
C45   C46   S    
C41   H34   S    
O6    C2    A    
H2    C25   S    
C10   C22   S    
O6    V2    S    
C33   C34   S    
O1    C4    A    
C18   C22   S    
H4    C27   S    
C39   H29   S    
O2    C3    A    
C43   C44   S    
C8    C18   S    
C46   H45   S    
O3    C2    A    
C14   C18   S    
O18   V3    S    
O16   C6    A    
V1    O19   S    
O13   V1    S    
O28   C47   S    
C34   H17   S    
O14   V2    S    
C40   H32   S    
C44   H40   S    
C5    C19   S    
C6    C20   S    
O4    V3    S    
C47   H49   S    
O2    V4    S    
C35   H18   S    
C25   C29   D    
C37   C38   S    
H3    C28   S    
C12   C19   S    
C42   H35   S    
C47   C48   S    
V2    O20   S    
C48   H52   S    
C48   H50   S    
O26   C43   S    
C9    O25   S    
C9    C18   S    
C16   C23   S    
C15   C19   S    
C47   H48   S    
C17   C21   S    
C12   O28   S    
V3    O19   S    
V4    O20   S    
C9    C13   S    
C39   H28   S    
C43   H39   S    
C13   C22   S    
C46   H46   S    
C20   C24   S    
C15   C24   S    
C12   C16   S    
O3    V4    S    
C28   C32   D    
C29   C30   S    
C31   O24   S    
C13   H5    S    
C33   H14   S    
C48   H51   S    
C38   H25   S    
O27   C45   S    
C15   H7    S    
C16   H8    S    
O15   V3    S    
C44   H41   S    
