data_mof_unit_44515.cif
_audit_creation_date              2012-12-10T16:56:37-0500
_audit_creation_method            fapswitch 2.2
_symmetry_space_group_name_H-M    P1
_symmetry_Int_Tables_number       1
_space_group_crystal_system       triclinic
_cell_length_a                    10.748924
_cell_length_b                    10.892298
_cell_length_c                    9.721769
_cell_angle_alpha                 90.327393
_cell_angle_beta                  88.830353
_cell_angle_gamma                 90.410661
_cell_volume                      1137.94537298

loop_
_atom_site_label
_atom_site_type_symbol
_atom_type_description
_atom_site_fract_x
_atom_site_fract_y
_atom_site_fract_z
_atom_type_partial_charge
C1    C     C_R   0.508818 0.265563 0.499064 0.833231
C2    C     C_3   0.878336 0.509058 0.497636 -0.007912
C3    C     C_3   0.930539 0.625932 0.575056 -0.205550
C4    C     C_3   0.932072 0.514545 0.347113 1.036688
C5    C     C_2   0.557704 0.928513 0.400034 -0.197936
C6    C     C_2   0.500691 0.866915 0.502165 -0.348739
C7    C     C_2   0.554603 0.063122 0.387598 0.041716
C8    C     C_2   0.528054 0.133496 0.499728 -0.388570
C9    C     C_2   0.427500 0.430419 0.927348 0.056087
C10   C     C_2   0.447947 0.415490 0.078787 -0.079237
C11   C     C_R   0.260071 0.502355 0.500432 0.805273
C12   C     C_R   0.500563 0.734581 0.500565 0.850008
C13   C     C_R   0.739995 0.505284 0.498892 0.796927
C14   C     C_3   0.068816 0.386516 0.561208 -0.403173
C15   C     C_3   0.925782 0.388476 0.562593 -0.454147
C16   C     C_3   0.074260 0.617272 0.584734 -0.430348
C17   C     C_3   0.075019 0.518032 0.349246 -0.404038
C18   C     C_3   0.122289 0.506215 0.499184 0.008426
Cu1   Cu    Cu3+1 0.500030 0.500020 0.638630 0.937970
Cu2   Cu    Cu3+1 0.499970 0.499980 0.361370 0.964607
H1    H     H_    0.101698 0.376312 0.667166 0.215726
H2    H     H_    0.117759 0.703522 0.545078 0.152334
H3    H     H_    0.913149 0.705629 0.507009 0.164461
H4    H     H_    0.604386 0.877510 0.317605 0.172213
H5    H     H_    0.452147 0.911441 0.587206 0.138889
H6    H     H_    0.521551 0.092769 0.600992 0.132862
H7    H     H_    0.576327 0.536170 0.890910 0.205667
H8    H     H_    0.406841 0.336319 0.130168 0.176262
H9    H     H_    0.102757 0.305850 0.500833 0.177120
H10   H     H_    0.526833 0.578213 0.104835 0.192906
H11   H     H_    0.891117 0.307803 0.503541 0.189280
H12   H     H_    0.888505 0.376127 0.668796 0.182820
H13   H     H_    0.104223 0.608241 0.692978 0.195179
H14   H     H_    0.110007 0.605515 0.303487 0.172633
H15   H     H_    0.112339 0.441915 0.283809 0.185181
N1    N     N_2   0.498630 0.498660 0.846910 -0.305380
N2    N     N_2   0.498590 0.498630 0.153040 -0.288319
O1    O     O_R   0.500020 0.321960 0.617040 -0.590786
O2    O     O_R   0.499980 0.321920 0.382900 -0.566005
O3    O     O_R   0.317710 0.500000 0.617070 -0.573816
O4    O     O_R   0.317670 0.499960 0.382930 -0.587175
O5    O     O_R   0.500020 0.678080 0.617100 -0.576760
O6    O     O_R   0.499980 0.678040 0.382960 -0.577641
O7    O     O_R   0.682330 0.500040 0.617070 -0.588384
O8    O     O_R   0.682290 0.500000 0.382930 -0.513162
F1    F     F_    0.889895 0.618533 0.281293 -0.721329
C19   C     C_R   0.586157 0.111840 0.248160 0.117621
C20   C     C_R   0.685435 0.195014 0.227690 -0.043363
C21   C     C_R   0.721568 0.230328 0.094373 -0.097710
C22   C     C_R   0.662066 0.179936 0.980626 -0.161341
C23   C     C_R   0.565859 0.094627 0.999910 -0.165061
C24   C     C_R   0.526964 0.061846 0.132658 -0.168941
H16   H     H_    0.735420 0.231067 0.314769 0.152513
H17   H     H_    0.797060 0.295076 0.078585 0.177509
H18   H     H_    0.691372 0.205993 0.877594 0.133160
H19   H     H_    0.522211 0.052457 0.912043 0.118281
H20   H     H_    0.452526 0.995061 0.145405 0.138909
C25   C     C_R   0.315711 0.363642 0.880436 0.203728
C26   C     C_R   0.326178 0.243310 0.829087 -0.122039
C27   C     C_R   0.221762 0.166424 0.821883 -0.184661
C28   C     C_R   0.106819 0.206187 0.873860 -0.118649
C29   C     C_R   0.095948 0.323715 0.930676 -0.172325
C30   C     C_R   0.198963 0.403027 0.931343 -0.205166
H21   H     H_    0.415997 0.205808 0.802831 0.137985
H22   H     H_    0.231261 0.074001 0.781721 0.131868
H23   H     H_    0.026755 0.145396 0.872161 0.137234
H24   H     H_    0.008018 0.352843 0.975440 0.153078
H25   H     H_    0.189686 0.492338 0.979986 0.139772
C31   C     C_R   0.868438 0.657477 0.713321 0.169634
C32   C     C_R   0.886719 0.585944 0.830996 -0.149560
C33   C     C_R   0.826824 0.614958 0.955581 -0.128778
C34   C     C_R   0.750126 0.717667 0.965665 -0.114351
C35   C     C_R   0.731734 0.790346 0.850134 -0.131087
C36   C     C_R   0.790211 0.760576 0.724677 -0.131680
H26   H     H_    0.948357 0.508628 0.827234 0.126822
H27   H     H_    0.839707 0.557061 0.043861 0.222223
H28   H     H_    0.704273 0.740363 0.062580 0.151186
H29   H     H_    0.671595 0.869423 0.857430 0.130234
H30   H     H_    0.773531 0.817723 0.636235 0.111836
F2    F     F_    0.894690 0.412589 0.272384 -0.734943

loop_
_geom_bond_atom_site_label_1
_geom_bond_atom_site_label_2
_ccdc_geom_bond_type
C11   C18   S    
C1    C8    S    
C8    H6    S    
C35   C36   A    
C14   C18   S    
C3    H3    S    
Cu1   Cu2   S    
Cu2   O4    S    
C15   H12   S    
C4    F1    S    
C26   H21   S    
C34   H28   S    
C29   H24   S    
C10   N2    D    
C14   H1    S    
C3    C31   S    
C4    F2    S    
C12   O6    A    
Cu1   N1    S    
C6    C12   S    
C5    C6    D    
C6    H5    S    
C21   H17   S    
C23   H19   S    
C2    C13   S    
C12   O5    A    
C28   H23   S    
C9    N1    D    
C35   H29   S    
C32   C33   A    
C9    C10   S    
Cu2   O8    S    
Cu1   O5    S    
C26   C27   A    
C11   O3    A    
C22   C23   A    
C20   H16   S    
C23   C24   A    
C7    C8    D    
C24   H20   S    
C5    C7    S    
Cu2   O2    S    
C25   C26   A    
H10   N2    S    
C27   C28   A    
C7    C19   S    
C2    C4    S    
C29   C30   A    
Cu1   O1    S    
C16   H13   S    
C19   C20   A    
C17   C18   S    
C31   C36   A    
C2    C15   S    
C1    O1    A    
C4    C17   S    
C20   C21   A    
C27   H22   S    
C36   H30   S    
C17   H14   S    
C14   H9    S    
Cu2   O6    S    
Cu1   O7    S    
C10   H8    S    
C25   C30   A    
C30   H25   S    
C9    C25   S    
C16   H2    S    
C34   C35   A    
C15   H11   S    
C19   C24   A    
H7    N1    S    
C22   H18   S    
C2    C3    S    
C33   C34   A    
C13   O8    A    
Cu2   N2    S    
C33   H27   S    
C5    H4    S    
C11   O4    A    
C28   C29   A    
C31   C32   A    
Cu1   O3    S    
C1    O2    A    
C16   C18   S    
C21   C22   A    
C32   H26   S    
C14   C15   S    
C17   H15   S    
C13   O7    A    
C3    C16   S    
