data_mof_unit_37440.cif
_audit_creation_date              2012-12-10T17:43:56-0500
_audit_creation_method            fapswitch 2.2
_symmetry_space_group_name_H-M    P1
_symmetry_Int_Tables_number       1
_space_group_crystal_system       triclinic
_cell_length_a                    15.858522
_cell_length_b                    15.00511
_cell_length_c                    13.708784
_cell_angle_alpha                 90.11149
_cell_angle_beta                  90.299236
_cell_angle_gamma                 89.51885
_cell_volume                      3261.96129814

loop_
_atom_site_label
_atom_site_type_symbol
_atom_type_description
_atom_site_fract_x
_atom_site_fract_y
_atom_site_fract_z
_atom_type_partial_charge
C1    C     C_R   0.496297 0.329059 0.500028 0.852140
C2    C     C_R   0.502180 0.671012 0.500163 0.836456
C3    C     C_R   0.504308 0.767242 0.501202 -0.168677
C4    C     C_R   0.494303 0.232815 0.500392 -0.168521
C5    C     C_R   0.580120 0.813600 0.486458 0.439086
C6    C     C_R   0.420419 0.186674 0.525115 0.435139
C7    C     C_R   0.577649 0.907573 0.478813 -0.056254
C8    C     C_R   0.420257 0.092464 0.519840 -0.055795
C9    C     C_R   0.500538 0.953175 0.498492 -0.051310
C10   C     C_R   0.497051 0.046829 0.498539 -0.048411
C11   C     C_R   0.426404 0.905034 0.516805 0.087348
C12   C     C_R   0.570226 0.094873 0.475504 0.087634
C13   C     C_R   0.650140 0.956923 0.453152 0.464066
C14   C     C_R   0.345832 0.042868 0.535940 0.460747
C15   C     C_R   0.644730 0.050288 0.450621 -0.310510
C16   C     C_R   0.349980 0.949486 0.532315 -0.309514
C17   C     C_R   0.551153 0.442121 0.793541 0.016404
C18   C     C_R   0.448366 0.557382 0.206400 0.040437
C19   C     C_R   0.448132 0.557543 0.792706 0.007385
C20   C     C_R   0.551585 0.442155 0.207254 0.025577
C21   C     C_R   0.446198 0.559460 0.896183 -0.008946
C22   C     C_R   0.553048 0.439751 0.103743 -0.007550
C23   C     C_R   0.339748 0.500031 0.499806 0.830124
C24   C     C_R   0.660274 0.499773 0.500255 0.820539
C25   C     C_R   0.499279 0.499811 0.948150 0.036972
C26   C     C_R   0.499861 0.499287 0.051766 0.038742
C27   C     C_R   0.551959 0.440642 0.896377 -0.041130
C28   C     C_R   0.447183 0.558465 0.103538 -0.039114
C29   C     C_R   0.393251 0.618839 0.949104 0.188474
C30   C     C_R   0.605665 0.380045 0.050795 0.186904
C31   C     C_R   0.394431 0.617510 0.051990 -0.194979
C32   C     C_R   0.604386 0.381282 0.947903 -0.196928
C33   C     C_3   0.972802 0.460095 0.582848 -0.205730
C34   C     C_3   0.027304 0.541439 0.419667 -0.195735
C35   C     C_3   0.028245 0.417294 0.502973 0.218736
C36   C     C_3   0.971910 0.584251 0.499579 0.235989
C37   C     C_1   0.250138 0.500187 0.499605 -0.172892
C38   C     C_1   0.749919 0.500234 0.500938 -0.186016
C39   C     C_3   0.028774 0.544663 0.580601 -0.204270
C40   C     C_3   0.971415 0.456835 0.421918 -0.197385
C41   C     C_3   0.083031 0.500752 0.500714 0.139534
C42   C     C_3   0.917079 0.500791 0.501765 0.143268
C43   C     C_1   0.174635 0.500450 0.499990 -0.052054
C44   C     C_1   0.825440 0.500614 0.501531 -0.055722
C45   C     C_R   0.428694 0.812501 0.516595 -0.295836
C46   C     C_R   0.567803 0.187404 0.475045 -0.297879
Cu1   Cu    Cu3+1 0.500010 0.499990 0.597420 0.917740
Cu2   Cu    Cu3+1 0.499990 0.500010 0.402580 0.963420
H1    H     H_    0.353984 0.662917 0.092268 0.138377
H2    H     H_    0.644653 0.335711 0.907608 0.136273
H3    H     H_    0.949560 0.426143 0.649248 0.140105
H4    H     H_    0.050534 0.575409 0.353272 0.142431
H5    H     H_    0.947018 0.420178 0.357404 0.142215
H6    H     H_    0.053213 0.581294 0.645113 0.139949
H7    H     H_    0.371384 0.775076 0.528609 0.144331
H8    H     H_    0.623750 0.224737 0.456208 0.145783
H9    H     H_    0.698700 0.088493 0.427653 0.145653
H10   H     H_    0.292876 0.911197 0.540617 0.146039
H11   H     H_    0.591389 0.396969 0.752859 0.131327
H12   H     H_    0.408005 0.602434 0.247054 0.126244
H13   H     H_    0.408525 0.601908 0.750216 0.148174
H14   H     H_    0.591317 0.397894 0.249726 0.143092
N1    N     N_R   0.499960 0.499930 0.743810 -0.190975
N2    N     N_R   0.500040 0.500070 0.256190 -0.188056
O1    O     O_R   0.500020 0.370250 0.582280 -0.604902
O2    O     O_R   0.499980 0.629750 0.417720 -0.565454
O3    O     O_R   0.500010 0.370270 0.417740 -0.577326
O4    O     O_R   0.499990 0.629730 0.582260 -0.601802
O5    O     O_R   0.379080 0.499980 0.582260 -0.599698
O6    O     O_R   0.620920 0.500020 0.417740 -0.569184
O7    O     O_R   0.379070 0.500000 0.417710 -0.574469
O8    O     O_R   0.620930 0.500000 0.582290 -0.591095
C47   C     C_3   0.061369 0.321889 0.505097 -0.853125
H15   H     H_    0.007656 0.274988 0.506662 0.225185
H16   H     H_    0.099781 0.308716 0.439108 0.248561
H17   H     H_    0.101121 0.311634 0.571076 0.234179
C48   C     C_3   0.939423 0.679885 0.498162 -0.896918
H18   H     H_    0.993310 0.726266 0.492530 0.232414
H19   H     H_    0.896634 0.689821 0.434719 0.249324
H20   H     H_    0.904612 0.694153 0.566487 0.224944
C49   C     C_3   0.335337 0.683957 0.897810 -0.905273
H21   H     H_    0.372852 0.729700 0.851933 0.232224
H22   H     H_    0.289831 0.647256 0.851194 0.228100
H23   H     H_    0.298656 0.725144 0.950256 0.236429
C50   C     C_3   0.663401 0.314742 0.102065 -0.900157
H24   H     H_    0.625786 0.269326 0.148220 0.234736
H25   H     H_    0.699728 0.273224 0.049601 0.235369
H26   H     H_    0.709219 0.351302 0.148399 0.229971
O9    O     O_3   0.656268 0.768218 0.476303 -0.575613
C51   C     C_3   0.686008 0.733894 0.566900 0.054897
H27   H     H_    0.749654 0.705323 0.553422 0.174342
H28   H     H_    0.647290 0.677656 0.591898 0.158278
C52   C     C_3   0.693539 0.803670 0.649172 -0.410527
H29   H     H_    0.730262 0.861578 0.624073 0.215904
H30   H     H_    0.629853 0.827548 0.671037 0.210445
C53   C     C_3   0.737034 0.763871 0.738781 -0.888636
H31   H     H_    0.700763 0.706221 0.766411 0.263813
H32   H     H_    0.740777 0.815010 0.797262 0.257173
H33   H     H_    0.802037 0.741596 0.720435 0.248934
O10   O     O_3   0.346387 0.232911 0.545782 -0.584638
C54   C     C_3   0.342554 0.265639 0.643399 0.077825
H34   H     H_    0.274732 0.269375 0.662930 0.159941
H35   H     H_    0.364384 0.335322 0.646046 0.184325
C55   C     C_3   0.388199 0.209809 0.722768 -0.429207
H36   H     H_    0.365485 0.140064 0.720920 0.212823
H37   H     H_    0.457363 0.209599 0.710129 0.216940
C56   C     C_3   0.372379 0.248588 0.824107 -0.884341
H38   H     H_    0.395211 0.318313 0.828168 0.263788
H39   H     H_    0.406779 0.208265 0.879534 0.260237
H40   H     H_    0.303994 0.247454 0.841121 0.248730
O11   O     O_3   0.721022 0.913080 0.416766 -0.557061
C57   C     C_3   0.796836 0.941557 0.461948 0.061231
H41   H     H_    0.828554 0.881697 0.493222 0.173163
H42   H     H_    0.787829 0.989351 0.523601 0.103770
C58   C     C_3   0.855355 0.981360 0.385408 -0.327768
H43   H     H_    0.866667 0.931518 0.326713 0.234197
H44   H     H_    0.825241 0.041116 0.352089 0.209685
C59   C     C_3   0.939841 0.007732 0.430310 -0.944289
H45   H     H_    0.930288 0.058139 0.488772 0.257112
H46   H     H_    0.980646 0.036854 0.373260 0.262667
H47   H     H_    0.972360 0.948288 0.461359 0.259023
O12   O     O_3   0.268188 0.086286 0.541858 -0.560238
C60   C     C_3   0.220380 0.058245 0.623174 0.061118
H48   H     H_    0.206887 0.117881 0.668793 0.160690
H49   H     H_    0.253274 0.009477 0.671915 0.110405
C61   C     C_3   0.136380 0.020304 0.587592 -0.334699
H50   H     H_    0.102243 0.071699 0.544010 0.237389
H51   H     H_    0.148100 0.961608 0.539920 0.212040
C62   C     C_3   0.081120 0.992294 0.672820 -0.941345
H52   H     H_    0.113411 0.939785 0.716525 0.258260
H53   H     H_    0.020758 0.965241 0.644602 0.257400
H54   H     H_    0.066960 0.050511 0.720342 0.257121

loop_
_geom_bond_atom_site_label_1
_geom_bond_atom_site_label_2
_ccdc_geom_bond_type
C20   N2    A    
C52   H29   S    
C14   O12   S    
C56   H39   S    
C47   H15   S    
C23   O5    A    
C36   C42   S    
O11   C57   S    
C55   H37   S    
C49   H21   S    
C24   O6    A    
C60   H48   S    
C39   C41   S    
C4    C46   A    
C48   H18   S    
C38   C44   T    
C33   C39   S    
C36   C39   S    
C34   C40   S    
C33   C42   S    
C19   C21   A    
C2    O4    A    
C36   C48   S    
Cu1   N1    S    
Cu2   N2    S    
C39   H6    S    
C58   H43   S    
C53   H33   S    
C59   H45   S    
C57   H41   S    
C1    O3    A    
C51   H28   S    
Cu1   O5    S    
C19   N1    A    
C58   H44   S    
C53   H32   S    
C15   H9    S    
C1    O1    A    
C56   H38   S    
C9    C10   A    
C62   H54   S    
C40   C42   S    
C54   H35   S    
C41   C43   S    
C34   C41   S    
C42   C44   S    
C31   H1    S    
C57   H42   S    
C55   H36   S    
C49   H22   S    
C48   H19   S    
C50   H25   S    
C17   C27   A    
C54   H34   S    
C23   O7    A    
C18   C28   A    
C12   C46   A    
C5    C7    A    
C60   C61   S    
C6    C8    A    
C61   C62   S    
C3    C5    A    
C25   C26   A    
C50   H24   S    
C21   C29   A    
C3    C45   A    
C59   H47   S    
C6    O10   S    
C37   C43   T    
C29   C49   S    
C11   C16   A    
C24   C38   S    
Cu1   Cu2   S    
C12   C15   A    
C58   C59   S    
C53   H31   S    
C16   H10   S    
C30   C50   S    
C61   H51   S    
C9    C11   A    
C32   H2    S    
C10   C12   A    
C17   H11   S    
C4    C6    A    
C20   C22   A    
C52   C53   S    
C13   C15   A    
C56   H40   S    
C14   C16   A    
C11   C45   A    
C33   H3    S    
C47   H16   S    
Cu2   O7    S    
Cu1   O4    S    
C49   H23   S    
C24   O8    A    
C51   C52   S    
C62   H52   S    
C50   H26   S    
C18   H12   S    
C7    C9    A    
C21   C25   A    
C35   C47   S    
C8    C14   A    
C22   C30   A    
C27   C32   A    
C34   H4    S    
C28   C31   A    
Cu2   O6    S    
C2    O2    A    
C25   C27   A    
C26   C28   A    
C1    C4    S    
C2    C3    S    
O12   C60   S    
C29   C31   A    
C23   C37   S    
C17   N1    A    
C30   C32   A    
C48   H20   S    
C18   N2    A    
C51   H27   S    
C52   H30   S    
C19   H13   S    
C61   H50   S    
C13   O11   S    
O10   C54   S    
C33   C35   S    
C35   C40   S    
C34   C36   S    
C55   C56   S    
Cu2   O3    S    
C20   H14   S    
C35   C41   S    
C59   H46   S    
Cu1   O8    S    
C60   H49   S    
C7    C13   A    
C47   H17   S    
C45   H7    S    
C8    C10   A    
C40   H5    S    
C22   C26   A    
C46   H8    S    
C54   C55   S    
Cu2   O2    S    
O9    C51   S    
Cu1   O1    S    
C57   C58   S    
C5    O9    S    
C62   H53   S    
