data_mof_unit_28141.cif
_audit_creation_date              2012-12-10T19:07:04-0500
_audit_creation_method            fapswitch 2.2
_symmetry_space_group_name_H-M    P1
_symmetry_Int_Tables_number       1
_space_group_crystal_system       triclinic
_cell_length_a                    27.813857
_cell_length_b                    10.853561
_cell_length_c                    9.536654
_cell_angle_alpha                 90.01943
_cell_angle_beta                  89.841704
_cell_angle_gamma                 90.142877
_cell_volume                      2878.89922908

loop_
_atom_site_label
_atom_site_type_symbol
_atom_type_description
_atom_site_fract_x
_atom_site_fract_y
_atom_site_fract_z
_atom_type_partial_charge
C1    C     C_R   0.500139 0.262686 0.499831 0.810288
C2    C     C_R   0.278698 0.489376 0.375265 -0.102452
C3    C     C_R   0.253610 0.495604 0.502530 0.358152
C4    C     C_R   0.101862 0.491482 0.506345 -0.094032
C5    C     C_R   0.127484 0.381900 0.476778 -0.062206
C6    C     C_R   0.101485 0.272591 0.448922 0.269333
C7    C     C_R   0.127491 0.600828 0.535384 0.000308
C8    C     C_R   0.354486 0.498755 0.500821 -0.038905
C9    C     C_R   0.645388 0.499518 0.501069 -0.036092
C10   C     C_R   0.973901 0.381132 0.491081 0.059762
C11   C     C_R   0.974675 0.606789 0.522621 0.040949
C12   C     C_R   0.407450 0.499759 0.500177 0.800341
C13   C     C_R   0.949028 0.494433 0.506734 0.067709
C14   C     C_R   0.946572 0.270968 0.485409 -0.207684
C15   C     C_R   0.896642 0.272834 0.487882 -0.147487
C16   C     C_R   0.871886 0.384299 0.496737 -0.020492
C17   C     C_R   0.897913 0.495398 0.506535 -0.046393
C18   C     C_R   0.872707 0.607474 0.516100 -0.019461
C19   C     C_R   0.822231 0.606404 0.515034 0.533828
C20   C     C_R   0.821423 0.387294 0.496736 0.534991
C21   C     C_R   0.720369 0.456174 0.620968 -0.099415
C22   C     C_R   0.670239 0.457100 0.619680 -0.218074
C23   C     C_R   0.500264 0.737311 0.499853 0.811486
C24   C     C_R   0.671529 0.541952 0.384482 -0.218177
C25   C     C_R   0.721655 0.541474 0.386158 -0.098402
C26   C     C_R   0.746214 0.498323 0.504222 0.355411
C27   C     C_R   0.024982 0.381406 0.482949 0.007309
C28   C     C_R   0.050678 0.492397 0.506746 0.065265
C29   C     C_R   0.025677 0.604676 0.530663 0.056876
C30   C     C_R   0.051295 0.274045 0.450504 -0.270788
C31   C     C_R   0.102526 0.709105 0.565517 -0.152169
C32   C     C_R   0.948209 0.717942 0.528710 -0.208968
C33   C     C_R   0.898282 0.717982 0.525675 -0.144790
C34   C     C_R   0.592508 0.500063 0.500045 0.800546
C35   C     C_R   0.052715 0.711284 0.563276 -0.209466
C36   C     C_R   0.498441 0.062043 0.620968 0.136348
C37   C     C_R   0.500922 0.130093 0.498139 -0.103703
C38   C     C_R   0.504269 0.064577 0.370547 -0.209966
C39   C     C_R   0.504380 0.935362 0.370594 -0.211364
C40   C     C_R   0.501119 0.869909 0.498239 -0.104640
C41   C     C_R   0.498600 0.938043 0.621054 0.134837
C42   C     C_3   0.493286 0.929230 0.776243 -0.466485
C43   C     C_3   0.493069 0.071124 0.776086 -0.473828
C44   C     C_R   0.522824 0.591659 0.073468 0.258568
C45   C     C_R   0.178354 0.386549 0.474067 0.544956
C46   C     C_R   0.473637 0.416646 0.074641 -0.079805
C47   C     C_R   0.473631 0.416657 0.925685 -0.080946
C48   C     C_R   0.522765 0.591783 0.925967 0.254456
C49   C     C_3   0.574932 0.622953 0.919324 -0.489187
C50   C     C_3   0.575079 0.621855 0.078232 -0.513911
C51   C     C_R   0.177840 0.599773 0.534277 0.531017
C52   C     C_R   0.278911 0.503505 0.628893 -0.107704
C53   C     C_R   0.329033 0.504897 0.628230 -0.217251
C54   C     C_R   0.328840 0.491094 0.374239 -0.215534
Cu1   Cu    Cu3+1 0.500000 0.499980 0.640670 0.943441
Cu2   Cu    Cu3+1 0.500000 0.500020 0.359330 0.945564
H1    H     H_    0.347458 0.486072 0.274522 0.157363
H2    H     H_    0.259657 0.508157 0.727594 0.137557
H3    H     H_    0.121462 0.793446 0.591068 0.174963
H4    H     H_    0.964986 0.807398 0.532558 0.135250
H5    H     H_    0.653357 0.577314 0.293103 0.147360
H6    H     H_    0.879776 0.805605 0.530823 0.186513
H7    H     H_    0.741474 0.574540 0.295752 0.141521
H8    H     H_    0.036484 0.797961 0.590930 0.133725
H9    H     H_    0.506597 0.112365 0.271059 0.166787
H10   H     H_    0.506793 0.887517 0.271129 0.165074
H11   H     H_    0.458314 0.887783 0.807836 0.203612
H12   H     H_    0.259275 0.483461 0.277234 0.138537
H13   H     H_    0.525532 0.889041 0.827025 0.194032
H14   H     H_    0.457925 0.111302 0.807423 0.193519
H15   H     H_    0.525171 0.112852 0.826717 0.204763
H16   H     H_    0.453040 0.347715 0.130672 0.139394
H17   H     H_    0.452990 0.347853 0.869926 0.137152
H18   H     H_    0.597056 0.548009 0.873319 0.218256
H19   H     H_    0.581503 0.715794 0.874065 0.192323
H20   H     H_    0.596757 0.545035 0.121300 0.217030
H21   H     H_    0.582050 0.713853 0.125338 0.194654
H22   H     H_    0.650955 0.423372 0.710737 0.149567
H23   H     H_    0.739186 0.422898 0.712653 0.141214
H24   H     H_    0.877480 0.185908 0.482845 0.187671
H25   H     H_    0.962593 0.180800 0.482374 0.136250
H26   H     H_    0.033915 0.188525 0.423615 0.138184
H27   H     H_    0.347784 0.510860 0.727382 0.158198
N1    N     N_R   0.202054 0.493937 0.503588 -0.474181
N2    N     N_R   0.797746 0.497315 0.505509 -0.469644
N3    N     N_R   0.500300 0.500930 0.147930 -0.184325
N4    N     N_R   0.500310 0.500890 0.852020 -0.185153
O1    O     O_R   0.500000 0.319640 0.618810 -0.582797
O2    O     O_2   0.796187 0.281281 0.486853 -0.532659
O3    O     O_2   0.202540 0.704138 0.562212 -0.543989
O4    O     O_2   0.797774 0.713356 0.524438 -0.533354
O5    O     O_R   0.500010 0.319680 0.381230 -0.588554
O6    O     O_R   0.430260 0.500000 0.618780 -0.585721
O7    O     O_R   0.430270 0.500040 0.381190 -0.583592
O8    O     O_R   0.499990 0.680320 0.618770 -0.578678
O9    O     O_R   0.500000 0.680360 0.381190 -0.585809
O10   O     O_R   0.569730 0.499960 0.618810 -0.585617
O11   O     O_R   0.569740 0.500000 0.381220 -0.581383
O12   O     O_2   0.204208 0.285279 0.442382 -0.501445
N5    N     N_2   0.125179 0.159504 0.418663 -0.373447
H28   H     H_    0.109649 0.110782 0.337564 0.243768
C55   C     C_3   0.133074 0.082810 0.540453 -0.588568
H29   H     H_    0.154998 0.001708 0.510016 0.241867
H30   H     H_    0.098161 0.049976 0.583688 0.183997
H31   H     H_    0.152826 0.134786 0.622654 0.246850

loop_
_geom_bond_atom_site_label_1
_geom_bond_atom_site_label_2
_ccdc_geom_bond_type
C10   C27   A    
Cu1   Cu2   S    
C24   H5    S    
C41   C42   S    
Cu1   O10   S    
Cu2   O11   S    
C21   C26   A    
Cu2   O7    S    
C28   C29   A    
C36   C37   A    
C2    H12   S    
C51   O3    S    
C5    C6    A    
C9    C22   A    
C42   H11   S    
C23   C40   S    
C34   O10   A    
C23   O9    A    
C55   H31   S    
C18   C19   A    
C25   H7    S    
C31   H3    S    
Cu1   O1    S    
C33   H6    S    
C49   H19   S    
C35   H8    S    
C46   H16   S    
C16   C20   A    
C1    O1    A    
C21   C22   A    
C27   C30   A    
C12   O7    A    
C36   C41   A    
C4    C7    A    
C44   N3    A    
C4    C28   A    
C7    C31   A    
C24   C25   A    
C22   H22   S    
Cu1   O8    S    
C45   O12   S    
C8    C54   A    
C39   C40   A    
C16   C17   A    
C25   C26   A    
C5    C45   A    
C42   H13   S    
C6    N5    S    
C30   H26   S    
C37   C38   A    
C50   H20   S    
Cu2   N3    S    
C15   H24   S    
C38   H9    S    
C8    C12   S    
C20   N2    A    
C21   H23   S    
N5    C55   S    
C17   C18   A    
C48   N4    A    
C55   H30   S    
C47   H17   S    
C52   H2    S    
C48   C49   S    
C6    C30   A    
C11   C32   A    
C43   H14   S    
C2    C54   A    
C9    C34   S    
C39   H10   S    
C31   C35   A    
C12   O6    A    
C45   N1    A    
C42   C43   S    
C32   H4    S    
C50   H21   S    
C3    N1    S    
C52   C53   A    
C44   C50   S    
Cu2   O9    S    
C46   C47   A    
C40   C41   A    
C43   H15   S    
C14   C15   A    
C4    C5    A    
C19   N2    A    
C10   C13   A    
C8    C53   A    
C3    C52   A    
C9    C24   A    
C1    C37   S    
C1    O5    A    
C20   O2    S    
C29   C35   A    
C13   C17   A    
C53   H27   S    
C32   C33   A    
C2    C3    A    
C7    C51   A    
C11   C13   A    
C38   C39   A    
C26   N2    S    
C51   N1    A    
N5    H28   S    
C34   O11   A    
C23   O8    A    
Cu1   N4    S    
C55   H29   S    
C18   C33   A    
C19   O4    S    
C44   C48   A    
Cu2   O5    S    
C11   C29   A    
C49   C50   S    
C27   C28   A    
C49   H18   S    
C36   C43   S    
C14   H25   S    
Cu1   O6    S    
C15   C16   A    
C10   C14   A    
C46   N3    A    
C54   H1    S    
C47   N4    A    
