data_mof_unit_57468.cif
_audit_creation_date              2012-12-11T14:36:22-0500
_audit_creation_method            fapswitch 2.2
_symmetry_space_group_name_H-M    P1
_symmetry_Int_Tables_number       1
_space_group_crystal_system       triclinic
_cell_length_a                    13.491545
_cell_length_b                    13.494688
_cell_length_c                    27.419157
_cell_angle_alpha                 90.483223
_cell_angle_beta                  90.137054
_cell_angle_gamma                 60.094841
_cell_volume                      4327.20153986

loop_
_atom_site_label
_atom_site_type_symbol
_atom_type_description
_atom_site_fract_x
_atom_site_fract_y
_atom_site_fract_z
_atom_type_partial_charge
C1    C     C_R   0.620418 0.101323 0.570113 0.544602
C2    C     C_1   0.649797 0.704148 0.658299 -0.060700
C3    C     C_3   0.416901 0.600984 0.313523 -0.358490
C4    C     C_3   0.577322 0.532699 0.432304 -0.299590
C5    C     C_3   0.056979 0.985667 0.126967 -0.263265
C6    C     C_3   0.188180 0.350116 0.129924 -0.382289
C7    C     C_3   0.452125 0.730178 0.796921 -0.409371
C8    C     C_3   0.020524 0.803351 0.229062 -0.330458
C9    C     C_3   0.047050 0.044064 0.786941 -0.413163
C10   C     C_3   0.063660 0.208760 0.737505 -0.091540
C11   C     C_R   0.599944 0.778963 0.568577 0.540184
C12   C     C_3   0.110453 0.105978 0.772354 0.032410
C13   C     C_1   0.098971 0.200566 0.902386 -0.017801
C14   C     C_1   0.230324 0.137255 0.617660 -0.016373
C15   C     C_3   0.104871 0.269995 0.773474 -0.110788
C16   C     C_3   0.151100 0.166562 0.807796 0.061770
C17   C     C_3   0.222770 0.214074 0.747677 -0.107220
C18   C     C_3   0.181362 0.152845 0.712491 0.043130
C19   C     C_1   0.631604 0.731216 0.616181 -0.016024
C20   C     C_3   0.268621 0.110731 0.782609 -0.115982
C21   C     C_3   0.227923 0.048954 0.746550 -0.089000
C22   C     C_1   0.127955 0.180587 0.860295 -0.059108
C23   C     C_R   0.277747 0.121705 0.569658 0.545970
C24   C     C_1   0.203115 0.145654 0.659945 -0.060474
C25   C     C_3   0.561672 0.269601 0.743734 -0.101165
C26   C     C_3   0.562140 0.184833 0.781721 -0.102131
C27   C     C_1   0.690423 0.208238 0.903112 -0.018589
C28   C     C_1   0.635816 0.133400 0.618221 -0.018092
C29   C     C_3   0.661180 0.271855 0.771140 -0.102131
C30   C     C_3   0.745502 0.560767 0.768385 -0.114406
C31   C     C_3   0.661439 0.186830 0.808248 0.052491
C32   C     C_3   0.749244 0.170032 0.739712 -0.105110
C33   C     C_3   0.650069 0.168013 0.713147 0.053661
C34   C     C_3   0.749667 0.085323 0.777568 -0.103506
C35   C     C_R   0.622013 0.100842 0.431437 0.542199
C36   C     C_3   0.650283 0.083051 0.750272 -0.099186
C37   C     C_1   0.673145 0.197410 0.860829 -0.062131
C38   C     C_1   0.643766 0.152660 0.660564 -0.060570
C39   C     C_R   0.753055 0.672170 0.366165 0.096582
C40   C     C_R   0.767088 0.645538 0.316039 0.022630
C41   C     C_3   0.678367 0.656985 0.805940 0.062043
C42   C     C_R   0.774615 0.634853 0.213478 0.054739
C43   C     C_R   0.865780 0.629699 0.240013 -0.115190
C44   C     C_R   0.862885 0.633295 0.290541 -0.131522
C45   C     C_R   0.776762 0.633417 0.162104 0.130107
C46   C     C_R   0.690343 0.625088 0.136452 0.000216
C47   C     C_R   0.604890 0.770377 0.432044 0.563241
C48   C     C_R   0.584751 0.650448 0.367067 0.108078
C49   C     C_R   0.589957 0.634387 0.315720 0.010404
C50   C     C_R   0.679446 0.638763 0.290187 -0.021638
C51   C     C_R   0.508340 0.617436 0.288765 0.056913
C52   C     C_3   0.634455 0.602286 0.738215 -0.090676
C53   C     C_R   0.511074 0.617576 0.237279 0.162563
C54   C     C_R   0.594913 0.631852 0.212759 -0.004407
C55   C     C_R   0.683022 0.634806 0.238851 0.001353
C56   C     C_R   0.595516 0.636655 0.162005 -0.160188
C57   C     C_R   0.651431 0.692492 0.389205 0.031800
C58   C     C_R   0.212283 0.058619 0.357731 -0.136410
C59   C     C_R   0.277657 0.121075 0.430918 0.546550
C60   C     C_R   0.189217 0.070525 0.307672 0.017953
C61   C     C_R   0.160678 0.088052 0.205544 0.017756
C62   C     C_R   0.173189 0.991790 0.230458 -0.125194
C63   C     C_3   0.663024 0.683692 0.710706 0.043294
C64   C     C_R   0.188324 0.982523 0.280831 -0.136974
C65   C     C_R   0.141598 0.100149 0.154727 0.108862
C66   C     C_R   0.123610 0.201273 0.131997 0.030667
C67   C     C_R   0.192284 0.247690 0.360370 -0.131670
C68   C     C_R   0.174463 0.258429 0.310334 0.016842
C69   C     C_R   0.173933 0.169215 0.283541 0.065199
C70   C     C_R   0.165215 0.353679 0.286417 -0.136252
C71   C     C_3   0.773887 0.642490 0.739958 -0.107824
C72   C     C_R   0.160095 0.358739 0.235861 -0.120762
C73   C     C_R   0.159229 0.270590 0.208290 0.023999
C74   C     C_3   0.568920 0.697885 0.776200 0.032788
C75   C     C_R   0.162560 0.176890 0.232457 0.020875
C76   C     C_R   0.153496 0.274761 0.157170 -0.031872
C77   C     C_R   0.219290 0.144933 0.383673 -0.007181
C78   C     C_R   0.547765 0.230260 0.359897 -0.133032
C79   C     C_R   0.553181 0.243684 0.309628 0.019558
C80   C     C_R   0.565845 0.266222 0.208332 0.018239
C81   C     C_R   0.467694 0.343791 0.234349 -0.116394
C82   C     C_R   0.460594 0.331311 0.284566 -0.124769
C83   C     C_3   0.706809 0.738339 0.778293 -0.114003
C84   C     C_R   0.579925 0.284145 0.159098 -0.141589
C85   C     C_3   0.595675 0.780203 0.748100 -0.090594
C86   C     C_R   0.678636 0.204364 0.134208 -0.010760
C87   C     C_R   0.740990 0.068439 0.358669 -0.145228
C88   C     C_R   0.744330 0.075475 0.308230 -0.020739
C89   C     C_R   0.650791 0.163663 0.283524 0.052798
C90   C     C_R   0.836636 0.990207 0.282233 -0.094958
C91   C     C_R   0.837255 0.989750 0.230999 0.151330
C92   C     C_R   0.748032 0.084829 0.206431 0.012715
C93   C     C_R   0.654802 0.171381 0.232744 0.036711
C94   C     C_R   0.753587 0.099590 0.156474 -0.140257
C95   C     C_1   0.696210 0.610008 0.900576 -0.019550
C96   C     C_1   0.687107 0.636522 0.858390 -0.059236
C97   C     C_R   0.639948 0.138968 0.384065 -0.004840
C98   C     C_R   0.049727 0.236086 0.949978 0.544769
C99   C     C_R   0.711227 0.563699 0.948416 0.544077
C100  C     C_R   0.721887 0.225527 0.951009 0.543664
C101  C     C_R   0.053074 0.242547 0.087197 0.566201
C102  C     C_R   0.708584 0.573751 0.087227 0.542993
C103  C     C_R   0.717833 0.232413 0.088939 0.545184
C104  C     C_3   0.828170 0.742262 0.108040 -0.309803
C105  C     C_3   0.852074 0.776541 0.387600 -0.262676
C106  C     C_3   0.327017 0.691914 0.197723 -0.339106
Cr1   Cr    Cr6+3 0.417550 0.169090 0.500530 1.013634
Cr2   Cr    Cr6+3 0.669180 0.913420 0.499920 1.016541
Cr3   Cr    Cr6+3 0.413260 0.917540 0.499520 1.009735
Cr4   Cr    Cr6+3 0.909170 0.177380 0.020380 1.011126
Cr5   Cr    Cr6+3 0.912710 0.429210 0.018220 1.006135
Cr6   Cr    Cr6+3 0.657170 0.432570 0.019030 1.015676
H1    H     H_    0.736243 0.794193 0.795203 0.101644
H2    H     H_    0.665605 0.349844 0.780379 0.103299
H3    H     H_    0.858633 0.619116 0.724273 0.107855
H4    H     H_    0.940322 0.622318 0.221836 0.135020
H5    H     H_    0.935500 0.629075 0.309083 0.109299
H6    H     H_    0.525684 0.639567 0.141534 0.148553
H7    H     H_    0.232486 0.979339 0.375584 0.119609
H8    H     H_    0.170524 0.923439 0.211307 0.123618
H9    H     H_    0.533180 0.870499 0.739269 0.099544
H10   H     H_    0.199898 0.906175 0.298745 0.093366
H11   H     H_    0.154456 0.433353 0.218756 0.102184
H12   H     H_    0.352563 0.070672 0.801431 0.098415
H13   H     H_    0.165767 0.422685 0.306719 0.088205
H14   H     H_    0.196006 0.315621 0.380221 0.125243
H15   H     H_    0.518006 0.361784 0.141101 0.105963
H16   H     H_    0.469399 0.286362 0.379430 0.122167
H17   H     H_    0.396442 0.413807 0.215905 0.118386
H18   H     H_    0.383461 0.391041 0.303922 0.092577
H19   H     H_    0.824076 0.034377 0.135651 0.130338
H20   H     H_    0.905072 0.921671 0.302449 0.099887
H21   H     H_    0.813460 0.000664 0.377513 0.111539
H22   H     H_    0.604515 0.546699 0.721440 0.100756
H23   H     H_    0.269218 0.259095 0.736880 0.107950
H24   H     H_    0.807503 0.470407 0.777314 0.100103
H25   H     H_    0.979621 0.248409 0.718767 0.096978
H26   H     H_    0.277732 0.958093 0.734793 0.103077
H27   H     H_    0.926055 0.566427 0.120952 0.278089
H28   H     H_    0.781502 0.739008 0.075226 0.152515
H29   H     H_    0.903882 0.747649 0.096073 0.126997
H30   H     H_    0.771467 0.820194 0.129752 0.150536
H31   H     H_    0.917659 0.600615 0.394002 0.238214
H32   H     H_    0.927541 0.756553 0.364663 0.082278
H33   H     H_    0.865697 0.804860 0.423814 0.177702
H34   H     H_    0.054616 0.361019 0.785033 0.104536
H35   H     H_    0.774327 0.847154 0.370571 0.176790
H36   H     H_    0.472067 0.535582 0.182031 0.247602
H37   H     H_    0.340558 0.752737 0.175638 0.140064
H38   H     H_    0.279203 0.735111 0.231400 0.146547
H39   H     H_    0.275394 0.664081 0.176152 0.126574
H40   H     H_    0.357537 0.679329 0.334255 0.112333
H41   H     H_    0.457384 0.524963 0.337400 0.161176
H42   H     H_    0.362722 0.584497 0.288234 0.144476
H43   H     H_    0.438807 0.687616 0.408011 0.270930
H44   H     H_    0.518139 0.507104 0.448462 0.134451
H45   H     H_    0.485494 0.190631 0.799445 0.100655
H46   H     H_    0.610986 0.564204 0.461954 0.153219
H47   H     H_    0.649066 0.456258 0.414586 0.156852
H48   H     H_    0.230708 0.935122 0.126775 0.235530
H49   H     H_    0.085535 0.899749 0.142316 0.120214
H50   H     H_    0.026647 0.985990 0.089328 0.177371
H51   H     H_    0.985222 0.051064 0.149330 0.184749
H52   H     H_    0.267404 0.342080 0.146141 0.116816
H53   H     H_    0.209560 0.323195 0.091225 0.151742
H54   H     H_    0.119524 0.440771 0.131974 0.129283
H55   H     H_    0.389465 0.753986 0.766788 0.121805
H56   H     H_    0.484628 0.345477 0.729157 0.102345
H57   H     H_    0.457327 0.656395 0.816765 0.138007
H58   H     H_    0.423541 0.803849 0.822389 0.134033
H59   H     H_    0.896741 0.869075 0.174707 0.247094
H60   H     H_    0.080521 0.740838 0.201981 0.127300
H61   H     H_    0.989671 0.758479 0.252994 0.136645
H62   H     H_    0.067304 0.836322 0.250974 0.141700
H63   H     H_    0.028428 0.007931 0.753983 0.123149
H64   H     H_    0.100527 0.973740 0.812321 0.134762
H65   H     H_    0.965577 0.104942 0.805306 0.139835
H66   H     H_    0.645954 0.005000 0.741061 0.102715
H67   H     H_    0.826706 0.009294 0.792061 0.102962
H68   H     H_    0.825599 0.164488 0.721834 0.101914
N1    N     N_2   0.865345 0.641069 0.137285 -0.534872
N2    N     N_2   0.840669 0.676257 0.393805 -0.513061
N3    N     N_2   0.435001 0.593368 0.210259 -0.536690
N4    N     N_2   0.516564 0.621149 0.396643 -0.530748
N5    N     N_2   0.151390 0.007880 0.125368 -0.521298
N6    N     N_2   0.925648 0.896157 0.203852 -0.535335
O1    O     O_R   0.301710 0.195650 0.554160 -0.508045
O2    O     O_R   0.635520 0.542770 0.964420 -0.507525
O3    O     O_R   0.665950 0.325030 0.970100 -0.494484
O4    O     O_R   0.522390 0.158990 0.550460 -0.495869
O5    O     O_R   0.816620 0.158530 0.074540 -0.540975
O6    O     O_R   0.004460 0.188870 0.069750 -0.470766
O7    O     O_R   0.025800 0.341780 0.072300 -0.534959
O8    O     O_R   0.807650 0.528950 0.067500 -0.497668
O9    O     O_R   0.633420 0.550490 0.071810 -0.527284
O10   O     O_R   0.664000 0.332180 0.069640 -0.496306
O11   O     O_3   0.826350 0.346390 0.019210 -0.240706
O12   O     O_R   0.658900 0.818120 0.449760 -0.472408
O13   O     O_R   0.694390 0.003530 0.554040 -0.507982
O14   O     O_R   0.657700 0.819660 0.549320 -0.494273
O15   O     O_R   0.501930 0.803280 0.552920 -0.512705
O16   O     O_R   0.318170 0.023580 0.549580 -0.494437
O17   O     O_R   0.303010 0.193990 0.446760 -0.523381
O18   O     O_R   0.523600 0.157450 0.450900 -0.502391
O19   O     O_R   0.695690 0.001860 0.446640 -0.536909
O20   O     O_R   0.503220 0.801620 0.445520 -0.528308
O21   O     O_R   0.319370 0.022040 0.450020 -0.501309
O22   O     O_3   0.499990 0.000010 0.499990 -0.241932
O23   O     O_R   0.818720 0.150820 0.967160 -0.512066
O24   O     O_R   0.006410 0.181720 0.970200 -0.495225
O25   O     O_R   0.027890 0.334070 0.964920 -0.511138
O26   O     O_R   0.809600 0.521790 0.967960 -0.496035

loop_
_geom_bond_atom_site_label_1
_geom_bond_atom_site_label_2
_ccdc_geom_bond_type
C84   C86   A    
C29   H2    S    
C6    H54   S    
C106  H38   S    
C18   C21   S    
C52   H22   S    
C83   H1    S    
C95   C96   T    
C67   C77   A    
C5    N5    S    
Cr2   O22   S    
C101  O6    A    
C78   H16   S    
C102  O9    A    
C59   C77   S    
C105  H32   S    
C81   C82   A    
C45   N1    S    
C48   C57   A    
Cr4   O24   S    
C53   C54   A    
C61   C75   A    
C98   O24   A    
C11   C19   S    
C3    H40   S    
C26   H45   S    
C18   C24   S    
C5    H51   S    
C92   C93   A    
Cr3   O16   S    
C10   C18   S    
C29   C32   S    
C52   C74   S    
C10   C15   S    
C53   N3    S    
C43   H4    S    
C8    H62   S    
C35   O18   A    
C4    H47   S    
C95   C99   S    
C58   C60   A    
C15   C16   S    
C41   C83   S    
Cr1   O1    S    
C100  O23   A    
C3    H41   S    
C17   C20   S    
C9    H64   S    
C11   O15   A    
C14   C24   T    
C13   C98   S    
Cr3   O21   S    
C87   H21   S    
C11   O14   A    
Cr6   O10   S    
C62   C64   A    
C86   C94   A    
C58   C77   A    
C41   C74   S    
Cr5   O26   S    
C35   O19   A    
C4    H46   S    
Cr4   O5    S    
C12   C16   S    
C68   C69   A    
C49   C51   A    
C17   H23   S    
C1    C28   S    
C47   O12   A    
C85   H9    S    
C10   H25   S    
C105  N2    S    
C82   H18   S    
C88   C89   A    
C62   H8    S    
C61   C62   A    
H27   N1    S    
C80   C84   A    
C90   H20   S    
C1    O4    A    
C84   H15   S    
C104  N1    S    
Cr6   O3    S    
C6    H53   S    
C66   C76   A    
C26   C31   S    
C106  H37   S    
C63   C85   S    
Cr4   O11   S    
Cr2   O12   S    
C73   C75   A    
C66   C101  S    
C34   H67   S    
C1    O13   A    
C21   H26   S    
C86   C103  S    
C102  O8    A    
C99   O2    A    
C101  O7    A    
C30   C71   S    
C7    C74   S    
C71   C83   S    
C99   O26   A    
C25   H56   S    
C25   C29   S    
C65   N5    S    
C27   C100  S    
C79   C89   A    
C23   O16   A    
C67   C68   A    
H31   N2    S    
C36   H66   S    
C67   H14   S    
C39   C40   A    
C48   N4    S    
C3    C51   S    
C78   C79   A    
C72   C73   A    
C8    N6    S    
C25   C26   S    
C45   C46   A    
C12   C21   S    
C3    H42   S    
C31   C37   S    
C51   C53   A    
C42   C45   A    
C32   C34   S    
C14   C23   S    
Cr2   O14   S    
Cr3   O22   S    
C43   C44   A    
Cr6   O9    S    
Cr1   O17   S    
C59   O17   A    
C42   C55   A    
C47   C57   S    
C46   C102  S    
C81   H17   S    
C28   C38   T    
C16   C20   S    
C105  H33   S    
C78   C97   A    
C92   C94   A    
C17   C18   S    
C31   C34   S    
C71   H3    S    
C30   C41   S    
C4    N4    S    
C39   C57   A    
Cr1   O22   S    
C10   C12   S    
Cr5   O7    S    
C70   H13   S    
C26   C36   S    
C48   C49   A    
C4    H44   S    
C91   N6    S    
C63   C71   S    
C49   C50   A    
C104  H28   S    
C30   H24   S    
C7    H57   S    
C100  O3    A    
C73   C76   A    
C104  H30   S    
Cr4   O23   S    
C103  O5    A    
C42   C43   A    
C69   C75   A    
C46   C56   A    
C15   H34   S    
Cr6   O11   S    
C91   C92   A    
C9    H65   S    
C2    C63   S    
C59   O21   A    
C15   C17   S    
C7    H55   S    
C54   C55   A    
C16   C22   S    
C106  H39   S    
C47   O20   A    
C83   C85   S    
C2    C19   T    
H43   N4    S    
C56   H6    S    
C50   C55   A    
C88   C90   A    
C80   C81   A    
C52   C63   S    
Cr6   O2    S    
C79   C82   A    
C54   C56   A    
C6    C76   S    
C98   O25   A    
C6    H52   S    
H48   N5    S    
C94   H19   S    
H59   N6    S    
C60   C64   A    
C32   C33   S    
Cr2   O13   S    
Cr3   O15   S    
Cr1   O18   S    
C72   H11   S    
C5    H50   S    
C23   O1    A    
C90   C91   A    
C30   C52   S    
C60   C69   A    
C27   C37   T    
H36   N3    S    
C64   H10   S    
Cr1   O4    S    
Cr4   O6    S    
C58   H7    S    
C13   C22   T    
C9    H63   S    
C34   C36   S    
C74   C85   S    
C89   C93   A    
Cr3   O20   S    
C9    C12   S    
Cr5   O25   S    
C106  N3    S    
C20   H12   S    
C39   N2    S    
Cr5   O8    S    
C41   C96   S    
C61   C65   A    
C40   C50   A    
C40   C44   A    
C33   C36   S    
C44   H5    S    
C20   C21   S    
C87   C88   A    
C29   C31   S    
C65   C66   A    
C103  O10   A    
C7    H58   S    
C25   C33   S    
C68   C70   A    
C104  H29   S    
C32   H68   S    
C33   C38   S    
C70   C72   A    
C8    H61   S    
C80   C93   A    
C35   C97   S    
Cr2   O19   S    
Cr5   O11   S    
C8    H60   S    
C5    H49   S    
C87   C97   A    
C105  H35   S    
