data_mof_unit_49677.cif
_audit_creation_date              2012-12-11T14:31:08-0500
_audit_creation_method            fapswitch 2.2
_symmetry_space_group_name_H-M    P1
_symmetry_Int_Tables_number       1
_space_group_crystal_system       triclinic
_cell_length_a                    6.909748
_cell_length_b                    14.355961
_cell_length_c                    16.151778
_cell_angle_alpha                 90.002272
_cell_angle_beta                  89.927038
_cell_angle_gamma                 89.338025
_cell_volume                      1602.0847106

loop_
_atom_site_label
_atom_site_type_symbol
_atom_type_description
_atom_site_fract_x
_atom_site_fract_y
_atom_site_fract_z
_atom_type_partial_charge
O1    O     O_R   0.469910 0.836130 0.163900 -0.519508
O2    O     O_R   0.530090 0.163870 0.836100 -0.533917
O3    O     O_R   0.530090 0.163870 0.663900 -0.513823
O4    O     O_R   0.469910 0.836130 0.336100 -0.540227
O5    O     O_R   0.969910 0.663870 0.336100 -0.529850
O6    O     O_R   0.030090 0.336130 0.663900 -0.543730
O7    O     O_R   0.030090 0.336130 0.836100 -0.507284
O8    O     O_R   0.969910 0.663870 0.163900 -0.540890
O9    O     O_R   0.140100 0.847470 0.335520 -0.530444
O10   O     O_R   0.859900 0.152530 0.664480 -0.548916
O11   O     O_R   0.859900 0.152530 0.835520 -0.526039
O12   O     O_R   0.140100 0.847470 0.164480 -0.550316
O13   O     O_R   0.640100 0.652530 0.164480 -0.532471
O14   O     O_R   0.359900 0.347470 0.835520 -0.552018
O15   O     O_R   0.359900 0.347470 0.664480 -0.548723
O16   O     O_R   0.640100 0.652530 0.335520 -0.520303
C1    C     C_R   0.309807 0.868516 0.364774 0.687521
C2    C     C_R   0.689224 0.129859 0.635515 0.657722
C3    C     C_R   0.690133 0.131659 0.864849 0.701546
C4    C     C_R   0.310966 0.870164 0.135560 0.665206
C5    C     C_R   0.812171 0.629910 0.136154 0.669125
C6    C     C_R   0.188059 0.367916 0.866257 0.696264
C7    C     C_R   0.187123 0.372615 0.637453 0.671341
C8    C     C_R   0.811691 0.629673 0.363765 0.811234
O17   O     O_3   0.303300 0.689750 0.250000 -0.361667
O18   O     O_3   0.696700 0.310250 0.750000 -0.373630
O19   O     O_3   0.803300 0.810250 0.250000 -0.371204
O20   O     O_3   0.196700 0.189750 0.750000 -0.354827
V1    V     V_3+5 0.028490 0.761170 0.250000 1.522238
V2    V     V_3+5 0.971510 0.238830 0.750000 1.497606
V3    V     V_3+5 0.528490 0.738830 0.250000 1.562553
V4    V     V_3+5 0.471510 0.261170 0.750000 1.474389
C9    C     C_2   0.836639 0.553723 0.426207 -0.167003
C10   C     C_2   0.162350 0.443095 0.568923 -0.229485
C11   C     C_2   0.163851 0.436303 0.936406 -0.159197
C12   C     C_2   0.836448 0.570538 0.061126 -0.207453
C13   C     C_2   0.332339 0.934584 0.062860 -0.169611
C14   C     C_2   0.672892 0.085783 0.946377 -0.185349
C15   C     C_2   0.668397 0.065634 0.562625 -0.170871
C16   C     C_2   0.327092 0.914712 0.446202 -0.179072
C17   C     C_2   0.961387 0.564503 0.491310 0.241795
C18   C     C_2   0.989552 0.491599 0.556730 0.115610
C19   C     C_2   0.999360 0.436923 0.985365 0.304492
C20   C     C_2   0.971569 0.499237 0.059023 0.224192
C21   C     C_2   0.510488 0.971104 0.042420 0.275157
C22   C     C_2   0.552765 0.011407 0.957978 0.210980
C23   C     C_2   0.490551 0.028810 0.542319 0.275445
C24   C     C_2   0.447981 0.988792 0.457758 0.209282
N1    N     N_3   0.828727 0.483912 0.612801 -0.664992
H1    H     H_    0.765444 0.418633 0.606357 0.237120
H2    H     H_    0.875392 0.494527 0.673601 0.260236
N2    N     N_3   0.047691 0.653543 0.505325 -0.662545
H3    H     H_    0.197458 0.644391 0.509591 0.265916
H4    H     H_    0.998756 0.678110 0.562654 0.243647
N3    N     N_3   0.075530 0.471723 0.132347 -0.634731
H5    H     H_    0.172820 0.523801 0.148431 0.280192
H6    H     H_    0.977428 0.462191 0.180898 0.236054
N4    N     N_3   0.852798 0.368152 0.973265 -0.656420
H7    H     H_    0.722381 0.402484 0.960147 0.236209
H8    H     H_    0.834295 0.333172 0.029372 0.236775
N5    N     N_3   0.480620 0.961193 0.887433 -0.649829
H9    H     H_    0.391155 0.004915 0.852255 0.269083
H10   H     H_    0.597958 0.940133 0.850702 0.218273
N6    N     N_3   0.669115 0.960510 0.099862 -0.643300
H11   H     H_    0.645807 0.005716 0.149710 0.258946
H12   H     H_    0.801059 0.976317 0.072563 0.221740
N7    N     N_3   0.520463 0.038959 0.387181 -0.649042
H13   H     H_    0.609277 0.995066 0.351771 0.267978
H14   H     H_    0.403211 0.060353 0.350678 0.219177
N8    N     N_3   0.332424 0.038540 0.600279 -0.639281
H15   H     H_    0.354897 0.991761 0.649001 0.257989
H16   H     H_    0.199934 0.024452 0.572801 0.220011
C25   C     C_2   0.328943 0.452511 0.511417 0.377351
H17   H     H_    0.468018 0.423063 0.528561 0.048320
O21   O     O_2   0.312177 0.489120 0.443571 -0.505294
C26   C     C_2   0.749491 0.461872 0.407963 0.406992
H18   H     H_    0.770160 0.403301 0.449531 0.039930
O22   O     O_2   0.657019 0.449878 0.344540 -0.499539
C27   C     C_2   0.739220 0.606772 0.985432 0.356278
H19   H     H_    0.630184 0.661393 0.991344 0.102058
O23   O     O_2   0.785089 0.580725 0.916100 -0.531968
C28   C     C_2   0.319152 0.505992 0.946381 0.324251
H20   H     H_    0.447979 0.500270 0.908409 0.096156
O24   O     O_2   0.303415 0.571718 0.993929 -0.536088
C29   C     C_2   0.751445 0.141563 0.015549 0.342589
H21   H     H_    0.895458 0.170264 0.010350 0.111956
O25   O     O_2   0.652621 0.160783 0.076024 -0.525287
C30   C     C_2   0.159310 0.949285 0.010109 0.353951
H22   H     H_    0.049934 0.895785 0.007019 0.056710
O26   O     O_2   0.134524 0.021691 0.971753 -0.540098
C31   C     C_2   0.248718 0.859326 0.515615 0.331489
H23   H     H_    0.101254 0.834858 0.512563 0.124084
O27   O     O_2   0.350656 0.836447 0.574022 -0.527568
C32   C     C_2   0.841545 0.051563 0.509614 0.347477
H24   H     H_    0.951009 0.105060 0.507000 0.050990
O28   O     O_2   0.866397 0.979655 0.470514 -0.539813

loop_
_geom_bond_atom_site_label_1
_geom_bond_atom_site_label_2
_ccdc_geom_bond_type
O17   V3    S    
N3    H5    S    
O18   V4    S    
O12   V1    S    
O19   V1    S    
C25   H17   S    
C13   C30   S    
C10   C18   D    
C19   C20   S    
O15   V4    S    
C23   N8    S    
C5    C12   S    
C21   C22   S    
O16   V3    S    
C6    C11   S    
O11   C3    A    
C10   C25   S    
O8    V1    S    
C26   O22   D    
N4    H8    S    
C16   C31   S    
O1    V3    S    
O3    C2    A    
O2    V4    S    
C17   C18   S    
N5    H10   S    
C19   N4    S    
O11   V2    S    
N1    H2    S    
N8    H15   S    
C11   C19   D    
C17   N2    S    
O9    V1    S    
O15   C7    A    
O16   C8    A    
O7    V2    S    
C25   O21   D    
N5    H9    S    
C11   C28   S    
N2    H4    S    
O5    V1    S    
C29   O25   D    
O17   V1    S    
C14   C29   S    
O19   V3    S    
N7    H13   S    
O20   V4    S    
C26   H18   S    
C31   H23   S    
C27   O23   D    
C22   N5    S    
N4    H7    S    
C29   H21   S    
C28   H20   S    
N7    H14   S    
C1    C16   S    
N6    H12   S    
C2    C15   S    
C15   C32   S    
C3    C14   S    
C31   O27   D    
O10   V2    S    
C9    C26   S    
C23   C24   S    
C7    C10   S    
O12   C4    A    
O8    C5    A    
O13   C5    A    
O3    V4    S    
C32   O28   D    
O4    C1    A    
O9    C1    A    
O6    V2    S    
C30   O26   D    
O18   V2    S    
C28   O24   D    
N3    H6    S    
C12   C20   D    
C13   C21   D    
N2    H3    S    
C15   C23   D    
C16   C24   D    
O1    C4    A    
O2    C3    A    
O13   V3    S    
O14   V4    S    
C12   C27   S    
O7    C6    A    
C21   N6    S    
C8    C9    S    
C9    C17   D    
N6    H11   S    
O14   C6    A    
O20   V2    S    
C4    C13   S    
C20   N3    S    
O5    C8    A    
O10   C2    A    
O6    C7    A    
C24   N7    S    
C32   H24   S    
C14   C22   D    
O4    V3    S    
C18   N1    S    
C27   H19   S    
C30   H22   S    
N1    H1    S    
N8    H16   S    
