data_mof_unit_27809.cif
_audit_creation_date              2012-12-10T20:28:40-0500
_audit_creation_method            fapswitch 2.2
_symmetry_space_group_name_H-M    P1
_symmetry_Int_Tables_number       1
_space_group_crystal_system       triclinic
_cell_length_a                    10.721961
_cell_length_b                    10.643289
_cell_length_c                    9.84799
_cell_angle_alpha                 89.402639
_cell_angle_beta                  90.088198
_cell_angle_gamma                 90.29452
_cell_volume                      1123.74521509

loop_
_atom_site_label
_atom_site_type_symbol
_atom_type_description
_atom_site_fract_x
_atom_site_fract_y
_atom_site_fract_z
_atom_type_partial_charge
C1    C     C_R   0.500649 0.260222 0.500394 0.880151
C2    C     C_R   0.062246 0.527779 0.629391 0.114510
C3    C     C_R   0.127227 0.527929 0.504157 -0.141318
C4    C     C_R   0.063161 0.519157 0.381258 -0.216552
C5    C     C_R   0.936809 0.500734 0.381526 -0.202775
C6    C     C_R   0.874051 0.483221 0.504618 -0.131356
C7    C     C_R   0.597289 0.063568 0.566658 0.098694
C8    C     C_R   0.503757 0.128356 0.497882 -0.069404
C9    C     C_R   0.424361 0.065503 0.407892 -0.218251
C10   C     C_R   0.425313 0.935737 0.405952 -0.220021
C11   C     C_R   0.505263 0.871371 0.494493 -0.081213
C12   C     C_R   0.260497 0.513041 0.500661 0.869193
C13   C     C_R   0.597300 0.935340 0.565623 0.120844
C14   C     C_3   0.640167 0.924974 0.709470 -0.490889
C15   C     C_3   0.641221 0.067823 0.710617 -0.469662
C16   C     C_R   0.396026 0.463228 0.071800 0.128486
C17   C     C_R   0.597796 0.548200 0.071569 -0.124909
C18   C     C_R   0.597607 0.548570 0.927525 -0.130183
C19   C     C_R   0.396090 0.463159 0.929117 0.108692
C20   C     C_3   0.331575 0.338485 0.924899 0.210623
C21   C     C_3   0.333413 0.337726 0.079350 0.130153
C22   C     C_R   0.500777 0.739678 0.499122 0.873762
C23   C     C_R   0.740133 0.490163 0.501009 0.872280
C24   C     C_R   0.115031 0.568102 0.753808 -0.188383
C25   C     C_R   0.056685 0.540272 0.877002 -0.150121
C26   C     C_R   0.946382 0.471224 0.877976 -0.139847
C27   C     C_R   0.888128 0.441893 0.755549 -0.182486
C28   C     C_R   0.939741 0.482781 0.629922 0.102013
H1    H     H_    0.110631 0.525610 0.284455 0.204388
H2    H     H_    0.734786 0.883372 0.717859 0.204388
H3    H     H_    0.571553 0.107286 0.780813 0.264800
H4    H     H_    0.736506 0.108676 0.719267 0.196607
H5    H     H_    0.677679 0.585109 0.125493 0.147155
H6    H     H_    0.677008 0.586338 0.872960 0.152988
H7    H     H_    0.237464 0.342945 0.877262 0.149339
H8    H     H_    0.392014 0.262588 0.126362 0.138668
H9    H     H_    0.200157 0.622866 0.757281 0.157782
H10   H     H_    0.904331 0.442976 0.973484 0.146721
H11   H     H_    0.804176 0.385446 0.760990 0.167454
H12   H     H_    0.888537 0.500309 0.284757 0.168537
H13   H     H_    0.359347 0.886065 0.342234 0.156930
N1    N     N_R   0.499160 0.499140 0.142800 -0.119077
N2    N     N_R   0.499160 0.499180 0.857150 -0.080483
O1    O     O_R   0.500020 0.316790 0.614690 -0.557975
O2    O     O_R   0.500000 0.316760 0.385350 -0.634794
O3    O     O_R   0.316770 0.500020 0.614690 -0.627554
O4    O     O_R   0.316760 0.499980 0.385350 -0.617368
O5    O     O_R   0.500000 0.683240 0.614650 -0.628291
O6    O     O_R   0.499980 0.683210 0.385310 -0.616255
O7    O     O_R   0.683240 0.500020 0.614650 -0.634861
O8    O     O_R   0.683230 0.499980 0.385310 -0.624657
Zn1   Zn    Zn3+2 0.500010 0.500020 0.653130 0.966198
Zn2   Zn    Zn3+2 0.499990 0.499980 0.346870 0.946935
O9    O     O_3   0.407900 0.245258 0.871482 -0.773617
H14   H     H_    0.356811 0.167263 0.872137 0.323967
O10   O     O_3   0.212808 0.346118 0.132837 -0.800552
H15   H     H_    0.218342 0.315593 0.228154 0.348113
H16   H     H_    0.099324 0.568534 0.971697 0.156598
H17   H     H_    0.357918 0.116131 0.345158 0.147614
H18   H     H_    0.568587 0.882626 0.777829 0.218275

loop_
_geom_bond_atom_site_label_1
_geom_bond_atom_site_label_2
_ccdc_geom_bond_type
C21   O10   S    
O7    Zn1   S    
C15   H3    S    
C16   C21   S    
C16   N1    A    
C1    C8    S    
C11   C13   A    
C9    C10   A    
O9    H14   S    
C11   C22   S    
C23   O8    A    
C19   C20   S    
O5    Zn1   S    
O4    Zn2   S    
O1    Zn1   S    
C7    C15   S    
C24   H9    S    
O2    Zn2   S    
C7    C8    A    
C21   H8    S    
C18   N2    A    
C24   C25   A    
C10   H13   S    
C2    C24   A    
C4    C5    A    
C18   H6    S    
C1    O2    A    
C26   C27   A    
C17   H5    S    
C14   H2    S    
C12   O4    A    
O6    Zn2   S    
C6    C23   S    
C12   O3    A    
C19   N2    A    
C22   O5    A    
C17   C18   A    
C2    C3    A    
C22   O6    A    
N1    Zn2   S    
C16   C19   A    
C5    C6    A    
N2    Zn1   S    
C10   C11   A    
C3    C4    A    
O3    Zn1   S    
C7    C13   A    
C14   H18   S    
C20   C21   S    
C20   O9    S    
C25   H16   S    
C5    H12   S    
C27   C28   A    
O10   H15   S    
C17   N1    A    
C26   H10   S    
C23   O7    A    
C2    C28   A    
C3    C12   S    
C1    O1    A    
C13   C14   S    
O8    Zn2   S    
C25   C26   A    
C14   C15   S    
C20   H7    S    
C6    C28   A    
C4    H1    S    
C27   H11   S    
C8    C9    A    
C9    H17   S    
C15   H4    S    
