data_mof_unit_30700.cif
_audit_creation_date              2013-03-05T15:55:19-0500
_audit_creation_method            fapswitch 2.2
_symmetry_space_group_name_H-M    P1
_symmetry_Int_Tables_number       1
_space_group_crystal_system       triclinic
_cell_length_a                    14.752218
_cell_length_b                    14.764991
_cell_length_c                    33.283331
_cell_angle_alpha                 96.006855
_cell_angle_beta                  96.215265
_cell_angle_gamma                 61.199465
_cell_volume                      6304.07185632

loop_
_atom_site_label
_atom_site_type_symbol
_atom_site_description
_atom_site_fract_x
_atom_site_fract_y
_atom_site_fract_z
_atom_type_partial_charge
O1    O     O_R   0.679450 0.499830 0.463150 -0.545174
O2    O     O_R   0.480650 0.664000 0.464630 -0.538898
C1    C     C_R   0.391298 0.699145 0.445990 0.819400
O3    O     O_R   0.323930 0.675950 0.455370 -0.544175
O4    O     O_R   0.354700 0.475360 0.451930 -0.530580
C2    C     C_R   0.405847 0.386439 0.433984 0.785392
O5    O     O_R   0.494470 0.320860 0.448390 -0.549538
O6    O     O_R   0.662580 0.357570 0.460050 -0.538822
C3    C     C_R   0.700588 0.410132 0.447496 0.782068
O7    O     O_R   0.680900 0.502040 0.551870 -0.546018
O8    O     O_R   0.481990 0.666040 0.546870 -0.541007
C4    C     C_R   0.393508 0.701211 0.561266 0.773694
O9    O     O_R   0.325370 0.678160 0.544080 -0.530154
O10   O     O_R   0.356040 0.477400 0.534170 -0.497950
C5    C     C_R   0.406901 0.388448 0.548896 0.831907
O11   O     O_R   0.495910 0.323070 0.537100 -0.555453
O12   O     O_R   0.663920 0.359620 0.542290 -0.539135
C6    C     C_R   0.701212 0.413636 0.562713 0.810386
Cr1   Cr    Cr6+3 0.576280 0.580550 0.506370 0.957856
Cr2   Cr    Cr6+3 0.346780 0.572400 0.496520 1.029264
Cr3   Cr    Cr6+3 0.576960 0.347070 0.497150 0.952192
O13   O     O_3   0.500010 0.500010 0.500010 -0.345606
H1    H     H_    0.449057 0.169211 0.109605 0.145748
H2    H     H_    0.464804 0.202331 0.182908 0.134246
H3    H     H_    0.462584 0.195364 0.311371 0.138005
H4    H     H_    0.498219 0.211171 0.384546 0.151302
C7    C     C_R   0.370125 0.366756 0.392507 -0.060191
C8    C     C_R   0.283960 0.446883 0.372715 -0.144324
C9    C     C_R   0.264441 0.437622 0.330944 -0.109074
C10   C     C_R   0.330183 0.348056 0.308707 0.109713
C11   C     C_R   0.411551 0.265128 0.328466 -0.110664
C12   C     C_R   0.431397 0.274207 0.370206 -0.147525
C13   C     C_R   0.393976 0.252413 0.165890 -0.116425
C14   C     C_R   0.384913 0.234021 0.124077 -0.154124
C15   C     C_R   0.209761 0.377594 0.121784 -0.158851
C16   C     C_R   0.219032 0.395686 0.163636 -0.114497
C17   C     C_R   0.309957 0.331102 0.185781 0.118244
C18   C     C_1   0.314590 0.339880 0.229077 -0.020545
C19   C     C_1   0.319999 0.344257 0.265416 -0.018171
C20   C     C_R   0.291298 0.294063 0.101816 -0.053594
H5    H     H_    0.235406 0.519193 0.389003 0.156561
H6    H     H_    0.153761 0.456989 0.178893 0.132894
H7    H     H_    0.136620 0.425108 0.105524 0.142802
H8    H     H_    0.201118 0.502064 0.315793 0.146172
N1    N     N_R   0.827497 0.394665 0.227318 -0.280660
N2    N     N_R   0.822992 0.400475 0.267195 -0.257799
C21   C     C_R   0.755456 0.374027 0.409976 -0.061382
C22   C     C_R   0.785939 0.437338 0.392911 -0.130265
C23   C     C_R   0.814106 0.416991 0.353099 -0.087527
C24   C     C_R   0.812633 0.332793 0.329702 0.009287
C25   C     C_R   0.791529 0.264021 0.347940 -0.104339
C26   C     C_R   0.763057 0.284536 0.387804 -0.148233
N3    N     N_R   0.828015 0.239266 0.262892 -0.256726
N4    N     N_R   0.832809 0.233371 0.222939 -0.169875
C27   C     C_R   0.832230 0.311207 0.204325 0.550346
C28   C     C_R   0.823746 0.322703 0.285820 0.512639
C29   C     C_R   0.834617 0.389015 0.142035 -0.210537
C30   C     C_R   0.865449 0.378395 0.103039 -0.154797
C31   C     C_R   0.907261 0.197805 0.098392 -0.229013
C32   C     C_R   0.876606 0.208072 0.137538 0.656191
C33   C     C_R   0.844756 0.302928 0.160493 -0.108378
C34   C     C_R   0.906790 0.281504 0.081672 -0.130481
H9    H     H_    0.781848 0.506334 0.409388 0.160278
H10   H     H_    0.740674 0.233901 0.400286 0.146376
H11   H     H_    0.862641 0.444716 0.090622 0.155189
H12   H     H_    0.831982 0.470325 0.340106 0.169792
H13   H     H_    0.791064 0.197729 0.330792 0.162081
H14   H     H_    0.807986 0.463720 0.158465 0.177328
H15   H     H_    0.937936 0.122363 0.082331 0.167708
N5    N     N_R   0.304418 0.774003 0.218455 -0.269626
N6    N     N_R   0.306066 0.767991 0.258129 -0.226549
C35   C     C_R   0.373646 0.751388 0.408437 -0.173704
C36   C     C_R   0.277310 0.790215 0.386532 -0.210250
C37   C     C_R   0.266196 0.818907 0.346772 0.355307
C38   C     C_R   0.354802 0.804170 0.328202 -0.243703
C39   C     C_R   0.450802 0.770724 0.351139 0.356930
C40   C     C_R   0.458167 0.747638 0.391312 -0.207016
N7    N     N_R   0.392110 0.867093 0.270003 -0.214955
N8    N     N_R   0.390962 0.872575 0.230330 -0.268266
C41   C     C_R   0.347420 0.825891 0.203808 0.522317
C42   C     C_R   0.349437 0.814894 0.284558 0.664323
C43   C     C_R   0.263955 0.826130 0.134587 -0.107543
C44   C     C_R   0.242849 0.858043 0.095148 -0.142698
C45   C     C_R   0.380036 0.905673 0.105173 -0.154818
C46   C     C_R   0.400360 0.874799 0.144672 -0.127666
C47   C     C_R   0.339485 0.839063 0.160224 0.016796
C48   C     C_R   0.297681 0.902378 0.080774 -0.049437
H16   H     H_    0.211045 0.796006 0.400089 0.189087
H17   H     H_    0.533353 0.717099 0.407843 0.184041
H18   H     H_    0.179576 0.853736 0.076824 0.146985
H19   H     H_    0.216498 0.797848 0.145742 0.155588
H20   H     H_    0.424232 0.938765 0.094823 0.141954
H21   H     H_    0.460387 0.883704 0.163623 0.149388
N9    N     N_R   0.247893 0.428865 0.769284 -0.290477
N10   N     N_R   0.252482 0.428719 0.729546 -0.280279
C49   C     C_R   0.372934 0.368300 0.585687 -0.168233
C50   C     C_R   0.278409 0.440030 0.602815 0.383117
C51   C     C_R   0.266072 0.434174 0.643549 -0.194552
C52   C     C_R   0.344331 0.356221 0.666819 -0.049216
C53   C     C_R   0.431866 0.278987 0.648154 -0.109938
C54   C     C_R   0.445889 0.284831 0.608158 -0.196948
N11   N     N_R   0.418250 0.286334 0.733248 -0.259421
N12   N     N_R   0.413675 0.286614 0.772888 -0.163733
C55   C     C_R   0.328562 0.357796 0.791781 0.554047
C56   C     C_R   0.337490 0.356698 0.710697 0.526248
C57   C     C_R   0.222326 0.405387 0.851417 -0.201666
C58   C     C_R   0.208048 0.383114 0.889156 -0.151291
C59   C     C_R   0.390102 0.257650 0.896425 -0.214072
C60   C     C_R   0.404858 0.280117 0.858812 0.674155
C61   C     C_R   0.319624 0.350419 0.834935 -0.115812
C62   C     C_R   0.290812 0.305341 0.911008 -0.139867
H22   H     H_    0.518033 0.227222 0.595850 0.174189
H23   H     H_    0.130657 0.421789 0.899844 0.157604
H24   H     H_    0.195790 0.491569 0.657149 0.185907
H25   H     H_    0.492431 0.216175 0.664946 0.178828
H26   H     H_    0.155491 0.460974 0.834145 0.177893
H27   H     H_    0.455603 0.198942 0.913180 0.172530
H28   H     H_    0.941767 0.126272 0.876080 0.194531
H29   H     H_    0.745839 0.236597 0.597849 0.167902
C63   C     C_R   0.753471 0.380677 0.603029 -0.133070
C64   C     C_R   0.777708 0.447629 0.629639 -0.139216
C65   C     C_R   0.805380 0.427296 0.670453 -0.225659
C66   C     C_R   0.809569 0.339815 0.685076 -0.024790
C67   C     C_R   0.791736 0.269415 0.658386 0.679296
C68   C     C_R   0.764162 0.289577 0.617553 -0.248973
C69   C     C_R   0.884249 0.213182 0.823076 0.701293
C70   C     C_R   0.912298 0.201935 0.864445 -0.225183
C71   C     C_R   0.871693 0.382408 0.873459 -0.144436
C72   C     C_R   0.843483 0.393576 0.832178 -0.222977
C73   C     C_R   0.852667 0.308370 0.806760 -0.029372
C74   C     C_1   0.836985 0.317493 0.763763 0.082302
C75   C     C_1   0.825267 0.326510 0.727808 0.078184
C76   C     C_R   0.909797 0.285542 0.889784 -0.143259
H30   H     H_    0.769824 0.518556 0.619481 0.162091
H31   H     H_    0.818749 0.467594 0.819808 0.156451
H32   H     H_    0.868831 0.448238 0.892144 0.158510
H33   H     H_    0.819370 0.482017 0.690916 0.155927
H34   H     H_    0.419783 0.947352 0.891763 0.199895
H35   H     H_    0.516653 0.781383 0.686408 0.141481
H36   H     H_    0.534115 0.729832 0.614105 0.144900
C77   C     C_R   0.376427 0.754378 0.602023 -0.065119
C78   C     C_R   0.281433 0.788553 0.619253 -0.123731
C79   C     C_R   0.272161 0.817417 0.660490 -0.112616
C80   C     C_R   0.357402 0.812810 0.684914 0.095096
C81   C     C_R   0.450300 0.785025 0.667671 -0.106494
C82   C     C_R   0.459772 0.756286 0.626374 -0.162545
C83   C     C_R   0.394424 0.890109 0.832356 0.680310
C84   C     C_R   0.374011 0.917609 0.873081 -0.329646
C85   C     C_R   0.233447 0.874456 0.863235 0.659968
C86   C     C_R   0.254360 0.846830 0.822533 -0.275252
C87   C     C_R   0.332654 0.857454 0.806814 -0.117755
C88   C     C_1   0.344398 0.841343 0.764023 0.115535
C89   C     C_1   0.351314 0.829142 0.727978 -0.014299
C90   C     C_R   0.290993 0.913713 0.888704 -0.276020
H37   H     H_    0.215899 0.787846 0.601366 0.175854
H38   H     H_    0.206827 0.820754 0.802916 0.191886
H39   H     H_    0.199842 0.839113 0.673627 0.147834
O14   O     O_R   0.170070 0.978950 0.027680 -0.544881
O15   O     O_R   0.001760 0.175230 0.026640 -0.537177
C91   C     C_R   0.963382 0.264200 0.045480 0.806752
O16   O     O_R   0.984760 0.333570 0.037150 -0.550369
O17   O     O_R   0.183410 0.309240 0.041890 -0.538126
C92   C     C_R   0.272723 0.259376 0.060046 0.776806
O18   O     O_R   0.340240 0.172500 0.045430 -0.549203
O19   O     O_R   0.309670 0.000990 0.032050 -0.540559
C93   C     C_R   0.259318 0.959582 0.043736 0.773417
O20   O     O_R   0.168330 0.982130 0.939200 -0.498782
O21   O     O_R   0.000140 0.178170 0.944610 -0.532284
C94   C     C_R   0.962553 0.267679 0.930739 0.806668
O22   O     O_R   0.983010 0.336750 0.948660 -0.551380
O23   O     O_R   0.181800 0.312190 0.959860 -0.538804
C95   C     C_R   0.270947 0.264310 0.945517 0.810315
O24   O     O_R   0.338500 0.175680 0.956950 -0.546125
O25   O     O_R   0.308050 0.003930 0.950020 -0.546274
C96   C     C_R   0.256178 0.964938 0.928937 0.867019
Cr4   Cr    Cr6+3 0.087320 0.083240 0.984860 0.992674
Cr5   Cr    Cr6+3 0.087720 0.316210 0.996740 0.940556
Cr6   Cr    Cr6+3 0.317350 0.090340 0.995890 0.946527
O26   O     O_3   0.164130 0.163270 0.992500 -0.341061
F1    F     F_    0.885396 0.123192 0.153607 -0.647809
N13   N     N_R   0.165187 0.861627 0.325624 0.116559
O27   O     O_R   0.097117 0.835731 0.334303 -0.355090
O28   O     O_R   0.136283 0.935972 0.301445 -0.344836
N14   N     N_R   0.543832 0.750211 0.333288 0.107806
O29   O     O_R   0.610520 0.773804 0.353883 -0.357896
O30   O     O_R   0.571338 0.690877 0.300249 -0.355882
N15   N     N_R   0.195169 0.518976 0.579661 0.099333
O31   O     O_R   0.136274 0.609186 0.596974 -0.369720
O32   O     O_R   0.168162 0.495951 0.543104 -0.363872
F2    F     F_    0.501603 0.228947 0.845188 -0.631053
F3    F     F_    0.893039 0.130009 0.798714 -0.624471
F4    F     F_    0.796067 0.183973 0.672179 -0.643455
F5    F     F_    0.471134 0.900072 0.817500 -0.645479
F6    F     F_    0.153933 0.867249 0.876966 -0.638729

loop_
_geom_bond_atom_site_label_1
_geom_bond_atom_site_label_2
_geom_bond_distance
_ccdc_geom_bond_type
C30   C34   1.401645 A    
C44   C48   1.404017 A    
O23   C95   1.275417 A    
H3    C11   1.083714 S    
O19   C93   1.275440 A    
C66   C75   1.434707 S    
C36   C37   1.400375 A    
C16   H6    1.083607 S    
C83   C84   1.395795 A    
C45   C48   1.404605 A    
C85   C90   1.410919 A    
C71   C72   1.394881 A    
C81   C82   1.396842 A    
C66   C67   1.399434 A    
O4    Cr2   1.923622 S    
C46   C47   1.402553 A    
N14   O29   1.301262 A    
C54   H22   1.083170 S    
H4    C12   1.082993 S    
C4    O9    1.271942 A    
O8    Cr1   1.924399 S    
C69   C70   1.397489 A    
C90   C96   1.480423 S    
C14   C20   1.406551 A    
C8    C9    1.394966 A    
C72   C73   1.398072 A    
C71   H32   1.083011 S    
O15   C91   1.275641 A    
C10   C11   1.397860 A    
N14   O30   1.301468 A    
C51   H24   1.082947 S    
C48   C93   1.469556 S    
C57   C58   1.393110 A    
C69   C73   1.400455 A    
C5    O11   1.273246 A    
C51   C52   1.403599 A    
N13   O27   1.301509 A    
C8    H5    1.083032 S    
C59   C60   1.392912 A    
N11   C56   1.356136 A    
O21   Cr4   1.922592 S    
C62   C95   1.470278 S    
C94   O22   1.271678 A    
C83   F5    1.357771 S    
C80   C89   1.433621 S    
C23   C24   1.404336 A    
C76   C94   1.476864 S    
O25   C96   1.277913 A    
C58   H23   1.083215 S    
O17   Cr5   1.922140 S    
C41   C47   1.468402 S    
N10   C56   1.357530 A    
C35   C40   1.401210 A    
C72   H31   1.083720 S    
C46   H21   1.083133 S    
Cr4   O26   1.977301 S    
H35   C81   1.083552 S    
C2    C7    1.474431 S    
H34   C84   1.083073 S    
O6    C3    1.276376 A    
Cr5   O26   1.976100 S    
C39   N14   1.437572 S    
C87   C88   1.434502 S    
C79   H39   1.083698 S    
N5    N6    1.329534 A    
C78   H37   1.083047 S    
C9    C10   1.397150 A    
C15   H7    1.083012 S    
C15   C20   1.407761 A    
C60   F2    1.357518 S    
C35   C36   1.399303 A    
O2    Cr1   1.922875 S    
N9    C55   1.358775 A    
C31   C32   1.394724 A    
C86   H38   1.083811 S    
Cr3   O13   1.976226 S    
O19   Cr6   1.925512 S    
N11   N12   1.327836 A    
C53   H25   1.082923 S    
C84   C90   1.409130 A    
C50   C51   1.404224 A    
N13   O28   1.301542 A    
C18   C19   1.200440 T    
C52   C56   1.473798 S    
O1    Cr1   2.042954 S    
C23   H12   1.082949 S    
O22   Cr5   2.038106 S    
N5    C41   1.356631 A    
C25   C26   1.393775 A    
C21   C22   1.403594 A    
Cr6   O26   1.976460 S    
Cr1   O13   1.977334 S    
O1    C3    1.271035 A    
C39   C40   1.394304 A    
C20   C92   1.474418 S    
C26   H10   1.083112 S    
H36   C82   1.083039 S    
C5    C49   1.480473 S    
C37   N13   1.440121 S    
N7    N8    1.329163 A    
C38   C42   1.467179 S    
C22   H9    1.083138 S    
C24   C25   1.403932 A    
N1    N2    1.327806 A    
O12   Cr3   1.921127 S    
C43   H19   1.082930 S    
C57   H26   1.082831 S    
C32   C33   1.409165 A    
C15   C16   1.395191 A    
C83   C87   1.398340 A    
C38   C39   1.415370 A    
C36   H16   1.083229 S    
C71   C76   1.406636 A    
C17   C18   1.430464 S    
O10   Cr2   1.924226 S    
C85   F6    1.357455 S    
C30   H11   1.083191 S    
C73   C74   1.434669 S    
C52   C53   1.400155 A    
O10   C5    1.278190 A    
O7    Cr1   2.038782 S    
H1    C14   1.082995 S    
C40   H17   1.083590 S    
C49   C50   1.419125 A    
O12   C6    1.276370 A    
C1    O3    1.272776 A    
C25   H13   1.082837 S    
C45   C46   1.390846 A    
C29   C33   1.405629 A    
C64   C65   1.396150 A    
C21   C26   1.405046 A    
C77   C82   1.407933 A    
C31   H15   1.083230 S    
H29   C68   1.083077 S    
O14   Cr4   2.040568 S    
O21   C94   1.278054 A    
Cr2   O13   1.976576 S    
C3    C21   1.470604 S    
C24   C28   1.471386 S    
O15   Cr4   1.924728 S    
C77   C78   1.406929 A    
C9    H8    1.083641 S    
C64   H30   1.082961 S    
C34   C91   1.470081 S    
C55   C61   1.476449 S    
H28   C70   1.083112 S    
C29   H14   1.082945 S    
O16   Cr5   2.043711 S    
C74   C75   1.202539 T    
C6    C63   1.477446 S    
C37   C38   1.418002 A    
C67   F4    1.357770 S    
O18   Cr6   2.039571 S    
C95   O24   1.271209 A    
O14   C93   1.271878 A    
O20   C96   1.273324 A    
O17   C92   1.276417 A    
C57   C61   1.405245 A    
N3    C28   1.357544 A    
C50   N15   1.436815 S    
C44   H18   1.083097 S    
O25   Cr6   1.921732 S    
N4    C27   1.357600 A    
C22   C23   1.390803 A    
C31   C34   1.404204 A    
O9    Cr2   2.039513 S    
C7    C12   1.406463 A    
C63   C68   1.408191 A    
C58   C62   1.403551 A    
C59   H27   1.083285 S    
C11   C12   1.394452 A    
C70   C76   1.407642 A    
C65   H33   1.083660 S    
C80   C81   1.398265 A    
O6    Cr3   1.926303 S    
O8    C4    1.278017 A    
O11   Cr3   2.043111 S    
N3    N4    1.330822 A    
C2    O5    1.272172 A    
C32   F1    1.357261 S    
N2    C28   1.355794 A    
H2    C13   1.083722 S    
C86   C87   1.398210 A    
C59   C62   1.401968 A    
C91   O16   1.270835 A    
C1    C35   1.470643 S    
N15   O31   1.301429 A    
C43   C47   1.403959 A    
C85   C86   1.396550 A    
O5    Cr3   2.039390 S    
N7    C42   1.355223 A    
C29   C30   1.390175 A    
O4    C2    1.276245 A    
O24   Cr6   2.042784 S    
O7    C6    1.273628 A    
C27   C33   1.475357 S    
C53   C54   1.386787 A    
C13   C14   1.394266 A    
C10   C19   1.430445 S    
O2    C1    1.273934 A    
C4    C77   1.476623 S    
N9    N10   1.331342 A    
C13   C17   1.397710 A    
N15   O32   1.301446 A    
C92   O18   1.271765 A    
N8    C41   1.357733 A    
O3    Cr2   2.041757 S    
C67   C68   1.396221 A    
C88   C89   1.202368 T    
N1    C27   1.356574 A    
C16   C17   1.397276 A    
C43   C44   1.393426 A    
C60   C61   1.410218 A    
N12   C55   1.355624 A    
C78   C79   1.395048 A    
C63   C64   1.406500 A    
O23   Cr5   1.926328 S    
C45   H20   1.083177 S    
N6    C42   1.356560 A    
C65   C66   1.399019 A    
C49   C54   1.406117 A    
C69   F3    1.357687 S    
C79   C80   1.398051 A    
O20   Cr4   2.041035 S    
C7    C8    1.407904 A    
