data_mof_unit_44137.cif
_audit_creation_date              2012-12-10T20:37:32-0500
_audit_creation_method            fapswitch 2.2
_symmetry_space_group_name_H-M    P1
_symmetry_Int_Tables_number       1
_space_group_crystal_system       triclinic
_cell_length_a                    15.715656
_cell_length_b                    10.686909
_cell_length_c                    9.852825
_cell_angle_alpha                 89.849731
_cell_angle_beta                  90.006596
_cell_angle_gamma                 90.154886
_cell_volume                      1654.78780417

loop_
_atom_site_label
_atom_site_type_symbol
_atom_type_description
_atom_site_fract_x
_atom_site_fract_y
_atom_site_fract_z
_atom_type_partial_charge
C1    C     C_R   0.497822 0.260243 0.500287 0.912329
C2    C     C_3   0.082697 0.495772 0.500785 0.149430
C3    C     C_3   0.971785 0.594435 0.573007 -0.179324
C4    C     C_3   0.917241 0.495602 0.500948 0.179053
C5    C     C_3   0.028178 0.602683 0.444353 -0.195137
C6    C     C_3   0.971763 0.504207 0.372307 -0.151431
C7    C     C_1   0.173619 0.496824 0.500192 -0.085827
C8    C     C_1   0.826388 0.496503 0.500531 -0.076820
C9    C     C_R   0.502184 0.062722 0.620151 0.113816
C10   C     C_R   0.486368 0.129166 0.501923 -0.173031
C11   C     C_R   0.454639 0.067268 0.387452 -0.346035
C12   C     C_R   0.337862 0.499679 0.499977 0.911205
C13   C     C_R   0.455181 0.936497 0.383940 0.525973
C14   C     C_R   0.483816 0.871553 0.500578 -0.213859
C15   C     C_R   0.498221 0.935991 0.620977 0.035694
C16   C     C_3   0.565601 0.923898 0.727825 -0.471621
C17   C     C_3   0.571265 0.066594 0.725373 -0.030737
C18   C     C_R   0.462667 0.404146 0.071482 0.209803
C19   C     C_R   0.544283 0.587514 0.071798 -0.119830
C20   C     C_R   0.544216 0.587614 0.927716 -0.144536
C21   C     C_R   0.462710 0.404138 0.928910 0.207724
C22   C     C_3   0.371540 0.365789 0.923030 -0.508677
C23   C     C_R   0.496567 0.739978 0.499728 0.912608
C24   C     C_3   0.371442 0.365913 0.077234 -0.507652
C25   C     C_R   0.662137 0.499626 0.500049 0.897831
C26   C     C_3   0.971445 0.388258 0.557455 -0.177900
C27   C     C_3   0.027925 0.397253 0.428824 -0.200028
C28   C     C_1   0.248931 0.498173 0.499999 -0.184192
C29   C     C_1   0.751073 0.497908 0.500211 -0.191942
C30   C     C_3   0.027493 0.487233 0.627966 0.221317
H1    H     H_    0.052971 0.317119 0.369677 0.143039
H2    H     H_    0.622814 0.872896 0.692416 0.199892
H3    H     H_    0.547927 0.108663 0.821591 0.122791
H4    H     H_    0.578719 0.659474 0.126038 0.144000
H5    H     H_    0.578675 0.659542 0.873144 0.143203
H6    H     H_    0.330058 0.439157 0.878125 0.224149
H7    H     H_    0.363474 0.270868 0.878891 0.196505
H8    H     H_    0.329972 0.439427 0.121436 0.229330
H9    H     H_    0.363138 0.271070 0.121926 0.191962
H10   H     H_    0.946159 0.301040 0.603990 0.131259
H11   H     H_    0.946624 0.511142 0.267243 0.137161
H12   H     H_    0.053416 0.689938 0.397864 0.145875
H13   H     H_    0.946827 0.674598 0.632221 0.131983
H14   H     H_    0.432874 0.119944 0.300218 0.173062
H15   H     H_    0.538900 0.887308 0.824625 0.165068
N1    N     N_R   0.499430 0.499140 0.142800 -0.099192
N2    N     N_R   0.499430 0.499180 0.857150 -0.102827
O1    O     O_R   0.500010 0.316790 0.614690 -0.629418
O2    O     O_R   0.500000 0.316760 0.385350 -0.627274
O3    O     O_R   0.376780 0.500010 0.614650 -0.621248
O4    O     O_R   0.376770 0.499970 0.385310 -0.607364
O5    O     O_R   0.500000 0.683240 0.614650 -0.624621
O6    O     O_R   0.499990 0.683210 0.385310 -0.575056
O7    O     O_R   0.623230 0.500030 0.614690 -0.623355
O8    O     O_R   0.623220 0.499990 0.385350 -0.617099
Zn1   Zn    Zn3+2 0.500010 0.500020 0.653130 0.935205
Zn2   Zn    Zn3+2 0.499990 0.499980 0.346870 0.964716
C31   C     C_3   0.658483 0.121575 0.681720 -0.349032
C32   C     C_3   0.693456 0.078196 0.544243 -0.855132
H16   H     H_    0.702130 0.975422 0.541126 0.248532
H17   H     H_    0.651663 0.107425 0.459514 0.255428
H18   H     H_    0.756665 0.122268 0.527429 0.237230
H19   H     H_    0.653559 0.225201 0.679729 0.215698
H20   H     H_    0.705782 0.097601 0.761403 0.195882
C33   C     C_3   0.062470 0.477666 0.772320 -0.423367
C34   C     C_3   0.990913 0.470819 0.876656 -0.879594
H21   H     H_    0.950877 0.556160 0.871077 0.257297
H22   H     H_    0.950519 0.387099 0.858410 0.257507
H23   H     H_    0.018466 0.463981 0.980192 0.251350
H24   H     H_    0.102540 0.392529 0.780775 0.209022
H25   H     H_    0.102882 0.560813 0.793386 0.210565
O9    O     O_3   0.424417 0.871530 0.272202 -0.579998
C35   C     C_3   0.469674 0.905946 0.153930 -0.304403
H26   H     H_    0.457068 0.834910 0.074524 0.190249
H27   H     H_    0.539748 0.908324 0.171191 0.142127
H28   H     H_    0.447023 0.997054 0.113513 0.150690

loop_
_geom_bond_atom_site_label_1
_geom_bond_atom_site_label_2
_ccdc_geom_bond_type
C34   H22   S    
C5    H12   S    
C18   C21   A    
C35   H26   S    
C2    C7    S    
C4    C8    S    
C19   N1    A    
C3    H13   S    
C26   C27   S    
C12   C28   S    
C18   C24   S    
C8    C29   T    
C5    C6    S    
C34   H23   S    
C33   H24   S    
C24   H9    S    
O2    Zn2   S    
C20   H5    S    
C19   C20   A    
C16   C17   S    
C6    H11   S    
C24   H8    S    
C2    C27   S    
O4    Zn2   S    
C9    C10   A    
C17   C31   S    
C34   H21   S    
C32   H16   S    
C21   C22   S    
C25   C29   S    
C35   H27   S    
C17   H3    S    
C18   N1    A    
C23   O6    A    
C31   H20   S    
O7    Zn1   S    
C32   H17   S    
C27   H1    S    
C20   N2    A    
C25   O7    A    
C4    C6    S    
O6    Zn2   S    
C31   C32   S    
C33   H25   S    
C22   H7    S    
O3    Zn1   S    
C7    C28   T    
C14   C23   S    
C3    C30   S    
C12   O3    A    
C6    C27   S    
C11   H14   S    
C9    C17   S    
C26   C30   S    
O8    Zn2   S    
N1    Zn2   S    
C35   H28   S    
C22   C24   S    
C2    C5    S    
C3    C4    S    
C12   O4    A    
C31   H19   S    
O1    Zn1   S    
C32   H18   S    
C1    C10   S    
C25   O8    A    
O9    C35   S    
C3    C5    S    
C19   H4    S    
C16   H15   S    
C4    C26   S    
C1    O1    A    
C13   O9    S    
C16   H2    S    
C22   H6    S    
C2    C30   S    
C9    C15   A    
C11   C13   A    
C26   H10   S    
C23   O5    A    
C30   C33   S    
C10   C11   A    
O5    Zn1   S    
C33   C34   S    
C14   C15   A    
C13   C14   A    
C1    O2    A    
C15   C16   S    
N2    Zn1   S    
C21   N2    A    
