data_mof_unit_51453.cif
_audit_creation_date              2012-12-11T15:44:53-0500
_audit_creation_method            fapswitch 2.2
_symmetry_space_group_name_H-M    P1
_symmetry_Int_Tables_number       1
_space_group_crystal_system       triclinic
_cell_length_a                    18.977152
_cell_length_b                    10.975459
_cell_length_c                    18.75489
_cell_angle_alpha                 89.692146
_cell_angle_beta                  89.785297
_cell_angle_gamma                 89.928071
_cell_volume                      3906.23709208

loop_
_atom_site_label
_atom_site_type_symbol
_atom_type_description
_atom_site_fract_x
_atom_site_fract_y
_atom_site_fract_z
_atom_type_partial_charge
C1    C     C_R   0.762683 0.528583 0.644377 0.540836
C2    C     C_R   0.275767 0.925638 0.510081 -0.176261
C3    C     C_R   0.458833 0.936118 0.972545 0.049140
C4    C     C_R   0.007324 0.234669 0.962826 -0.181273
C5    C     C_R   0.011550 0.229501 0.037128 -0.163948
C6    C     C_R   0.507323 0.734670 0.962826 -0.181485
C7    C     C_R   0.511549 0.729502 0.037128 -0.163862
C8    C     C_3   0.969541 0.566571 0.051211 -0.278428
C9    C     C_3   0.971025 0.570376 0.970361 -0.263079
C10   C     C_3   0.469542 0.066571 0.051211 -0.278538
C11   C     C_3   0.471026 0.070377 0.970361 -0.263041
C12   C     C_R   0.760555 0.530042 0.853099 0.544848
C13   C     C_R   0.314892 0.572890 0.454665 -0.180206
C14   C     C_R   0.226047 0.482564 0.140464 0.567239
C15   C     C_R   0.260555 0.030044 0.853097 0.552194
C16   C     C_R   0.726046 0.982564 0.140464 0.567201
C17   C     C_R   0.771720 0.122920 0.852193 0.546425
C18   C     C_R   0.228200 0.125736 0.147200 0.541015
C19   C     C_R   0.271720 0.622921 0.852193 0.548022
C20   C     C_R   0.728199 0.625738 0.147200 0.541806
C21   C     C_R   0.968487 0.347166 0.854716 0.545831
C22   C     C_R   0.029124 0.346284 0.147087 0.541277
C23   C     C_R   0.468487 0.847166 0.854715 0.546431
C24   C     C_R   0.772236 0.457670 0.521293 -0.140975
C25   C     C_R   0.529124 0.846284 0.147087 0.541179
C26   C     C_R   0.750480 0.093855 0.420763 -0.001887
C27   C     C_R   0.273107 0.013974 0.564097 0.026803
C28   C     C_R   0.248678 0.586311 0.423057 0.000956
C29   C     C_R   0.761748 0.553790 0.569851 0.041632
C30   C     C_R   0.691240 0.111321 0.464404 0.024349
C31   C     C_R   0.270099 0.136256 0.544850 0.040809
C32   C     C_R   0.189101 0.599690 0.466723 0.027190
C33   C     C_R   0.757196 0.671968 0.544963 -0.001633
C34   C     C_R   0.697910 0.117822 0.537598 -0.000736
C35   C     C_3   0.637710 0.211123 0.463031 -0.269444
C36   C     C_R   0.258021 0.169269 0.475347 0.033778
C37   C     C_R   0.195967 0.607403 0.539906 0.000003
C38   C     C_R   0.747652 0.691707 0.473425 0.035203
C39   C     C_3   0.937923 0.809956 0.612857 -0.314270
C40   C     C_3   0.949663 0.766420 0.329245 -0.282781
C41   C     C_3   0.439148 0.304560 0.617481 -0.317292
C42   C     C_3   0.448679 0.265887 0.328341 -0.280730
C43   C     C_3   0.225727 0.237143 0.573433 -0.272901
C44   C     C_3   0.134406 0.697735 0.465462 -0.267979
C45   C     C_3   0.707386 0.770654 0.565536 -0.295095
C46   C     C_3   0.645157 0.218006 0.543391 -0.264008
C47   C     C_3   0.211645 0.272713 0.496424 -0.273626
C48   C     C_3   0.142489 0.706341 0.545663 -0.266150
C49   C     C_R   0.239067 0.534909 0.353249 0.549919
C50   C     C_3   0.695495 0.790421 0.486393 -0.254255
C51   C     C_R   0.763556 0.103323 0.569656 0.002428
C52   C     C_R   0.249450 0.081994 0.422489 0.041492
C53   C     C_R   0.261888 0.595593 0.571641 0.003693
C54   C     C_R   0.745417 0.595391 0.425218 0.047000
C55   C     C_R   0.986945 0.328167 0.419206 -0.035273
C56   C     C_R   0.990887 0.348890 0.568573 -0.022227
C57   C     C_R   0.486093 0.828870 0.418850 -0.036745
C58   C     C_R   0.491055 0.847542 0.568434 -0.024546
C59   C     C_R   0.009323 0.106132 0.432259 -0.088544
C60   C     C_R   0.276228 0.979819 0.638405 0.558612
C61   C     C_R   0.036639 0.138703 0.576404 -0.111683
C62   C     C_R   0.504878 0.606012 0.430362 -0.092659
C63   C     C_R   0.531929 0.633909 0.574925 -0.110844
C64   C     C_R   0.034268 0.009215 0.473305 -0.101889
C65   C     C_R   0.050276 0.026769 0.544663 -0.110481
C66   C     C_R   0.528384 0.507200 0.470649 -0.105144
C67   C     C_R   0.544239 0.522352 0.542226 -0.107718
C68   C     C_R   0.008851 0.237075 0.536302 -0.006384
C69   C     C_R   0.001033 0.223686 0.461924 0.004845
C70   C     C_R   0.506130 0.734746 0.535525 -0.005067
C71   C     C_R   0.739614 0.036858 0.352364 0.545255
C72   C     C_R   0.498115 0.723066 0.460973 0.002308
C73   C     C_R   0.972947 0.452439 0.524193 -0.020014
C74   C     C_R   0.961946 0.434922 0.451241 -0.031674
C75   C     C_R   0.475141 0.952362 0.524441 -0.021536
C76   C     C_R   0.462997 0.936239 0.451589 -0.027631
C77   C     C_R   0.775434 0.130173 0.643908 0.543502
C78   C     C_R   0.227700 0.122856 0.352834 0.549731
C79   C     C_R   0.274590 0.627599 0.644908 0.539759
C80   C     C_R   0.727527 0.623704 0.352986 0.548538
C81   C     C_R   0.966675 0.574068 0.549373 -0.080538
C82   C     C_R   0.822914 0.081875 0.526136 -0.167827
C83   C     C_R   0.932547 0.529032 0.409336 -0.076047
C84   C     C_R   0.471338 0.073728 0.550145 -0.082417
C85   C     C_R   0.434458 0.032070 0.410455 -0.070251
C86   C     C_R   0.938360 0.669955 0.507968 0.146730
C87   C     C_R   0.923017 0.646801 0.435702 0.156245
C88   C     C_R   0.442636 0.170783 0.509999 0.144326
C89   C     C_R   0.426485 0.149780 0.437579 0.155152
C90   C     C_R   0.731067 0.006013 0.063817 0.017560
C91   C     C_R   0.252965 0.059329 0.927991 0.022107
C92   C     C_R   0.231067 0.506013 0.063817 0.017580
C93   C     C_R   0.262735 0.959336 0.438953 -0.165639
C94   C     C_R   0.752963 0.559331 0.927991 0.023603
C95   C     C_R   0.790957 0.968250 0.027052 0.011276
C96   C     C_R   0.221074 0.972141 0.972110 0.044165
C97   C     C_R   0.290957 0.468250 0.027052 0.011315
C98   C     C_R   0.721071 0.472145 0.972110 0.045152
C99   C     C_R   0.799697 0.994102 0.955920 0.021175
C100  C     C_R   0.220088 0.983193 0.045072 0.021903
C101  C     C_R   0.299697 0.494101 0.955919 0.021395
C102  C     C_R   0.720085 0.483196 0.045071 0.021726
C103  C     C_R   0.684274 0.083958 0.951066 -0.164981
C104  C     C_R   0.321235 0.574268 0.528005 -0.176205
C105  C     C_R   0.291135 0.163808 0.034212 -0.166964
C106  C     C_R   0.184274 0.583955 0.951065 -0.164864
C107  C     C_R   0.791134 0.663810 0.034211 -0.167148
C108  C     C_R   0.675236 0.056139 0.023942 -0.159110
C109  C     C_R   0.291620 0.152451 0.959904 -0.167930
C110  C     C_R   0.175236 0.556137 0.023941 -0.159113
C111  C     C_R   0.791618 0.652453 0.959903 -0.167942
C112  C     C_3   0.867110 0.988446 0.043428 -0.270120
C113  C     C_3   0.148487 0.920427 0.970122 -0.267680
C114  C     C_3   0.367111 0.488445 0.043427 -0.270208
C115  C     C_R   0.762814 0.478109 0.448315 -0.173231
C116  C     C_3   0.648483 0.420432 0.970121 -0.267664
C117  C     C_3   0.876979 0.015425 0.965037 -0.264245
C118  C     C_3   0.148244 0.927632 0.050748 -0.274780
C119  C     C_3   0.376979 0.515423 0.965036 -0.264285
C120  C     C_3   0.648241 0.427636 0.050747 -0.274867
C121  C     C_R   0.749685 0.062947 0.918374 0.019068
C122  C     C_R   0.250470 0.084721 0.077149 0.016882
C123  C     C_R   0.249685 0.562946 0.918374 0.019166
C124  C     C_R   0.750469 0.584724 0.077148 0.016697
C125  C     C_R   0.968918 0.348412 0.644688 0.533798
C126  C     C_R   0.816607 0.079460 0.452639 -0.174060
C127  C     C_R   0.025882 0.343963 0.351236 0.532017
C128  C     C_R   0.469144 0.848104 0.644707 0.525470
C129  C     C_R   0.525620 0.844086 0.351081 0.528523
C130  C     C_R   0.995514 0.333288 0.078496 0.017650
C131  C     C_R   0.985294 0.342499 0.929701 0.021070
C132  C     C_R   0.495514 0.833288 0.078496 0.017550
C133  C     C_R   0.485294 0.842499 0.929701 0.020684
C134  C     C_R   0.961782 0.431166 0.045479 0.017037
C135  C     C_R   0.958832 0.436117 0.972546 0.049124
C136  C     C_R   0.461783 0.931166 0.045479 0.016955
Cr1   Cr    Cr6+3 0.885860 0.491680 0.749630 0.995871
Cr2   Cr    Cr6+3 0.112430 0.179310 0.249850 0.988747
Cr3   Cr    Cr6+3 0.387570 0.679310 0.750150 0.990087
Cr4   Cr    Cr6+3 0.612430 0.679310 0.249850 0.988511
Cr5   Cr    Cr6+3 0.114140 0.491680 0.250370 0.992554
Cr6   Cr    Cr6+3 0.385860 0.991680 0.749630 0.992019
Cr7   Cr    Cr6+3 0.614140 0.991680 0.250370 0.992506
Cr8   Cr    Cr6+3 0.730490 0.332970 0.748720 0.997148
Cr9   Cr    Cr6+3 0.269510 0.332970 0.251280 0.997466
Cr10  Cr    Cr6+3 0.230490 0.832970 0.748720 0.992881
Cr11  Cr    Cr6+3 0.769510 0.832970 0.251280 0.996712
Cr12  Cr    Cr6+3 0.887570 0.179310 0.750150 0.995992
H1    H     H_    0.875197 0.072307 0.548399 0.163653
H2    H     H_    0.320368 0.217751 0.927574 0.119637
H3    H     H_    0.127023 0.580926 0.049986 0.125918
H4    H     H_    0.820367 0.717752 0.927573 0.119248
H5    H     H_    0.894788 0.904305 0.060948 0.124007
H6    H     H_    0.147798 0.826312 0.949807 0.146448
H7    H     H_    0.394788 0.404304 0.060947 0.123955
H8    H     H_    0.647793 0.326317 0.949805 0.146497
H9    H     H_    0.876065 0.069430 0.077633 0.159445
H10   H     H_    0.110007 0.983173 0.944500 0.129661
H11   H     H_    0.376066 0.569429 0.077631 0.159411
H12   H     H_    0.260780 0.890412 0.397921 0.112825
H13   H     H_    0.610004 0.483179 0.944500 0.129318
H14   H     H_    0.891066 0.111636 0.954248 0.170334
H15   H     H_    0.107134 0.989773 0.071365 0.152032
H16   H     H_    0.391067 0.611633 0.954246 0.170380
H17   H     H_    0.607131 0.489778 0.071364 0.152010
H18   H     H_    0.909549 0.946254 0.936966 0.129716
H19   H     H_    0.149641 0.836562 0.076980 0.140099
H20   H     H_    0.409549 0.446250 0.936964 0.129808
H21   H     H_    0.649637 0.336567 0.076979 0.140233
H22   H     H_    0.022218 0.156004 0.931559 0.118104
H23   H     H_    0.373744 0.566017 0.549905 0.167385
H24   H     H_    0.033532 0.148653 0.061281 0.134320
H25   H     H_    0.522217 0.656004 0.931559 0.117790
H26   H     H_    0.533531 0.648653 0.061281 0.134304
H27   H     H_    0.018594 0.598972 0.075831 0.149726
H28   H     H_    0.927004 0.621453 0.946277 0.151351
H29   H     H_    0.518594 0.098972 0.075832 0.149773
H30   H     H_    0.427006 0.121455 0.946277 0.151288
H31   H     H_    0.921892 0.608930 0.074675 0.135420
H32   H     H_    0.023528 0.593963 0.948122 0.125861
H33   H     H_    0.421893 0.108930 0.074676 0.135103
H34   H     H_    0.766811 0.403403 0.411038 0.109659
H35   H     H_    0.523529 0.093963 0.948123 0.125810
H36   H     H_    0.862881 0.059538 0.420838 0.133385
H37   H     H_    0.284595 0.831066 0.523235 0.124759
H38   H     H_    0.361342 0.555456 0.422674 0.134579
H39   H     H_    0.784279 0.366630 0.540115 0.130029
H40   H     H_    0.082237 0.662264 0.448884 0.161116
H41   H     H_    0.734980 0.847635 0.591556 0.143412
H42   H     H_    0.585288 0.177599 0.445852 0.158617
H43   H     H_    0.257576 0.305698 0.602479 0.144204
H44   H     H_    0.656346 0.293982 0.434518 0.133160
H45   H     H_    0.642628 0.128907 0.921926 0.108601
H46   H     H_    0.178342 0.203896 0.602407 0.150645
H47   H     H_    0.151870 0.780751 0.436328 0.131590
H48   H     H_    0.660506 0.736433 0.594761 0.137484
H49   H     H_    0.667637 0.305118 0.562020 0.164221
H50   H     H_    0.155997 0.260015 0.479845 0.156581
H51   H     H_    0.164635 0.794436 0.563396 0.160100
H52   H     H_    0.641818 0.766382 0.468140 0.159560
H53   H     H_    0.597644 0.188841 0.572940 0.128186
H54   H     H_    0.235433 0.360831 0.481350 0.154436
H55   H     H_    0.095666 0.676360 0.576029 0.127647
H56   H     H_    0.318343 0.239498 0.057724 0.135182
H57   H     H_    0.715733 0.877857 0.466767 0.154589
H58   H     H_    0.041813 0.920615 0.449547 0.126899
H59   H     H_    0.072053 0.952927 0.575973 0.125510
H60   H     H_    0.534987 0.418994 0.446111 0.129042
H61   H     H_    0.565097 0.447032 0.572923 0.126908
H62   H     H_    0.995253 0.087342 0.377598 0.126283
H63   H     H_    0.050249 0.148551 0.632022 0.126342
H64   H     H_    0.490948 0.589331 0.375414 0.126126
H65   H     H_    0.545786 0.641618 0.630587 0.124815
H66   H     H_    0.918612 0.511219 0.354392 0.130034
H67   H     H_    0.142628 0.628903 0.921924 0.108726
H68   H     H_    0.988723 0.598679 0.599585 0.149232
H69   H     H_    0.419436 0.015034 0.355750 0.128939
H70   H     H_    0.494821 0.096346 0.600120 0.148676
H71   H     H_    0.880695 0.830384 0.520651 0.253349
H72   H     H_    0.924781 0.905898 0.625815 0.161006
H73   H     H_    0.994155 0.795882 0.626565 0.124757
H74   H     H_    0.903622 0.749421 0.645499 0.165510
H75   H     H_    0.881057 0.819305 0.409278 0.264559
H76   H     H_    0.928266 0.841557 0.295797 0.138201
H77   H     H_    0.956150 0.685358 0.294724 0.149367
H78   H     H_    0.818342 0.739500 0.057723 0.135236
H79   H     H_    0.001839 0.794398 0.350155 0.118839
H80   H     H_    0.384011 0.329322 0.524528 0.252092
H81   H     H_    0.424790 0.399305 0.632106 0.158703
H82   H     H_    0.495091 0.291010 0.632481 0.123503
H83   H     H_    0.404593 0.241210 0.647889 0.172599
H84   H     H_    0.388796 0.326225 0.413231 0.259355
H85   H     H_    0.428233 0.344848 0.297379 0.137422
H86   H     H_    0.448135 0.185532 0.292744 0.147543
H87   H     H_    0.503661 0.285751 0.344695 0.118344
H88   H     H_    0.627023 0.080928 0.049987 0.125945
N1    N     N_2   0.926324 0.788867 0.537581 -0.529989
N2    N     N_2   0.901557 0.741159 0.387587 -0.493331
N3    N     N_2   0.429682 0.287956 0.541474 -0.532579
N4    N     N_2   0.404640 0.245744 0.390564 -0.495462
O1    O     O_R   0.957020 0.451640 0.669920 -0.537379
O2    O     O_R   0.168040 0.093290 0.169870 -0.524913
O3    O     O_R   0.331960 0.593290 0.830130 -0.520870
O4    O     O_R   0.668040 0.593290 0.169870 -0.524589
O5    O     O_R   0.945600 0.250580 0.824860 -0.507746
O6    O     O_R   0.054400 0.250580 0.175140 -0.513799
O7    O     O_R   0.445600 0.750580 0.824860 -0.506259
O8    O     O_R   0.554400 0.750580 0.175140 -0.513679
O9    O     O_3   0.834640 0.334650 0.749500 -0.242405
O10   O     O_3   0.165360 0.334650 0.250500 -0.257818
O11   O     O_3   0.334640 0.834650 0.749500 -0.260320
O12   O     O_R   0.042980 0.451640 0.330080 -0.519880
O13   O     O_3   0.665360 0.834650 0.250500 -0.258031
O14   O     O_R   0.821450 0.543440 0.674610 -0.503955
O15   O     O_R   0.178550 0.543440 0.325390 -0.490749
O16   O     O_R   0.321450 0.043440 0.674610 -0.503685
O17   O     O_R   0.678550 0.043440 0.325390 -0.490069
O18   O     O_R   0.715320 0.458650 0.668100 -0.538020
O19   O     O_R   0.284680 0.458650 0.331900 -0.524624
O20   O     O_R   0.215320 0.958650 0.668100 -0.533608
O21   O     O_R   0.784680 0.958650 0.331900 -0.527688
O22   O     O_R   0.737170 0.209590 0.674530 -0.506125
O23   O     O_R   0.457020 0.951640 0.669920 -0.542009
O24   O     O_R   0.262830 0.209590 0.325470 -0.474124
O25   O     O_R   0.237170 0.709590 0.674530 -0.519813
O26   O     O_R   0.762830 0.709590 0.325470 -0.475384
O27   O     O_R   0.832710 0.092740 0.669580 -0.535699
O28   O     O_R   0.167290 0.092740 0.330420 -0.522049
O29   O     O_R   0.332710 0.592740 0.669580 -0.534697
O30   O     O_R   0.667290 0.592740 0.330420 -0.522125
O31   O     O_R   0.946290 0.250060 0.676040 -0.502718
O32   O     O_R   0.053710 0.250060 0.323960 -0.506027
O33   O     O_R   0.446290 0.750060 0.676040 -0.504054
O34   O     O_R   0.542980 0.951640 0.330080 -0.518974
O35   O     O_R   0.553710 0.750060 0.323960 -0.506449
O36   O     O_R   0.956270 0.452200 0.830470 -0.519488
O37   O     O_R   0.043730 0.452200 0.169530 -0.539306
O38   O     O_R   0.456270 0.952200 0.830470 -0.519044
O39   O     O_R   0.543730 0.952200 0.169530 -0.539117
O40   O     O_R   0.820760 0.543950 0.823440 -0.505722
O41   O     O_R   0.179240 0.543950 0.176560 -0.508602
O42   O     O_R   0.320760 0.043950 0.823440 -0.501776
O43   O     O_R   0.679240 0.043950 0.176560 -0.508442
O44   O     O_R   0.714570 0.459210 0.828640 -0.519541
O45   O     O_R   0.736470 0.210100 0.823360 -0.502551
O46   O     O_R   0.285430 0.459210 0.171360 -0.525791
O47   O     O_R   0.214570 0.959210 0.828640 -0.516137
O48   O     O_R   0.785430 0.959210 0.171360 -0.525562
O49   O     O_R   0.263530 0.210100 0.176640 -0.526742
O50   O     O_R   0.236470 0.710100 0.823360 -0.502183
O51   O     O_R   0.763530 0.710100 0.176640 -0.525524
O52   O     O_R   0.831960 0.093290 0.830130 -0.522049

loop_
_geom_bond_atom_site_label_1
_geom_bond_atom_site_label_2
_ccdc_geom_bond_type
Cr1   O40   S    
C35   H44   S    
C33   C45   S    
C74   C83   A    
C25   O39   A    
Cr3   O7    S    
C22   O37   A    
C90   C95   A    
Cr2   O32   S    
Cr3   O29   S    
C48   H55   S    
C125  O31   A    
C43   H46   S    
C57   C76   A    
C49   O15   A    
C95   C99   A    
C81   H68   S    
C107  H78   S    
C29   C33   A    
C94   C111  A    
C36   C47   S    
C26   C126  A    
C91   C96   A    
C55   C74   A    
C41   H83   S    
C47   H50   S    
C15   O47   A    
Cr6   O11   S    
C12   O40   A    
C81   C86   A    
C59   H62   S    
C19   O3    A    
C99   C121  A    
Cr1   O1    S    
C87   N2    S    
C22   C130  S    
C26   C71   S    
C129  O34   A    
C130  C134  A    
C107  C124  A    
C73   C81   A    
C23   O38   A    
C8    H27   S    
C48   H51   S    
C27   C31   A    
C28   C32   A    
C42   N4    S    
C58   C70   A    
C105  H56   S    
Cr11  O51   S    
C98   C102  A    
C88   N3    S    
Cr4   O4    S    
C101  C119  S    
C75   C76   A    
Cr2   O6    S    
Cr9   O10   S    
C117  H18   S    
Cr9   O24   S    
C1    C29   S    
Cr9   O46   S    
C7    C132  A    
C84   H70   S    
C12   O44   A    
C104  H23   S    
C5    C130  A    
C17   O52   A    
C35   H42   S    
Cr6   O23   S    
C103  C121  A    
C21   O36   A    
C1    O14   A    
C1    O18   A    
C56   C73   A    
C78   O24   A    
C84   C88   A    
C4    C5    A    
C6    C7    A    
Cr7   O43   S    
C33   C38   A    
Cr10  O11   S    
C95   C112  S    
C60   O20   A    
Cr6   O42   S    
C83   H66   S    
H71   N1    S    
C45   C50   S    
Cr12  O5    S    
C67   H61   S    
C128  O33   A    
C116  H8    S    
C3    C11   S    
C15   C91   S    
C61   C65   A    
C88   C89   A    
C62   H64   S    
C31   C36   A    
Cr4   O13   S    
C43   C47   S    
C76   C85   A    
C44   C48   S    
Cr8   O9    S    
C58   C128  S    
Cr9   O19   S    
Cr10  O20   S    
C30   C34   A    
C19   C123  S    
C34   C51   A    
C79   O29   A    
C4    H22   S    
C9    H28   S    
C24   H39   S    
C80   O26   A    
Cr12  O27   S    
C120  H21   S    
C53   C104  A    
C118  H19   S    
C60   O16   A    
Cr6   O16   S    
C3    C136  A    
C28   C49   S    
C128  O23   A    
C40   N2    S    
Cr10  O47   S    
C46   H53   S    
C82   C126  A    
C19   O50   A    
Cr7   O34   S    
C39   H74   S    
C34   C46   S    
Cr11  O21   S    
Cr3   O3    S    
C114  C119  S    
C36   C52   A    
C37   C53   A    
C45   H48   S    
C66   C67   A    
C89   N4    S    
C92   C97   A    
C14   O41   A    
C62   C66   A    
C8    C134  S    
C116  H13   S    
C22   O6    A    
C56   C68   A    
Cr11  O13   S    
C116  C120  S    
C47   H54   S    
Cr10  O25   S    
C99   C117  S    
C42   H87   S    
C132  C136  A    
C52   C93   A    
C32   C37   A    
C55   C69   A    
C9    C135  S    
C55   C127  S    
C26   C30   A    
C39   N1    S    
C115  H34   S    
C10   H33   S    
C105  C109  A    
Cr4   O8    S    
C10   H29   S    
C107  C111  A    
C41   H81   S    
Cr2   O10   S    
C119  H16   S    
C134  C135  A    
C65   H59   S    
C117  H14   S    
C71   O17   A    
C112  H5    S    
C109  H2    S    
C2    H37   S    
C90   C108  A    
C49   O19   A    
C92   C110  A    
C14   O46   A    
C96   C100  A    
C5    H24   S    
C105  C122  A    
C23   O7    A    
C20   C124  S    
C82   H1    S    
C10   C11   S    
C25   O8    A    
C41   H82   S    
Cr7   O13   S    
Cr3   O33   S    
C15   O42   A    
C97   C114  S    
C25   C132  S    
C83   C87   A    
C108  H88   S    
C16   C90   S    
C73   C74   A    
Cr7   O17   S    
C113  H6    S    
Cr8   O22   S    
C111  H4    S    
Cr6   O38   S    
Cr12  O9    S    
Cr4   O35   S    
C6    C133  A    
C27   C60   S    
C112  C117  S    
C42   H85   S    
C102  C124  A    
C94   C98   A    
Cr12  O52   S    
C7    H26   S    
C127  O12   A    
C24   C29   A    
C21   C131  S    
C68   C69   A    
C13   C28   A    
C2    C27   A    
Cr1   O14   S    
C18   O2    A    
Cr5   O10   S    
Cr12  O31   S    
C12   C94   S    
Cr11  O26   S    
C52   C78   S    
C120  H17   S    
C54   C80   S    
C118  H15   S    
C112  H9    S    
C110  H3    S    
C77   O22   A    
C85   C89   A    
C86   C87   A    
C46   H49   S    
C64   H58   S    
C93   H12   S    
C51   C77   S    
C66   H60   S    
C38   C54   A    
C54   C115  A    
C56   C125  S    
C13   C104  A    
Cr5   O41   S    
C31   C43   S    
C17   C121  S    
C59   C69   A    
C96   C113  S    
C129  O35   A    
C100  C118  S    
C114  H7    S    
C102  C120  S    
C41   N3    S    
C20   O4    A    
C44   H47   S    
C13   H38   S    
Cr1   O9    S    
C6    H25   S    
Cr1   O36   S    
C64   C65   A    
C16   O43   A    
C8    H31   S    
Cr2   O28   S    
Cr4   O30   S    
C57   C72   A    
C75   C84   A    
Cr5   O12   S    
C39   H73   S    
C103  H45   S    
C35   C46   S    
C119  H20   S    
C71   O21   A    
Cr10  O50   S    
C126  H36   S    
C106  H67   S    
C59   C64   A    
C101  C123  A    
C30   C35   S    
C40   H76   S    
C57   C129  S    
C53   C79   S    
C10   C136  S    
C131  C135  A    
C86   N1    S    
C61   H63   S    
C40   H77   S    
C85   H69   S    
C8    C9    S    
C106  C123  A    
Cr8   O44   S    
C125  O1    A    
C103  C108  A    
C113  H10   S    
C16   O48   A    
Cr8   O18   S    
C100  C122  A    
Cr2   O2    S    
C43   H43   S    
C58   C75   A    
C4    C131  A    
C18   O49   A    
C63   C67   A    
C23   C133  S    
Cr5   O15   S    
C39   H72   S    
C11   H35   S    
H80   N3    S    
C50   H52   S    
C21   O5    A    
C77   O27   A    
C3    C133  A    
C78   O28   A    
C17   O45   A    
C98   C116  S    
C63   C70   A    
Cr7   O39   S    
C32   C44   S    
C62   C72   A    
C11   H30   S    
C63   H65   S    
C37   C48   S    
C51   C82   A    
C14   C92   S    
C9    H32   S    
Cr9   O49   S    
C44   H40   S    
Cr11  O48   S    
C45   H41   S    
C18   C122  S    
C127  O32   A    
C106  C110  A    
Cr8   O45   S    
C20   O51   A    
C2    C93   A    
Cr3   O11   S    
H75   N2    S    
C38   C50   S    
C91   C109  A    
C40   H79   S    
Cr5   O37   S    
C42   H86   S    
C61   C68   A    
C79   O25   A    
C80   O30   A    
C114  H11   S    
C113  C118  S    
C50   H57   S    
C24   C115  A    
H84   N4    S    
C70   C72   A    
C97   C101  A    
