data_mof_unit_13503.cif
_audit_creation_date              2012-12-10T17:44:36-0500
_audit_creation_method            fapswitch 2.2
_symmetry_space_group_name_H-M    P1
_symmetry_Int_Tables_number       1
_space_group_crystal_system       triclinic
_cell_length_a                    9.892798
_cell_length_b                    10.728016
_cell_length_c                    15.558746
_cell_angle_alpha                 91.530251
_cell_angle_beta                  67.806763
_cell_angle_gamma                 89.65162
_cell_volume                      1528.14009773

loop_
_atom_site_label
_atom_site_type_symbol
_atom_type_description
_atom_site_fract_x
_atom_site_fract_y
_atom_site_fract_z
_atom_type_partial_charge
C1    C     C_R   0.502342 0.739912 0.493596 0.864710
C2    C     C_R   0.711033 0.595175 0.043667 0.168588
C3    C     C_R   0.573295 0.542699 0.093360 0.091775
C4    C     C_R   0.408404 0.501334 0.675938 0.898020
C5    C     C_R   0.813790 0.609239 0.085433 -0.215155
C6    C     C_R   0.780151 0.572400 0.176395 -0.210836
C7    C     C_R   0.548425 0.495780 0.180551 -0.248573
C8    C     C_R   0.258223 0.889207 0.471101 -0.162574
C9    C     C_R   0.123184 0.950459 0.497737 -0.149566
C10   C     C_R   0.099802 0.063277 0.547466 -0.154498
C11   C     C_R   0.215752 0.120461 0.562061 -0.143391
C12   C     C_R   0.403836 0.540135 0.916747 0.106123
C13   C     C_R   0.357184 0.064377 0.526965 0.090818
C14   C     C_R   0.372207 0.940337 0.494770 0.097655
C15   C     C_R   0.500418 0.873673 0.488707 -0.118257
C16   C     C_R   0.494395 0.260933 0.508998 0.886284
C17   C     C_R   0.620789 0.936226 0.493789 -0.223545
C18   C     C_R   0.615279 0.063160 0.505795 -0.213477
C19   C     C_R   0.485724 0.128210 0.519820 -0.126226
C20   C     C_R   0.790788 0.670682 0.617651 -0.181862
C21   C     C_R   0.827845 0.754039 0.674904 -0.247818
C22   C     C_R   0.966020 0.749397 0.677523 -0.164625
C23   C     C_R   0.259247 0.504944 0.970629 0.085641
C24   C     C_R   0.069199 0.663587 0.620960 -0.091192
C25   C     C_R   0.037361 0.581679 0.559140 0.153127
C26   C     C_R   0.893168 0.583256 0.558292 0.182385
C27   C     C_R   0.962213 0.420768 0.444031 -0.136177
C28   C     C_R   0.591257 0.500528 0.324257 0.873977
C29   C     C_R   0.105587 0.421126 0.443804 -0.120627
C30   C     C_R   0.350441 0.507861 0.777448 -0.192202
C31   C     C_R   0.645742 0.517277 0.224393 -0.059000
C32   C     C_R   0.160227 0.478097 0.927906 -0.311046
C33   C     C_R   0.205030 0.480281 0.831618 0.617596
C34   C     C_R   0.504329 0.565778 0.959911 0.084311
C35   C     C_R   0.446862 0.539506 0.820394 -0.357359
C36   C     C_R   0.465020 0.537377 0.054387 0.065529
C37   C     C_R   0.318036 0.507650 0.107359 -0.225608
C38   C     C_R   0.216571 0.493659 0.066069 -0.206980
C39   C     C_R   0.642604 0.618475 0.911909 -0.215545
C40   C     C_R   0.743297 0.634290 0.953680 -0.196150
F1    F     F_    0.108375 0.450005 0.791842 -0.670311
H1    H     H_    0.105524 0.469569 0.108606 0.148565
H2    H     H_    0.680688 0.677546 0.622982 0.207230
H3    H     H_    0.747532 0.820899 0.719094 0.157249
H4    H     H_    0.451471 0.443917 0.217019 0.148672
H5    H     H_    0.993549 0.812585 0.723632 0.152205
H6    H     H_    0.172644 0.664047 0.627325 0.202242
H7    H     H_    0.187163 0.356677 0.397941 0.150380
H8    H     H_    0.847420 0.676027 0.914935 0.161090
H9    H     H_    0.049601 0.451187 0.968739 0.176514
H10   H     H_    0.558441 0.556735 0.776827 0.190846
H11   H     H_    0.277088 0.498015 0.181640 0.143974
H12   H     H_    0.917859 0.652285 0.048867 0.144564
H13   H     H_    0.856306 0.590749 0.209974 0.156068
H14   H     H_    0.674010 0.652913 0.842955 0.160390
H15   H     H_    0.720391 0.887404 0.487710 0.171600
H16   H     H_    0.272174 0.804064 0.429838 0.169289
H17   H     H_    0.035758 0.908838 0.481636 0.142584
H18   H     H_    0.993167 0.108370 0.572213 0.145899
H19   H     H_    0.193074 0.207803 0.601636 0.185296
H20   H     H_    0.713510 0.110232 0.502811 0.169937
H21   H     H_    0.935806 0.356086 0.398384 0.144338
N1    N     N_R   0.856800 0.501200 0.500850 -0.116291
N2    N     N_R   0.142390 0.501280 0.500880 -0.122922
O1    O     O_R   0.385310 0.683220 0.500000 -0.656345
O2    O     O_R   0.614640 0.683250 0.500010 -0.640734
O3    O     O_R   0.319840 0.499980 0.632240 -0.581375
O4    O     O_R   0.549160 0.500000 0.632250 -0.637787
O5    O     O_R   0.385360 0.316750 0.499990 -0.623358
O6    O     O_R   0.614690 0.316780 0.500000 -0.615519
O7    O     O_R   0.450840 0.500000 0.367750 -0.619451
O8    O     O_R   0.680160 0.500020 0.367760 -0.613594
Zn1   Zn    Zn3+2 0.346880 0.499980 0.499990 0.943765
Zn2   Zn    Zn3+2 0.653120 0.500020 0.500010 0.930746

loop_
_geom_bond_atom_site_label_1
_geom_bond_atom_site_label_2
_ccdc_geom_bond_type
C27   C29   A    
C12   C23   A    
C30   C35   A    
C7    H4    S    
C5    H12   S    
C36   C37   A    
C38   H1    S    
C3    C7    A    
C5    C6    A    
O4    Zn2   S    
C40   H8    S    
O2    Zn2   S    
O1    Zn1   S    
C9    H17   S    
C39   H14   S    
C8    C9    A    
O6    Zn2   S    
C1    O1    A    
N2    Zn1   S    
O5    Zn1   S    
C1    C15   S    
C9    C10   A    
C6    C31   A    
C29   N2    A    
C13   C14   A    
C28   O8    A    
C6    H13   S    
C1    O2    A    
C7    C31   A    
C13   C19   A    
C29   H7    S    
C34   C39   A    
C16   O6    A    
C24   C25   A    
O8    Zn2   S    
C39   C40   A    
C4    O4    A    
C37   H11   S    
C18   C19   A    
C25   C26   A    
C25   N2    A    
C26   N1    A    
C37   C38   A    
C27   H21   S    
C8    H16   S    
C21   H3    S    
C17   C18   A    
C12   C35   A    
C17   H15   S    
C32   H9    S    
C27   N1    A    
O3    Zn1   S    
C22   H5    S    
C35   H10   S    
C22   C24   A    
C2    C5    A    
C12   C34   A    
C11   H19   S    
C20   H2    S    
O7    Zn1   S    
C15   C17   A    
C8    C14   A    
C30   C33   A    
C24   H6    S    
C28   C31   S    
C16   O5    A    
C4    O3    A    
C18   H20   S    
N1    Zn2   S    
C23   C38   A    
C33   F1    S    
C23   C32   A    
C2    C3    A    
C32   C33   A    
C11   C13   A    
C20   C26   A    
C3    C36   A    
C16   C19   S    
C10   H18   S    
C34   C36   A    
C10   C11   A    
C28   O7    A    
C2    C40   A    
C20   C21   A    
C14   C15   A    
C21   C22   A    
C4    C30   S    
