data_mof_unit_63872.cif
_audit_creation_date              2012-12-10T16:35:07-0500
_audit_creation_method            fapswitch 2.2
_symmetry_space_group_name_H-M    P1
_symmetry_Int_Tables_number       1
_space_group_crystal_system       triclinic
_cell_length_a                    10.908998
_cell_length_b                    10.834088
_cell_length_c                    10.831664
_cell_angle_alpha                 80.606674
_cell_angle_beta                  98.106277
_cell_angle_gamma                 90.67209
_cell_volume                      1250.3150002

loop_
_atom_site_label
_atom_site_type_symbol
_atom_type_description
_atom_site_fract_x
_atom_site_fract_y
_atom_site_fract_z
_atom_type_partial_charge
C1    C     C_R   0.834215 0.473794 0.526331 0.878619
C2    C     C_2   0.466516 0.028934 0.533038 -0.344553
C3    C     C_2   0.532774 0.968631 0.466618 -0.293430
C4    C     C_2   0.030023 0.532821 0.467227 -0.423799
C5    C     C_3   0.022242 0.350917 0.650078 -0.342952
C6    C     C_3   0.928697 0.276493 0.724930 -0.910832
C7    C     C_2   0.965850 0.455163 0.545233 0.030494
C8    C     C_2   0.467112 0.538124 0.023810 -0.343213
C9    C     C_2   0.532236 0.460331 0.974011 -0.296637
C10   C     C_R   0.164077 0.526310 0.473733 0.891464
C11   C     C_R   0.523882 0.471538 0.839194 0.862302
C12   C     C_R   0.476261 0.527480 0.160229 0.885691
C13   C     C_R   0.523867 0.835175 0.475915 0.858074
C14   C     C_R   0.476111 0.163924 0.523802 0.888560
H1    H     H_    0.405314 0.978327 0.594211 0.147748
H2    H     H_    0.088652 0.392444 0.719092 0.235917
H3    H     H_    0.594706 0.016968 0.405054 0.161834
H4    H     H_    0.981043 0.604249 0.395459 0.133228
H5    H     H_    0.407158 0.609789 0.963504 0.148204
H6    H     H_    0.592642 0.387869 0.032063 0.162594
H7    H     H_    0.878385 0.338948 0.772961 0.261916
H8    H     H_    0.861458 0.229387 0.661507 0.263366
H9    H     H_    0.978425 0.203544 0.798248 0.257195
H10   H     H_    0.071723 0.282854 0.607707 0.235342
O1    O     O_3   0.500000 0.500000 0.500000 -0.493499
O2    O     O_R   0.597340 0.765700 0.560080 -0.633711
O3    O     O_R   0.548200 0.222430 0.451790 -0.639732
O4    O     O_R   0.441590 0.789440 0.401000 -0.633908
O5    O     O_R   0.412860 0.222430 0.587130 -0.649284
O6    O     O_R   0.441590 0.410520 0.779910 -0.639155
O7    O     O_R   0.548210 0.443940 0.230290 -0.641278
O8    O     O_R   0.787780 0.544200 0.591150 -0.646251
O9    O     O_R   0.222430 0.601350 0.398650 -0.634928
O10   O     O_R   0.767360 0.410530 0.454140 -0.647526
O11   O     O_R   0.222430 0.443930 0.556060 -0.662990
O12   O     O_R   0.597340 0.544190 0.781580 -0.631809
O13   O     O_R   0.412870 0.601350 0.208220 -0.644321
Zn1   Zn    Zn3+2 0.396020 0.396030 0.603970 0.952636
Zn2   Zn    Zn3+2 0.618560 0.587010 0.606350 0.966823
Zn3   Zn    Zn3+2 0.396030 0.620930 0.379070 0.972067
Zn4   Zn    Zn3+2 0.589390 0.396030 0.410610 0.959732

loop_
_geom_bond_atom_site_label_1
_geom_bond_atom_site_label_2
_ccdc_geom_bond_type
O5    Zn1   S    
C13   O4    A    
C10   O11   A    
O1    Zn1   S    
O13   Zn3   S    
C9    C11   S    
O2    Zn2   S    
O3    Zn4   S    
C9    H6    S    
C3    C13   S    
C8    C12   S    
C4    H4    S    
C2    C3    D    
C12   O7    A    
O1    Zn2   S    
C2    H1    S    
C5    H10   S    
O10   Zn4   S    
C4    C7    D    
C2    C14   S    
C6    H9    S    
C11   O12   A    
C1    O10   A    
C3    H3    S    
C10   O9    A    
O12   Zn2   S    
O1    Zn3   S    
C5    C6    S    
C14   O3    A    
C13   O2    A    
C8    H5    S    
O4    Zn3   S    
C14   O5    A    
C4    C10   S    
O9    Zn3   S    
O11   Zn1   S    
O6    Zn1   S    
O8    Zn2   S    
O1    Zn4   S    
C12   O13   A    
C5    C7    S    
C5    H2    S    
O7    Zn4   S    
C1    C7    S    
C6    H7    S    
C1    O8    A    
C11   O6    A    
C8    C9    D    
C6    H8    S    
