data_mof_unit_22564.cif
_audit_creation_date              2013-03-05T15:50:17-0500
_audit_creation_method            fapswitch 2.2
_symmetry_space_group_name_H-M    P1
_symmetry_Int_Tables_number       1
_space_group_crystal_system       triclinic
_cell_length_a                    8.404638
_cell_length_b                    14.424559
_cell_length_c                    17.342817
_cell_angle_alpha                 92.693796
_cell_angle_beta                  96.002593
_cell_angle_gamma                 91.16736
_cell_volume                      2088.0099196

loop_
_atom_site_label
_atom_site_type_symbol
_atom_site_description
_atom_site_fract_x
_atom_site_fract_y
_atom_site_fract_z
_atom_type_partial_charge
P1    P     P_3+3 0.940740 0.713140 0.550990 0.455315
O1    O     O_2   0.110000 0.727700 0.527600 -0.387926
O2    O     O_3   0.867340 0.611500 0.534090 -0.390437
O3    O     O_3   0.340010 0.670810 0.392610 -0.394366
O4    O     O_2   0.236387 0.835671 0.438014 -0.355364
O5    O     O_3   0.965130 0.740053 0.650885 -0.582477
O6    O     O_3   0.302717 0.827488 0.293853 -0.560861
H1    H     H_    0.275703 0.690249 0.249618 0.062292
C1    C     C_3   0.248147 0.784491 0.157539 -0.919706
H2    H     H_    0.116961 0.783397 0.156332 0.266392
H3    H     H_    0.288751 0.855094 0.143912 0.272429
P2    P     P_3+3 0.347910 0.426910 0.329700 0.533292
P3    P     P_3+3 0.890226 0.613497 0.255078 0.477707
O7    O     O_2   0.172060 0.454990 0.316770 -0.396995
O8    O     O_3   0.924740 0.623930 0.356360 -0.390767
O9    O     O_2   0.032782 0.564307 0.222779 -0.451424
O10   O     O_3   0.357238 0.308454 0.301682 -0.599954
O11   O     O_3   0.896335 0.725302 0.220093 -0.499076
C2    C     C_3   0.924258 0.790843 0.282994 0.457474
H4    H     H_    0.039439 0.779064 0.316894 0.142597
H5    H     H_    0.831976 0.786847 0.323556 0.102232
C3    C     C_3   0.923277 0.888204 0.253320 -0.814045
H6    H     H_    0.903794 0.937557 0.301935 0.247338
H7    H     H_    0.038425 0.906427 0.231450 0.289616
C4    C     C_3   0.754032 0.323076 0.306860 0.137127
H8    H     H_    0.644695 0.336753 0.335077 0.109144
H9    H     H_    0.822433 0.389123 0.303915 0.044834
C5    C     C_3   0.707986 0.277138 0.224955 0.825283
H10   H     H_    0.655901 0.207611 0.235151 0.045916
Ba1   Ba    Ba6+2 0.148060 0.545480 0.461240 1.607280
C6    C     C_3   0.033022 0.666187 0.690495 0.401455
H11   H     H_    0.146069 0.646543 0.667328 0.097966
H12   H     H_    0.948055 0.605663 0.685815 0.116937
C7    C     C_3   0.068804 0.698359 0.775478 -0.962413
H13   H     H_    0.155758 0.757952 0.781183 0.273647
H14   H     H_    0.120296 0.641901 0.810123 0.220754
H15   H     H_    0.956804 0.720160 0.799130 0.269547
C8    C     C_3   0.253844 0.250011 0.335967 0.461616
H16   H     H_    0.137172 0.282432 0.341559 0.060954
C9    C     C_3   0.227533 0.159487 0.283651 0.306008
H17   H     H_    0.346954 0.129973 0.279125 0.050382
P4    P     P_3+3 0.869550 0.286850 0.448950 0.509144
O12   O     O_2   0.700300 0.272240 0.472380 -0.321188
O13   O     O_3   0.942950 0.388490 0.465850 -0.377346
O14   O     O_3   0.470280 0.329180 0.607330 -0.320981
O15   O     O_3   0.848940 0.260727 0.348761 -0.564838
P5    P     P_3+3 0.919306 0.389551 0.745200 0.431284
O16   O     O_3   0.377250 0.547380 0.588690 -0.386560
O17   O     O_3   0.885550 0.376060 0.643580 -0.386842
O18   O     O_2   0.774380 0.437717 0.776216 -0.386972
O19   O     O_3   0.911371 0.279300 0.781799 -0.574038
Ba2   Ba    Ba6+2 0.662110 0.454510 0.538700 1.614761
P6    P     P_3+3 0.360821 0.791964 0.388739 0.547404
C10   C     C_3   0.329319 0.758050 0.236592 0.751929
H18   H     H_    0.277615 0.733718 0.111274 0.243355
O20   O     O_3   0.433040 0.452610 0.411250 -0.335722
C11   C     C_3   0.507865 0.743752 0.639552 0.216099
H19   H     H_    0.639196 0.741253 0.637524 0.108456
H20   H     H_    0.445173 0.714808 0.583691 0.110520
C12   C     C_3   0.457553 0.844054 0.651045 0.104786
H21   H     H_    0.477317 0.866741 0.713909 0.147925
H22   H     H_    0.326538 0.846580 0.635359 0.111519
P7    P     P_3+3 0.460721 0.576670 0.683854 0.447570
O21   O     O_2   0.638240 0.544950 0.683210 -0.345012
O22   O     O_3   0.466984 0.696504 0.703646 -0.614387
H23   H     H_    0.825579 0.894677 0.205798 0.275218
C13   C     C_3   0.995776 0.216127 0.738138 0.323502
H24   H     H_    0.097690 0.248387 0.712037 0.099520
H25   H     H_    0.045383 0.163819 0.778111 0.098893
C14   C     C_3   0.884023 0.162846 0.676708 -0.932891
H26   H     H_    0.844236 0.207748 0.629117 0.297866
H27   H     H_    0.947078 0.102579 0.654548 0.193209
H28   H     H_    0.777793 0.135287 0.700711 0.247702
P8    P     P_3+3 0.439133 0.208322 0.617765 0.514275
C15   C     C_3   0.532563 0.235142 0.769541 0.866380
O23   O     O_2   0.566291 0.159049 0.573201 -0.362796
O24   O     O_3   0.470477 0.167071 0.712822 -0.614774
H29   H     H_    0.618090 0.280674 0.743892 0.107398
C16   C     C_3   0.632559 0.188812 0.838616 -0.199882
H30   H     H_    0.666684 0.242487 0.885936 0.119360
H31   H     H_    0.745034 0.161696 0.820882 0.139248
C17   C     C_R   0.015514 0.938136 0.531847 -0.065995
C18   C     C_R   0.821794 0.803868 0.497443 0.241884
C19   C     C_R   0.669047 0.774955 0.464424 -0.497404
C20   C     C_R   0.563670 0.836146 0.427427 0.247640
C21   C     C_R   0.613688 0.928155 0.418112 0.502728
C22   C     C_R   0.763493 0.962541 0.454535 -0.160421
C23   C     C_R   0.869313 0.900450 0.494629 -0.083727
H32   H     H_    0.629701 0.703700 0.468978 0.184956
C24   C     C_R   0.948446 0.096601 0.493617 -0.001378
C25   C     C_R   0.056923 0.033781 0.530336 0.064536
C26   C     C_R   0.987204 0.194944 0.500505 0.197838
C27   C     C_R   0.127415 0.225779 0.545325 -0.428748
C28   C     C_R   0.241103 0.163527 0.573657 0.357730
C29   C     C_R   0.204895 0.068022 0.567636 -0.233025
C30   C     C_R   0.804284 0.058882 0.454394 0.007983
H33   H     H_    0.291384 0.020743 0.593132 0.185461
H34   H     H_    0.153433 0.299530 0.554100 0.183368
H35   H     H_    0.096971 0.894081 0.564292 0.152403
H36   H     H_    0.720537 0.104869 0.425420 0.203503
H37   H     H_    0.520593 0.565586 0.855137 0.144877
H38   H     H_    0.702095 0.581499 0.100804 0.149864
C31   C     C_R   0.603750 0.523888 0.278179 -0.413994
C32   C     C_R   0.447021 0.491259 0.257977 0.335244
C33   C     C_R   0.381530 0.490292 0.179764 -0.180689
C34   C     C_R   0.473175 0.522425 0.122476 0.055453
C35   C     C_R   0.630960 0.555360 0.144059 -0.193013
C36   C     C_R   0.696214 0.555807 0.221973 0.337526
C37   C     C_R   0.406932 0.530854 0.835788 -0.200490
C38   C     C_R   0.358029 0.517799 0.756016 0.325955
C39   C     C_R   0.108472 0.448122 0.783495 0.269561
C40   C     C_R   0.153658 0.463035 0.863739 -0.293921
C41   C     C_R   0.305982 0.501737 0.890280 0.087340
C42   C     C_1   0.360119 0.510577 0.972718 -0.008886
C43   C     C_1   0.409507 0.516705 0.041152 -0.019340
C44   C     C_R   0.212680 0.473118 0.730588 -0.439677
H39   H     H_    0.073640 0.441185 0.904881 0.149356
H40   H     H_    0.263118 0.460266 0.163031 0.150654
H41   H     H_    0.654808 0.524263 0.338139 0.156339
H42   H     H_    0.176038 0.462606 0.669005 0.146542
O25   O     O_3   0.589396 0.327369 0.181739 -0.711333
C45   C     C_3   0.540370 0.279708 0.109697 -0.026898
H43   H     H_    0.434492 0.314216 0.081479 0.161044
H44   H     H_    0.505398 0.206013 0.116765 0.167818
H45   H     H_    0.635085 0.283285 0.069734 0.141793
O26   O     O_3   0.844162 0.262008 0.184216 -0.590155
C46   C     C_3   0.913977 0.345627 0.162428 -0.075898
H46   H     H_    0.827854 0.401399 0.149553 0.095147
H47   H     H_    0.971599 0.331016 0.108628 0.178121
H48   H     H_    0.008223 0.370766 0.208220 0.170960
N1    N     N_R   0.331361 0.229871 0.412249 0.186162
O27   O     O_R   0.362513 0.298216 0.462876 -0.351138
O28   O     O_R   0.402262 0.151796 0.424300 -0.369763
N2    N     N_R   0.158741 0.176175 0.204379 0.245202
O29   O     O_R   0.222745 0.239381 0.165550 -0.443791
O30   O     O_R   0.063751 0.113704 0.165981 -0.312179
N3    N     N_R   0.126775 0.092901 0.318739 0.215993
O31   O     O_R   0.187705 0.018567 0.348089 -0.324721
O32   O     O_R   0.973268 0.103683 0.315142 -0.422494
N4    N     N_R   0.500455 0.748229 0.232200 0.191392
O33   O     O_R   0.568879 0.771314 0.171614 -0.414335
O34   O     O_R   0.586291 0.715514 0.290455 -0.520654
O35   O     O_3   0.533720 0.902372 0.602163 -0.624142
C47   C     C_3   0.663635 0.950932 0.645001 -0.167332
H49   H     H_    0.756726 0.902535 0.667608 0.141673
H50   H     H_    0.623165 0.995025 0.693002 0.199431
H51   H     H_    0.718068 0.998200 0.606366 0.186951
O36   O     O_3   0.409373 0.293478 0.792507 -0.668531
C48   C     C_3   0.324349 0.255080 0.850017 -0.212146
H52   H     H_    0.292593 0.180680 0.836844 0.180561
H53   H     H_    0.210504 0.290400 0.852777 0.163760
H54   H     H_    0.391808 0.266991 0.908293 0.163698
N5    N     N_R   0.550600 0.110018 0.868873 0.262022
O37   O     O_R   0.512413 0.035801 0.824781 -0.390687
O38   O     O_R   0.535265 0.108704 0.942706 -0.388736
O39   O     O_3   0.513755 0.984265 0.373676 -0.544797
C49   C     C_3   0.560755 0.982991 0.297755 -0.102715
H55   H     H_    0.607978 0.915352 0.278864 0.132707
H56   H     H_    0.650256 0.039471 0.292920 0.144071
H57   H     H_    0.454753 0.994034 0.256035 0.183091

loop_
_geom_bond_atom_site_label_1
_geom_bond_atom_site_label_2
_geom_bond_distance
_ccdc_geom_bond_type
C22   C23   1.427700 A    
P7    O22   1.745049 S    
C49   H55   1.108917 S    
O3    P6    1.757901 S    
C7    H15   1.110824 S    
C17   H35   1.076981 S    
P8    C28   1.848301 S    
C32   C33   1.408836 A    
C2    H4    1.099411 S    
C42   C43   1.214210 T    
C11   H19   1.109281 S    
P5    O17   1.756497 S    
C20   C21   1.405655 A    
P1    Ba1   3.419466 S    
C4    C5    1.546817 S    
N3    O32   1.298034 A    
C27   C28   1.392475 A    
P8    O23   1.548128 D    
P3    O11   1.751234 S    
Ba1   O16   2.774617 S    
O39   C49   1.413098 S    
C2    H5    1.102639 S    
N4    O34   1.292320 A    
O11   C2    1.406889 S    
C48   H53   1.097500 S    
C12   O35   1.412332 S    
C40   H39   1.083333 S    
C7    H13   1.110901 S    
P5    C39   1.831464 S    
O12   Ba2   2.857583 S    
C11   H20   1.112086 S    
C34   C35   1.406485 A    
H37   C37   1.083422 S    
O35   C47   1.408929 S    
C12   H22   1.108034 S    
P1    O1    1.532609 D    
P4    O15   1.750412 S    
C21   O39   1.380336 S    
C3    H23   1.109509 S    
P3    C36   1.839827 S    
C10   N4    1.457698 S    
C39   C40   1.408969 A    
P8    O24   1.774526 S    
P2    O10   1.759882 S    
C35   C36   1.403830 A    
C6    H12   1.111099 S    
C14   H26   1.101771 S    
C1    H18   1.111403 S    
N5    O38   1.301255 A    
C1    H2    1.100356 S    
C7    H14   1.103401 S    
C37   C41   1.407086 A    
O10   C8    1.394525 S    
O13   Ba2   2.945611 S    
C18   C23   1.445866 A    
C49   H56   1.109615 S    
C9    N3    1.462707 S    
Ba1   O13   2.827177 S    
P4    O13   1.581422 S    
O7    Ba1   2.798407 S    
C47   H51   1.103383 S    
C40   C41   1.409248 A    
C5    O26   1.421801 S    
P5    O18   1.546635 D    
Ba2   O20   2.774002 S    
C13   H24   1.113457 S    
C2    C3    1.518142 S    
N4    O33   1.302723 A    
C47   H50   1.109713 S    
Ba2   O21   2.798521 S    
C48   H54   1.110085 S    
H1    C10   1.111166 S    
C16   H31   1.098073 S    
C21   C22   1.417399 A    
C11   C12   1.525540 S    
P5    O19   1.742373 S    
O14   Ba2   2.787319 S    
N1    O28   1.300198 A    
C4    H8    1.102371 S    
P7    O21   1.570449 D    
C9    N2    1.467244 S    
C17   C25   1.418080 A    
P1    O5    1.747393 S    
O14   P8    1.778045 S    
P1    O2    1.581423 S    
O2    Ba1   2.944751 S    
C46   H47   1.108914 S    
C16   N5    1.463351 S    
C15   O24   1.408887 S    
C24   C26   1.445611 A    
C18   C19   1.397121 A    
O17   Ba2   2.771511 S    
C22   C30   1.424711 A    
C14   H28   1.098763 S    
C6    C7    1.521617 S    
H38   C35   1.083312 S    
O19   C13   1.407405 S    
C19   C20   1.393337 A    
C24   C30   1.411655 A    
C1    H3    1.111212 S    
O25   C45   1.415453 S    
P2    O20   1.542040 S    
C9    H17   1.107049 S    
P2    O7    1.536980 D    
C49   H57   1.106535 S    
P3    O8    1.748978 S    
C3    H7    1.106946 S    
C33   H40   1.082809 S    
C4    H9    1.108662 S    
P4    O12   1.532879 D    
O6    P6    1.769294 S    
C45   H44   1.112873 S    
C46   H46   1.108069 S    
C38   C44   1.389505 A    
O8    Ba1   2.770887 S    
C41   C42   1.453203 S    
N3    O31   1.300058 A    
O4    P6    1.544234 D    
Ba1   Ba2   4.615444 S    
C5    H10   1.115204 S    
P2    Ba1   3.391520 S    
C5    O25   1.415761 S    
C6    H11   1.106590 S    
C31   H41   1.082393 S    
C11   O22   1.399881 S    
C47   H49   1.112226 S    
O16   P7    1.753501 S    
N2    O30   1.302289 A    
O2    Ba2   2.827777 S    
C29   H33   1.081820 S    
P2    C32   1.842938 S    
N2    O29   1.299056 A    
C15   O36   1.424412 S    
P1    C18   1.883589 S    
C33   C34   1.408550 A    
C34   C43   1.453190 S    
O1    Ba1   2.856999 S    
C13   C14   1.514002 S    
C8    N1    1.456914 S    
C27   H34   1.082157 S    
P7    C38   1.824331 S    
P6    C20   1.854514 S    
C39   C44   1.387553 A    
C45   H43   1.108602 S    
C46   H48   1.104212 S    
C37   C38   1.404213 A    
C8    C9    1.553078 S    
C24   C25   1.422785 A    
C8    H16   1.106335 S    
Ba1   O20   2.956149 S    
C45   H45   1.110753 S    
O26   C46   1.415031 S    
C17   C23   1.412777 A    
C30   H36   1.079038 S    
C26   C27   1.394735 A    
O5    C6    1.394397 S    
P4    C26   1.874737 S    
O36   C48   1.413171 S    
C28   C29   1.401453 A    
C15   H29   1.105018 S    
C25   C29   1.409178 A    
C16   H30   1.112285 S    
C44   H42   1.082855 S    
O16   Ba2   2.955291 S    
C19   H32   1.082252 S    
P3    O9    1.546093 D    
C31   C32   1.393609 A    
C3    H6    1.105300 S    
C12   H21   1.117899 S    
C31   C36   1.397172 A    
C14   H27   1.101929 S    
C1    C10   1.534489 S    
O6    C10   1.414734 S    
C13   H25   1.106907 S    
N5    O37   1.300595 A    
C48   H52   1.108012 S    
C15   C16   1.573405 S    
C4    O15   1.393788 S    
O3    Ba1   2.787934 S    
N1    O27   1.292820 A    
P4    Ba2   3.420042 S    
