data_mof_unit_33185.cif
_audit_creation_date              2012-12-11T16:25:33-0500
_audit_creation_method            fapswitch 2.2
_symmetry_space_group_name_H-M    P1
_symmetry_Int_Tables_number       1
_space_group_crystal_system       triclinic
_cell_length_a                    20.340066
_cell_length_b                    7.267189
_cell_length_c                    13.348279
_cell_angle_alpha                 90.000078
_cell_angle_beta                  103.484295
_cell_angle_gamma                 89.999987
_cell_volume                      1918.68714757

loop_
_atom_site_label
_atom_site_type_symbol
_atom_type_description
_atom_site_fract_x
_atom_site_fract_y
_atom_site_fract_z
_atom_type_partial_charge
O1    O     O_R   0.449520 0.506760 0.599710 -0.544362
O2    O     O_R   0.550480 0.006760 0.400290 -0.544362
O3    O     O_R   0.587930 0.180200 0.595790 -0.539085
O4    O     O_R   0.412070 0.680200 0.404210 -0.539085
C1    C     C_R   0.614181 0.344123 0.618040 0.683753
C2    C     C_R   0.385819 0.844123 0.381960 0.683753
O5    O     O_R   0.452350 0.177380 0.611700 -0.533999
O6    O     O_R   0.547650 0.677380 0.388300 -0.533998
O7    O     O_R   0.413930 0.001760 0.416320 -0.527577
O8    O     O_R   0.586070 0.501760 0.583680 -0.527577
C3    C     C_R   0.436563 0.345756 0.638200 0.766770
C4    C     C_R   0.563437 0.845756 0.361800 0.766769
O9    O     O_3   0.487550 0.337460 0.435880 -0.381160
O10   O     O_3   0.512450 0.837460 0.564120 -0.381160
V1    V     V_3+5 0.502310 0.064670 0.511900 1.488320
V2    V     V_3+5 0.497690 0.564670 0.488100 1.488322
C5    C     C_R   0.607927 0.902080 0.106332 -0.098807
C6    C     C_R   0.392073 0.402076 0.893668 -0.098806
H1    H     H_    0.516319 0.910532 0.158837 0.131064
H2    H     H_    0.483681 0.410527 0.841164 0.131063
H3    H     H_    0.580781 0.924203 0.027247 0.175554
H4    H     H_    0.419219 0.424196 0.972754 0.175553
C7    C     C_R   0.602799 0.856010 0.283081 -0.116589
C8    C     C_R   0.397201 0.356011 0.716919 -0.116589
C9    C     C_R   0.927506 0.830573 0.317228 0.468409
C10   C     C_R   0.072494 0.330574 0.682772 0.468408
C11   C     C_R   0.892597 0.849738 0.395378 0.286322
C12   C     C_R   0.107402 0.349740 0.604622 0.286322
C13   C     C_R   0.822859 0.873967 0.368986 -0.147372
C14   C     C_R   0.177141 0.373970 0.631014 -0.147372
C15   C     C_R   0.785489 0.865993 0.265351 -0.060968
C16   C     C_R   0.214511 0.365994 0.734649 -0.060968
C17   C     C_R   0.822043 0.867774 0.186141 -0.174718
C18   C     C_R   0.177956 0.367774 0.813859 -0.174718
C19   C     C_R   0.713197 0.863800 0.238430 -0.073907
C20   C     C_R   0.286803 0.363801 0.761569 -0.073908
C21   C     C_R   0.678888 0.885310 0.133180 -0.044983
C22   C     C_R   0.321111 0.385308 0.866820 -0.044982
C23   C     C_R   0.715036 0.887920 0.055436 0.285256
C24   C     C_R   0.284964 0.387917 0.944564 0.285256
C25   C     C_R   0.785963 0.877169 0.081858 0.481833
C26   C     C_R   0.214037 0.377166 0.918142 0.481833
C27   C     C_R   0.673102 0.835843 0.311576 0.552079
C28   C     C_R   0.326898 0.335845 0.688423 0.552079
C29   C     C_R   0.570602 0.892894 0.181102 -0.310919
C30   C     C_R   0.429398 0.392891 0.818899 -0.310919
C31   C     C_R   0.894003 0.856854 0.213961 -0.218506
C32   C     C_R   0.105997 0.356854 0.786039 -0.218506
H5    H     H_    0.799742 0.902997 0.431965 0.233167
H6    H     H_    0.200258 0.403000 0.568035 0.233168
H7    H     H_    0.112281 0.980055 0.490135 0.154383
H8    H     H_    0.887719 0.480054 0.509865 0.154384
C33   C     C_R   0.231126 0.842525 0.034413 -0.077877
C34   C     C_R   0.768874 0.342527 0.965587 -0.077877
C35   C     C_R   0.286847 0.836187 0.990405 -0.105722
C36   C     C_R   0.713153 0.336191 0.009595 -0.105722
C37   C     C_R   0.351875 0.830190 0.052787 -0.060995
C38   C     C_R   0.648124 0.330194 0.947213 -0.060995
C39   C     C_R   0.361644 0.831736 0.159645 -0.105730
C40   C     C_R   0.638356 0.331739 0.840355 -0.105729
C41   C     C_R   0.306158 0.842447 0.206485 0.060516
C42   C     C_R   0.693842 0.342449 0.793515 0.060515
C43   C     C_R   0.239475 0.847319 0.142787 0.061963
C44   C     C_R   0.760525 0.347321 0.857213 0.061963
C45   C     C_R   0.316369 0.850377 0.314968 -0.132701
C46   C     C_R   0.683631 0.350377 0.685032 -0.132701
C47   C     C_R   0.260235 0.870774 0.359892 0.000925
C48   C     C_R   0.739765 0.370773 0.640108 0.000924
C49   C     C_R   0.193735 0.892370 0.296360 0.004281
C50   C     C_R   0.806265 0.392369 0.703640 0.004281
C51   C     C_R   0.182902 0.865038 0.187523 -0.133625
C52   C     C_R   0.817098 0.365037 0.812477 -0.133625
C53   C     C_R   0.269669 0.873534 0.468292 -0.058853
C54   C     C_R   0.730331 0.373532 0.531708 -0.058854
C55   C     C_R   0.215983 0.906338 0.513675 -0.123509
C56   C     C_R   0.784017 0.406336 0.486325 -0.123508
C57   C     C_R   0.152599 0.946184 0.452783 -0.117312
C58   C     C_R   0.847400 0.446183 0.547217 -0.117311
C59   C     C_R   0.141034 0.946100 0.344654 0.425566
C60   C     C_R   0.858966 0.446100 0.655345 0.425566
H9    H     H_    0.181638 0.847144 0.982377 0.096441
H10   H     H_    0.818362 0.347147 0.017623 0.096441
H11   H     H_    0.279479 0.834436 0.907415 0.106669
H12   H     H_    0.720521 0.334441 0.092585 0.106669
H13   H     H_    0.394966 0.823433 0.018223 0.107762
H14   H     H_    0.605034 0.323438 0.981777 0.107762
H15   H     H_    0.413069 0.826244 0.205173 0.071850
H16   H     H_    0.586931 0.326248 0.794827 0.071850
H17   H     H_    0.318737 0.850684 0.519379 0.122160
H18   H     H_    0.681263 0.350682 0.480621 0.122161
H19   H     H_    0.224160 0.907684 0.596799 0.142268
H20   H     H_    0.775840 0.407682 0.403201 0.142269
O11   O     O_R   0.913760 0.203480 0.916370 -0.528995
O12   O     O_R   0.086240 0.703480 0.083630 -0.528995
O13   O     O_R   0.047590 0.535230 0.888250 -0.542286
O14   O     O_R   0.952410 0.035230 0.111750 -0.542285
C61   C     C_R   0.064477 0.367761 0.862661 0.940788
C62   C     C_R   0.935523 0.867761 0.137339 0.940790
O15   O     O_R   0.912020 0.532880 0.904260 -0.510696
O16   O     O_R   0.087980 0.032880 0.095740 -0.510696
O17   O     O_R   0.949590 0.708460 0.099750 -0.532510
O18   O     O_R   0.050410 0.208460 0.900250 -0.532510
C63   C     C_R   0.886370 0.365751 0.881147 0.766041
C64   C     C_R   0.113630 0.865751 0.118853 0.766041
O19   O     O_3   0.012370 0.375360 0.064120 -0.381539
O20   O     O_3   0.987630 0.875360 0.935880 -0.381539
V3    V     V_3+5 0.997700 0.648160 0.988110 1.616604
V4    V     V_3+5 0.002300 0.148160 0.011890 1.616605
O21   O     O_3   0.080336 0.010756 0.286577 -0.626517
H21   H     H_    0.055324 0.074238 0.332062 0.325839
O22   O     O_3   0.919664 0.510757 0.713423 -0.626517
H22   H     H_    0.944676 0.574238 0.667938 0.325840
O23   O     O_3   0.679413 0.897331 0.953557 -0.646818
H23   H     H_    0.711002 0.901379 0.907307 0.348391
O24   O     O_3   0.320587 0.397326 0.046443 -0.646818
H24   H     H_    0.288998 0.401374 0.092693 0.348391
F1    F     F_    0.699837 0.776861 0.408983 -0.726439
F2    F     F_    0.300163 0.276867 0.591015 -0.726439
F3    F     F_    0.993936 0.784555 0.341655 -0.708464
F4    F     F_    0.006064 0.284555 0.658345 -0.708464
O25   O     O_3   0.924848 0.846746 0.498591 -0.633773
H25   H     H_    0.974204 0.833333 0.505773 0.341413
O26   O     O_3   0.075151 0.346748 0.501409 -0.633772
H26   H     H_    0.025795 0.333333 0.494227 0.341413
F5    F     F_    0.819002 0.875413 0.004362 -0.719077
F6    F     F_    0.180998 0.375409 0.995638 -0.719077

loop_
_geom_bond_atom_site_label_1
_geom_bond_atom_site_label_2
_ccdc_geom_bond_type
O17   V3    S    
O15   C63   A    
C51   C64   S    
C7    C29   A    
C11   C13   A    
C46   C48   A    
O22   H22   S    
O1    C3    A    
O2    C4    A    
O11   C63   A    
C2    O7    A    
C11   O25   S    
C12   O26   S    
O26   H26   S    
C23   C25   A    
C13   H5    S    
O5    C3    A    
C32   C61   S    
C4    C7    S    
C31   C62   S    
C54   C56   A    
C16   C20   A    
C40   C42   A    
C19   C21   A    
C5    C29   A    
O11   V4    S    
C58   C60   A    
C37   C39   A    
C24   O24   S    
O20   V3    S    
C38   C40   A    
O24   H24   S    
C38   H14   S    
C3    C8    S    
O16   C64   A    
C7    C27   A    
C33   H9    S    
C49   C51   A    
C42   C44   A    
C2    C45   S    
C9    F3    S    
C36   C38   A    
C45   C47   A    
C18   C26   A    
C15   C17   A    
O18   V4    S    
C47   C53   A    
C19   C27   A    
C9    C31   A    
C61   O18   A    
C55   H19   S    
C24   C26   A    
O14   V4    S    
O12   C64   A    
O6    V2    S    
C22   C24   A    
C53   C55   A    
H8    C58   S    
C6    C30   A    
C36   H12   S    
C33   C35   A    
C40   H16   S    
C14   H6    S    
O19   V4    S    
C34   C36   A    
O12   V3    S    
C39   C41   A    
O16   V4    S    
C59   O21   S    
C50   C60   A    
C25   F5    S    
O4    C2    A    
C42   C46   A    
O5    V1    S    
C23   O23   S    
C5    H3    S    
H1    C29   S    
O14   C62   A    
C47   C49   A    
C16   C18   A    
O4    V2    S    
H7    C57   S    
C28   F2    S    
O6    C4    A    
C41   C43   A    
C57   C59   A    
O1    V2    S    
C5    C21   A    
O2    V1    S    
C55   C57   A    
O25   H25   S    
O13   V3    S    
C56   H20   S    
C48   C50   A    
C43   C51   A    
C35   C37   A    
C17   C31   A    
C15   C19   A    
C49   C59   A    
C18   C32   A    
C35   H11   S    
C34   H10   S    
O3    V1    S    
O23   H23   S    
C6    H4    S    
C56   C58   A    
C1    C46   S    
O3    C1    A    
O13   C61   A    
C52   C63   S    
C10   C32   A    
C9    C11   A    
C62   O17   A    
O15   V3    S    
C10   C12   A    
C17   C25   A    
C54   H18   S    
C12   C14   A    
O7    V1    S    
C8    C30   A    
C1    O8    A    
C21   C23   A    
O8    V2    S    
O21   H21   S    
C14   C16   A    
C33   C43   A    
C34   C44   A    
C8    C28   A    
C60   O22   S    
C20   C22   A    
C37   H13   S    
C44   C52   A    
C6    C22   A    
C39   H15   S    
C20   C28   A    
C26   F6    S    
C53   H17   S    
C41   C45   A    
C13   C15   A    
O9    V2    S    
C27   F1    S    
C10   F4    S    
O10   V1    S    
C50   C52   A    
C48   C54   A    
H2    C30   S    
