data_mof_unit_26372.cif
_audit_creation_date              2012-12-10T17:51:26-0500
_audit_creation_method            fapswitch 2.2
_symmetry_space_group_name_H-M    P1
_symmetry_Int_Tables_number       1
_space_group_crystal_system       triclinic
_cell_length_a                    14.859973
_cell_length_b                    14.862898
_cell_length_c                    17.328768
_cell_angle_alpha                 109.359937
_cell_angle_beta                  72.846122
_cell_angle_gamma                 116.808849
_cell_volume                      3174.3212

loop_
_atom_site_label
_atom_site_type_symbol
_atom_type_description
_atom_site_fract_x
_atom_site_fract_y
_atom_site_fract_z
_atom_type_partial_charge
C1    C     C_R   0.119521 0.689553 0.515672 0.834387
C2    C     C_R   0.880693 0.311678 0.489666 0.874995
C3    C     C_R   0.187055 0.802143 0.534379 -0.293157
C4    C     C_R   0.812670 0.206397 0.502691 -0.290244
C5    C     C_R   0.208103 0.984183 0.590617 0.072755
C6    C     C_R   0.777597 0.062354 0.561236 0.079291
C7    C     C_R   0.145168 0.878506 0.564455 0.369491
C8    C     C_R   0.847862 0.149801 0.529095 0.372735
C9    C     C_R   0.292953 0.833086 0.528805 0.305525
C10   C     C_R   0.708183 0.171089 0.502479 0.341317
C11   C     C_R   0.355560 0.938187 0.558011 -0.096684
C12   C     C_R   0.636290 0.089259 0.540205 -0.069949
C13   C     C_R   0.316330 0.015674 0.576410 0.004971
C14   C     C_R   0.670880 0.025152 0.559423 -0.004489
C15   C     C_R   0.459221 0.967985 0.563136 0.041726
C16   C     C_R   0.529998 0.067290 0.555345 0.047746
C17   C     C_R   0.492637 0.143296 0.566382 -0.157815
C18   C     C_R   0.492980 0.901711 0.577751 -0.147538
C19   C     C_R   0.387768 0.120144 0.578153 0.179889
C20   C     C_R   0.596616 0.927265 0.575220 0.170998
C21   C     C_R   0.319319 0.373547 0.334506 -0.304640
C22   C     C_R   0.675979 0.614379 0.669096 -0.299931
C23   C     C_R   0.987688 0.501926 0.651953 0.835713
C24   C     C_R   0.013202 0.499627 0.347501 0.784284
C25   C     C_R   0.224679 0.380669 0.367859 0.014078
C26   C     C_R   0.773079 0.614244 0.633799 0.030442
C27   C     C_R   0.279819 0.478383 0.497920 0.338260
C28   C     C_R   0.718895 0.520051 0.503100 0.319939
C29   C     C_R   0.372181 0.460181 0.469416 -0.063756
C30   C     C_R   0.624510 0.534366 0.533343 -0.056102
C31   C     C_R   0.396444 0.421596 0.383138 0.028557
C32   C     C_R   0.599150 0.568096 0.620197 0.039631
C33   C     C_R   0.446449 0.488916 0.520432 0.021806
C34   C     C_R   0.549537 0.504840 0.482853 0.013702
C35   C     C_R   0.574605 0.494174 0.396247 -0.323103
C36   C     C_R   0.420630 0.498706 0.606995 -0.338004
C37   C     C_R   0.498884 0.439780 0.346032 0.440115
C38   C     C_R   0.495999 0.545245 0.657429 0.448017
C39   C     C_R   0.975799 0.498652 0.737072 -0.087432
C40   C     C_R   0.022427 0.502450 0.261219 -0.117593
C41   C     C_R   0.060318 0.554117 0.777345 -0.300697
C42   C     C_R   0.956343 0.534454 0.243801 -0.294179
C43   C     C_R   0.050511 0.551648 0.858677 -0.142256
C44   C     C_R   0.955610 0.529976 0.162882 -0.156550
C45   C     C_R   0.956298 0.491579 0.899966 0.124687
C46   C     C_R   0.020617 0.492344 0.097155 0.129705
C47   C     C_R   0.870821 0.438250 0.860455 -0.265046
C48   C     C_R   0.090367 0.465403 0.113848 -0.276202
C49   C     C_R   0.879577 0.442500 0.778971 0.436341
C50   C     C_R   0.095935 0.475401 0.195823 0.442297
C51   C     C_2   0.945846 0.484516 0.984671 -0.204203
C52   C     C_2   0.024365 0.489294 0.010957 -0.200699
Cu1   Cu    Cu3+1 0.916740 0.524770 0.521640 0.948254
Cu2   Cu    Cu3+1 0.083260 0.475230 0.478360 0.970093
H1    H     H_    0.133378 0.600815 0.746353 0.153382
H2    H     H_    0.906333 0.565544 0.292845 0.167780
H3    H     H_    0.544910 0.223250 0.569807 0.199279
H4    H     H_    0.437671 0.829706 0.594025 0.192247
H5    H     H_    0.830466 0.646665 0.672751 0.148404
H6    H     H_    0.167258 0.347763 0.328856 0.173421
H7    H     H_    0.333808 0.335998 0.269591 0.190200
H8    H     H_    0.660055 0.645892 0.735234 0.188749
H9    H     H_    0.652913 0.526849 0.366498 0.158898
H10   H     H_    0.341768 0.471475 0.636456 0.156653
H11   H     H_    0.094263 0.490097 0.967366 0.145170
H12   H     H_    0.871712 0.471917 0.024689 0.143220
H13   H     H_    0.798366 0.391144 0.891955 0.136351
H14   H     H_    0.142178 0.438379 0.063010 0.133510
H15   H     H_    0.905305 0.557851 0.152540 0.137702
H16   H     H_    0.116593 0.597270 0.889198 0.141330
N1    N     N_R   0.208390 0.438070 0.445820 -0.178280
N2    N     N_R   0.791610 0.561930 0.554180 -0.182090
O1    O     O_R   0.020090 0.662480 0.528530 -0.530862
O2    O     O_R   0.979910 0.337520 0.471470 -0.553844
O3    O     O_R   0.160710 0.620650 0.491980 -0.553527
O4    O     O_R   0.839290 0.379350 0.508020 -0.558097
O5    O     O_R   0.921540 0.523360 0.633990 -0.584699
O6    O     O_R   0.078460 0.476640 0.366010 -0.546876
O7    O     O_R   0.062170 0.481520 0.597440 -0.582994
O8    O     O_R   0.937830 0.518480 0.402560 -0.611251
O9    O     O_3   0.525622 0.420096 0.260198 -0.584582
C53   C     C_3   0.578851 0.353647 0.232452 0.056083
H17   H     H_    0.536017 0.283725 0.259005 0.136567
H18   H     H_    0.656705 0.394891 0.249077 0.146085
C54   C     C_3   0.591108 0.317723 0.138355 -0.793316
H19   H     H_    0.635351 0.385560 0.109811 0.243718
H20   H     H_    0.632717 0.265253 0.115759 0.200917
H21   H     H_    0.514710 0.275341 0.119229 0.245315
O10   O     O_3   0.470225 0.568964 0.743449 -0.584165
C55   C     C_3   0.401888 0.478634 0.772380 0.057410
H22   H     H_    0.419480 0.409311 0.735629 0.134086
H23   H     H_    0.321880 0.462743 0.770414 0.150942
C56   C     C_3   0.409815 0.496115 0.862138 -0.810760
H24   H     H_    0.390151 0.563068 0.901307 0.248799
H25   H     H_    0.355953 0.425977 0.885841 0.200067
H26   H     H_    0.488984 0.511917 0.866305 0.241676
C57   C     C_3   0.727611 0.440860 0.422440 -0.761636
H27   H     H_    0.651508 0.380237 0.410769 0.199475
H28   H     H_    0.766704 0.478579 0.369958 0.183545
H29   H     H_    0.768166 0.395337 0.421263 0.290326
C58   C     C_3   0.270587 0.557040 0.578873 -0.740979
H30   H     H_    0.226431 0.517400 0.630278 0.203429
H31   H     H_    0.346652 0.615211 0.593302 0.199903
H32   H     H_    0.234696 0.606235 0.578204 0.274296
O11   O     O_3   0.172305 0.458130 0.211530 -0.576320
C59   C     C_3   0.268049 0.536671 0.189618 0.046783
H33   H     H_    0.269287 0.614998 0.224685 0.125215
H34   H     H_    0.286094 0.532879 0.121870 0.137542
C60   C     C_3   0.352615 0.522615 0.210094 -0.753017
H35   H     H_    0.428147 0.580681 0.188918 0.196638
H36   H     H_    0.342037 0.534137 0.278066 0.261235
H37   H     H_    0.351145 0.443775 0.178416 0.254149
O12   O     O_3   0.797965 0.382904 0.736708 -0.575208
C61   C     C_3   0.722731 0.425323 0.768892 0.079439
H38   H     H_    0.756449 0.510052 0.771643 0.134924
H39   H     H_    0.683572 0.412125 0.832028 0.131253
C62   C     C_3   0.643087 0.372161 0.712388 -0.763309
H40   H     H_    0.605816 0.287834 0.710126 0.241702
H41   H     H_    0.583962 0.405469 0.736384 0.196086
H42   H     H_    0.679886 0.383746 0.648656 0.274013
C63   C     C_3   0.358881 0.206299 0.579723 -0.878138
H43   H     H_    0.426943 0.274578 0.562759 0.229309
H44   H     H_    0.308947 0.179361 0.533206 0.240555
H45   H     H_    0.321605 0.234682 0.642736 0.227206
C64   C     C_3   0.623021 0.840941 0.577300 -0.862494
H46   H     H_    0.556398 0.765173 0.571823 0.230996
H47   H     H_    0.682638 0.829603 0.523274 0.231676
H48   H     H_    0.646651 0.856001 0.636769 0.243560
O13   O     O_3   0.676780 0.212305 0.459361 -0.588340
C65   C     C_3   0.679149 0.156519 0.375235 0.058495
H49   H     H_    0.691557 0.083555 0.361668 0.121397
H50   H     H_    0.742520 0.207268 0.336241 0.141746
C66   C     C_3   0.578561 0.127856 0.349087 -0.810710
H51   H     H_    0.562714 0.198002 0.361609 0.241315
H52   H     H_    0.582780 0.091036 0.281650 0.196212
H53   H     H_    0.514780 0.072244 0.383947 0.246448
O14   O     O_3   0.336487 0.760481 0.492071 -0.572353
C67   C     C_3   0.380634 0.765413 0.408520 0.099973
H54   H     H_    0.416627 0.845847 0.398881 0.122413
H55   H     H_    0.320795 0.717160 0.368869 0.148859
C68   C     C_3   0.463805 0.722707 0.380777 -0.788125
H56   H     H_    0.432222 0.643626 0.391472 0.260353
H57   H     H_    0.494909 0.719767 0.313788 0.196184
H58   H     H_    0.527279 0.773432 0.416316 0.249791
O15   O     O_3   0.951348 0.184072 0.528949 -0.545389
C69   C     C_3   0.994121 0.129868 0.454791 0.086856
H59   H     H_    0.991884 0.151753 0.400031 0.136973
H60   H     H_    0.952999 0.044253 0.446875 0.124191
C70   C     C_3   0.105143 0.157913 0.457502 -0.797624
H61   H     H_    0.108712 0.128569 0.506960 0.223167
H62   H     H_    0.142186 0.122588 0.397014 0.191110
H63   H     H_    0.147427 0.243166 0.471044 0.268535
O16   O     O_3   0.040782 0.848845 0.571685 -0.555245
C71   C     C_3   0.021877 0.870008 0.505462 0.089020
H64   H     H_    0.077332 0.861067 0.446661 0.113021
H65   H     H_    0.025157 0.950282 0.523674 0.152691
C72   C     C_3   0.915166 0.795404 0.487434 -0.784233
H66   H     H_    0.857872 0.795210 0.545551 0.251659
H67   H     H_    0.894804 0.819207 0.442733 0.177530
H68   H     H_    0.913071 0.715757 0.459777 0.265513
C73   C     C_3   0.156592 0.056500 0.646411 -0.816819
H69   H     H_    0.076379 0.013605 0.673620 0.257313
H70   H     H_    0.196317 0.104577 0.700238 0.227674
H71   H     H_    0.154438 0.105835 0.611919 0.219322
C74   C     C_3   0.817488 0.022203 0.608199 -0.786329
H72   H     H_    0.894075 0.077003 0.623743 0.262655
H73   H     H_    0.766905 0.013093 0.669015 0.230635
H74   H     H_    0.825490 0.949079 0.570790 0.217865

loop_
_geom_bond_atom_site_label_1
_geom_bond_atom_site_label_2
_ccdc_geom_bond_type
C28   C57   S    
C15   C18   A    
C49   O12   S    
C5    C13   A    
C74   H72   S    
C29   C33   A    
C27   C29   A    
C26   N2    A    
C65   H50   S    
C8    O15   S    
C4    C8    A    
C73   H71   S    
C68   H57   S    
C57   H27   S    
C2    O4    A    
C39   C41   A    
Cu1   Cu2   S    
C21   C31   A    
C38   O10   S    
C58   H30   S    
C22   C32   A    
C24   C40   S    
C56   H26   S    
C35   C37   A    
O12   C61   S    
C3    C7    A    
C60   H36   S    
O15   C69   S    
C23   C39   S    
C22   H8    S    
C59   H33   S    
C45   C51   S    
C15   C16   A    
C46   C52   S    
C33   C36   A    
Cu2   O6    S    
C34   C35   A    
C45   C47   A    
C41   H1    S    
C63   H45   S    
C42   H2    S    
Cu2   O2    S    
C11   C15   A    
C24   O8    A    
C72   H66   S    
Cu2   N1    S    
C12   C16   A    
C16   C17   A    
C50   O11   S    
C25   N1    A    
C25   H6    S    
C32   C38   A    
C26   H5    S    
C60   H37   S    
C71   H65   S    
C2    O2    A    
C36   H10   S    
C40   C42   A    
C6    C74   S    
C56   H25   S    
C41   C43   A    
C70   H62   S    
C37   O9    S    
C74   H73   S    
C28   N2    A    
C42   C44   A    
C47   H13   S    
C73   H70   S    
C44   C46   A    
O9    C53   S    
C69   H60   S    
C54   H20   S    
C46   C48   A    
C13   C19   A    
C51   C52   D    
C1    O3    A    
C14   C20   A    
Cu1   O8    S    
C71   C72   S    
C47   C49   A    
C57   H28   S    
C62   H42   S    
C5    C7    A    
C30   C34   A    
C6    C8    A    
C54   H19   S    
C27   C58   S    
C68   H58   S    
C23   O5    A    
C31   C37   A    
C1    C3    S    
C51   H12   S    
C5    C73   S    
Cu1   O5    S    
C3    C9    A    
C6    C14   A    
C69   C70   S    
C43   C45   A    
C55   H23   S    
C7    O16   S    
C33   C34   A    
C63   H43   S    
C44   H15   S    
C56   H24   S    
C48   H14   S    
C9    C11   A    
C71   H64   S    
C10   C12   A    
C66   H53   S    
C24   O6    A    
C39   C49   A    
C12   C14   A    
C43   H16   S    
C53   H18   S    
C68   H56   S    
C66   H51   S    
C70   H63   S    
Cu1   O4    S    
C4    C10   A    
C36   C38   A    
C57   H29   S    
C27   N1    A    
C55   C56   S    
C64   H47   S    
C69   H59   S    
O11   C59   S    
C54   H21   S    
C21   C25   A    
C19   C63   S    
C21   H7    S    
Cu1   O1    S    
C18   H4    S    
C67   C68   S    
C61   H39   S    
C61   H38   S    
C67   H55   S    
C72   H68   S    
C74   H74   S    
C53   C54   S    
O14   C67   S    
C58   H31   S    
C1    O1    A    
C62   H41   S    
C65   H49   S    
O13   C65   S    
C10   O13   S    
C9    O14   S    
C20   C64   S    
C29   C31   A    
C73   H69   S    
C70   H61   S    
C30   C32   A    
C11   C13   A    
C55   H22   S    
C64   H46   S    
C59   H34   S    
C64   H48   S    
C40   C50   A    
C2    C4    S    
C48   C50   A    
C17   C19   A    
C28   C30   A    
C18   C20   A    
C63   H44   S    
C61   C62   S    
C67   H54   S    
Cu2   O7    S    
Cu2   O3    S    
C65   C66   S    
C72   H67   S    
C53   H17   S    
C22   C26   A    
C60   H35   S    
C66   H52   S    
C35   H9    S    
C58   H32   S    
C23   O7    A    
O10   C55   S    
C62   H40   S    
Cu1   N2    S    
C52   H11   S    
C17   H3    S    
O16   C71   S    
C59   C60   S    
