data_mof_unit_31650.cif
_audit_creation_date              2012-10-26T19:18:46-0400
_audit_creation_method            fapswitch 2.2
_symmetry_space_group_name_H-M    P1
_symmetry_Int_Tables_number       1
_space_group_crystal_system       triclinic
_cell_length_a                    9.707453
_cell_length_b                    10.931396
_cell_length_c                    15.453963
_cell_angle_alpha                 89.707463
_cell_angle_beta                  74.056063
_cell_angle_gamma                 89.73951
_cell_volume                      1576.79805034

loop_
_atom_site_label
_atom_site_type_symbol
_atom_type_description
_atom_site_fract_x
_atom_site_fract_y
_atom_site_fract_z
_atom_type_partial_charge
C1    C     C_R   0.999602 0.265373 0.501450 0.553709
C2    C     C_R   0.225521 0.494736 0.040499 0.050186
C3    C     C_R   0.324942 0.518227 0.090539 0.032354
C4    C     C_R   0.917112 0.500414 0.672206 0.566477
C5    C     C_R   0.079654 0.478565 0.084570 -0.139363
C6    C     C_R   0.031307 0.483113 0.178133 -0.144224
C7    C     C_R   0.274184 0.518425 0.184849 -0.132788
C8    C     C_2   0.884960 0.933400 0.503873 -0.164732
C9    C     C_2   0.004125 0.866605 0.494565 -0.119734
C10   C     C_2   0.886759 0.067439 0.500226 -0.168031
C11   C     C_2   0.999835 0.133310 0.506410 -0.118786
C12   C     C_R   0.670119 0.522329 0.906329 0.032762
C13   C     C_2   0.394791 0.450686 0.563796 0.016589
C14   C     C_2   0.553073 0.433895 0.554797 0.087457
C15   C     C_R   0.000326 0.734599 0.498914 0.545351
C16   C     C_R   0.082941 0.500291 0.327683 0.539151
C17   C     C_R   0.870887 0.512745 0.770490 0.006696
C18   C     C_R   0.128863 0.501305 0.228785 -0.002617
C19   C     C_R   0.908210 0.594205 0.907287 -0.165396
C20   C     C_R   0.960035 0.568184 0.816076 -0.193516
C21   C     C_R   0.730554 0.479189 0.817655 0.242278
C22   C     C_3   0.672665 0.626509 0.384408 0.041118
C23   C     C_R   0.764185 0.572366 0.952627 0.009546
C24   C     C_3   0.586799 0.720161 0.347313 -0.416921
C25   C     C_3   0.679330 0.279057 0.803827 -0.014679
C26   C     C_3   0.614434 0.189524 0.751173 -0.373932
C27   C     C_R   0.520574 0.516467 0.950578 0.034686
C28   C     C_R   0.472123 0.537285 0.044873 0.023015
C29   C     C_R   0.571184 0.580985 0.089601 -0.142250
C30   C     C_R   0.713548 0.601070 0.043548 -0.138527
C31   C     C_R   0.417181 0.499284 0.902730 -0.115733
C32   C     C_R   0.272517 0.488421 0.947032 -0.156234
Cu1   Cu    Cu3+1 0.138640 0.500020 0.499980 0.929683
Cu2   Cu    Cu3+1 0.861360 0.499980 0.500020 0.988231
H1    H     H_    0.784825 0.638613 0.079678 0.107404
H2    H     H_    0.347005 0.527700 0.225826 0.117826
H3    H     H_    0.918474 0.469617 0.210755 0.116151
H4    H     H_    0.197085 0.474354 0.907744 0.107565
H5    H     H_    0.979492 0.635692 0.941687 0.121339
H6    H     H_    0.069041 0.592994 0.780966 0.137789
H7    H     H_    0.540461 0.607301 0.159394 0.097797
H8    H     H_    0.444443 0.500479 0.830241 0.178271
H9    H     H_    0.679845 0.540764 0.344574 0.110739
H10   H     H_    0.780641 0.665680 0.374651 0.186531
H11   H     H_    0.577456 0.806779 0.385806 0.161909
H12   H     H_    0.003135 0.460887 0.046701 0.112868
H13   H     H_    0.642002 0.739325 0.275531 0.089300
H14   H     H_    0.477856 0.685294 0.351871 0.150729
H15   H     H_    0.626396 0.265789 0.876903 0.137765
H16   H     H_    0.795810 0.257451 0.789740 0.123454
H17   H     H_    0.670248 0.196673 0.678254 0.154795
H18   H     H_    0.626487 0.094619 0.774070 0.106499
H19   H     H_    0.498723 0.209850 0.761968 0.148242
H20   H     H_    0.781981 0.889015 0.513038 0.162108
H21   H     H_    0.109161 0.907356 0.481853 0.105571
H22   H     H_    0.790380 0.112640 0.493374 0.142142
H23   H     H_    0.095212 0.091849 0.517132 0.101150
H24   H     H_    0.319040 0.416764 0.624393 0.114522
H25   H     H_    0.418209 0.508114 0.438763 0.242400
H26   H     H_    0.584064 0.364193 0.595963 0.100189
N1    N     N_2   0.346430 0.498660 0.500980 -0.323759
N2    N     N_2   0.652550 0.498630 0.501000 -0.060575
O1    O     O_R   0.117050 0.321960 0.499980 -0.499960
O2    O     O_3   0.656991 0.399571 0.777167 -0.576666
O3    O     O_R   0.882890 0.321920 0.500020 -0.514170
O4    O     O_R   0.052910 0.500040 0.629810 -0.517311
O5    O     O_R   0.818750 0.499990 0.629840 -0.444069
O6    O     O_R   0.117110 0.678080 0.499980 -0.487342
O7    O     O_R   0.882950 0.678040 0.500020 -0.484620
O8    O     O_R   0.181250 0.500010 0.370160 -0.514128
O9    O     O_R   0.947090 0.499960 0.370190 -0.531944
O10   O     O_3   0.605811 0.606865 0.476726 -0.472337

loop_
_geom_bond_atom_site_label_1
_geom_bond_atom_site_label_2
_ccdc_geom_bond_type
Cu2   O5    S    
C4    O5    A    
C1    O3    A    
C26   H19   S    
C16   O8    A    
C29   C30   A    
C9    H21   S    
C31   H8    S    
C26   H18   S    
C14   H26   S    
C5    H12   S    
C15   O6    A    
C31   C32   A    
C1    C11   S    
C22   H10   S    
C8    H20   S    
Cu1   O1    S    
C7    C18   A    
C25   H15   S    
C19   C20   A    
Cu1   Cu2   S    
C9    C15   S    
C6    H3    S    
N2    O10   S    
C11   H23   S    
C13   C14   S    
C25   H16   S    
C4    O4    A    
Cu2   O7    S    
C16   O9    A    
C19   H5    S    
Cu1   O8    S    
Cu1   N1    S    
C15   O7    A    
C24   H11   S    
C30   H1    S    
Cu2   O3    S    
C2    C32   A    
C3    C28   A    
Cu1   O4    S    
C2    C3    A    
C3    C7    A    
C32   H4    S    
C5    C6    A    
C20   H6    S    
C6    C18   A    
C22   C24   S    
H25   N1    S    
C2    C5    A    
C10   C11   D    
C4    C17   S    
C12   C27   A    
C27   C31   A    
C14   N2    D    
C23   C30   A    
C1    O1    A    
Cu2   N2    S    
C17   C20   A    
C13   N1    D    
Cu1   O6    S    
C16   C18   S    
C10   H22   S    
C7    H2    S    
C22   O10   S    
C27   C28   A    
C19   C23   A    
C28   C29   A    
C21   O2    S    
C12   C23   A    
C13   H24   S    
C29   H7    S    
C25   C26   S    
C26   H17   S    
C24   H13   S    
Cu2   O9    S    
C8    C10   S    
C17   C21   A    
C22   H9    S    
C12   C21   A    
C8    C9    D    
C25   O2    S    
C24   H14   S    
