data_mof_unit_17472.cif
_audit_creation_date              2013-03-05T16:00:42-0500
_audit_creation_method            fapswitch 2.2
_symmetry_space_group_name_H-M    P1
_symmetry_Int_Tables_number       1
_space_group_crystal_system       triclinic
_cell_length_a                    6.92906
_cell_length_b                    31.498469
_cell_length_c                    35.075068
_cell_angle_alpha                 89.981032
_cell_angle_beta                  90.019614
_cell_angle_gamma                 90.227234
_cell_volume                      7655.24023657

loop_
_atom_site_label
_atom_site_type_symbol
_atom_site_description
_atom_site_fract_x
_atom_site_fract_y
_atom_site_fract_z
_atom_type_partial_charge
O1    O     O_R   0.417270 0.211480 0.210950 -0.580435
O2    O     O_R   0.582730 0.788520 0.789050 -0.573257
O3    O     O_R   0.582730 0.788520 0.710950 -0.583467
O4    O     O_R   0.417270 0.211480 0.289050 -0.570561
O5    O     O_R   0.917270 0.288520 0.289050 -0.601196
O6    O     O_R   0.082730 0.711480 0.710950 -0.564217
O7    O     O_R   0.082730 0.711480 0.789050 -0.575709
O8    O     O_R   0.917270 0.288520 0.210950 -0.566743
O9    O     O_R   0.746940 0.206370 0.288750 -0.580356
O10   O     O_R   0.253060 0.793630 0.711250 -0.550194
O11   O     O_R   0.253060 0.793630 0.788750 -0.563662
O12   O     O_R   0.746940 0.206370 0.211250 -0.568241
O13   O     O_R   0.246940 0.293630 0.211250 -0.560202
O14   O     O_R   0.753060 0.706370 0.788750 -0.580885
O15   O     O_R   0.753060 0.706370 0.711250 -0.562725
O16   O     O_R   0.246940 0.293630 0.288750 -0.563317
C1    C     C_R   0.579170 0.196394 0.302230 1.156855
C2    C     C_R   0.421589 0.804813 0.698503 1.112791
C3    C     C_R   0.422208 0.804538 0.801570 1.148273
C4    C     C_R   0.577941 0.195926 0.198157 1.143077
C5    C     C_R   0.078021 0.303838 0.197912 1.110445
C6    C     C_R   0.922755 0.696491 0.802373 1.144872
C7    C     C_R   0.921996 0.695475 0.698070 1.105436
C8    C     C_R   0.078082 0.303580 0.301956 1.188287
O17   O     O_3   0.583760 0.276950 0.250000 -0.251699
O18   O     O_3   0.416240 0.723050 0.750000 -0.250713
O19   O     O_3   0.083760 0.223050 0.250000 -0.253678
O20   O     O_3   0.916240 0.776950 0.750000 -0.239892
V1    V     V_3+5 0.858600 0.245000 0.250000 1.387817
V2    V     V_3+5 0.141400 0.755000 0.750000 1.409258
V3    V     V_3+5 0.358600 0.255000 0.250000 1.396152
V4    V     V_3+5 0.641400 0.745000 0.750000 1.391385
C9    C     C_R   0.983848 0.581359 0.540773 0.518857
C10   C     C_R   0.932937 0.409832 0.462159 0.544941
C11   C     C_R   0.109122 0.413087 0.035146 0.499952
C12   C     C_R   0.831105 0.570709 0.950174 0.550404
C13   C     C_R   0.455248 0.914224 0.960723 0.529024
C14   C     C_R   0.504084 0.087435 0.039158 0.527450
C15   C     C_R   0.588181 0.091529 0.464741 0.530717
C16   C     C_R   0.530503 0.920205 0.546113 0.518402
N1    N     N_R   0.975048 0.567684 0.577918 -0.161122
N2    N     N_R   0.017396 0.420688 0.428067 -0.156915
N3    N     N_R   0.011680 0.419113 0.068874 -0.151491
N4    N     N_R   0.975764 0.572422 0.923716 -0.163827
N5    N     N_R   0.471358 0.928192 0.923853 -0.161516
N6    N     N_R   0.538518 0.073134 0.075417 -0.161722
N7    N     N_R   0.557439 0.077311 0.428274 -0.161147
N8    N     N_R   0.502203 0.935204 0.582371 -0.160329
C17   C     C_R   0.976094 0.524935 0.585925 0.615370
C18   C     C_R   0.094199 0.460731 0.423230 0.577343
C19   C     C_R   0.852101 0.445269 0.066228 0.572630
C20   C     C_R   0.126018 0.544209 0.924585 0.556314
C21   C     C_R   0.497479 0.970562 0.916112 0.605481
C22   C     C_R   0.558260 0.030515 0.082579 0.596658
C23   C     C_R   0.520938 0.035075 0.421518 0.591304
C24   C     C_R   0.491009 0.978090 0.589057 0.594391
C25   C     C_R   0.960344 0.494557 0.556087 -0.097306
C26   C     C_R   0.067350 0.492621 0.451388 -0.083893
C27   C     C_R   0.837982 0.477162 0.037430 -0.086565
C28   C     C_R   0.131288 0.511067 0.952212 -0.094410
C29   C     C_R   0.494818 0.001233 0.945956 -0.098487
C30   C     C_R   0.528851 0.000040 0.053118 -0.097888
C31   C     C_R   0.528621 0.004822 0.451704 -0.096309
C32   C     C_R   0.522071 0.007845 0.559014 -0.105310
C33   C     C_R   0.993604 0.508752 0.518384 -0.026579
C34   C     C_R   0.002962 0.479531 0.487818 -0.027995
C35   C     C_R   0.983503 0.478444 0.009180 -0.030705
C36   C     C_R   0.983843 0.510045 0.980338 -0.024666
C37   C     C_R   0.494499 0.986310 0.984136 -0.023910
C38   C     C_R   0.508484 0.015096 0.015195 -0.024517
C39   C     C_R   0.541830 0.020282 0.489603 -0.024874
C40   C     C_R   0.531632 0.992097 0.521171 -0.028735
C41   C     C_R   0.014766 0.552287 0.511043 -0.098829
C42   C     C_R   0.944480 0.437352 0.493635 -0.110304
C43   C     C_R   0.119608 0.445762 0.007988 -0.103199
C44   C     C_R   0.833864 0.539995 0.979239 -0.124259
C45   C     C_R   0.479377 0.942535 0.991374 -0.104593
C46   C     C_R   0.501167 0.059008 0.008237 -0.106999
C47   C     C_R   0.566322 0.063975 0.496038 -0.105670
C48   C     C_R   0.531433 0.948085 0.514787 -0.106966
C49   C     C_R   0.910663 0.451092 0.562030 0.219569
C50   C     C_R   0.099272 0.536775 0.444755 0.211351
C51   C     C_R   0.685378 0.507465 0.035532 0.224971
C52   C     C_R   0.273894 0.478424 0.952554 0.188847
C53   C     C_R   0.491792 0.045938 0.939426 0.218376
C54   C     C_R   0.517608 0.955419 0.059822 0.218792
C55   C     C_R   0.524424 0.960025 0.445781 0.217800
C56   C     C_R   0.543297 0.052412 0.564982 0.222556
C57   C     C_R   0.895651 0.423703 0.530477 -0.112785
C58   C     C_R   0.064348 0.565953 0.474271 -0.102447
C59   C     C_R   0.686243 0.538149 0.006499 -0.130134
C60   C     C_R   0.261300 0.445652 0.979599 -0.108691
C61   C     C_R   0.490295 0.073863 0.970634 -0.105122
C62   C     C_R   0.488413 0.927684 0.028996 -0.104419
C63   C     C_R   0.531158 0.932576 0.477330 -0.106628
C64   C     C_R   0.570169 0.079429 0.533516 -0.108129
O21   O     O_2   0.965326 0.623009 0.532627 -0.528734
O22   O     O_2   0.836725 0.372732 0.465649 -0.533623
O23   O     O_2   0.179724 0.374721 0.025833 -0.527366
O24   O     O_2   0.684069 0.598607 0.948184 -0.526529
O25   O     O_2   0.419111 0.872815 0.967724 -0.527630
O26   O     O_2   0.475250 0.129221 0.032965 -0.523193
O27   O     O_2   0.640006 0.132318 0.470785 -0.523916
O28   O     O_2   0.553997 0.878188 0.540288 -0.525537
O29   O     O_2   0.993140 0.512203 0.622432 -0.482890
O30   O     O_2   0.195262 0.469419 0.391339 -0.500297
O31   O     O_2   0.701342 0.438533 0.089318 -0.574542
O32   O     O_2   0.267969 0.548463 0.898615 -0.491897
O33   O     O_2   0.527463 0.982550 0.879718 -0.488412
O34   O     O_2   0.606925 0.018081 0.118040 -0.492478
O35   O     O_2   0.475438 0.022803 0.385836 -0.490218
O36   O     O_2   0.446698 0.991533 0.624421 -0.492090
H1    H     H_    0.851556 0.391025 0.534928 0.174666
H2    H     H_    0.082435 0.599597 0.468789 0.178350
H3    H     H_    0.569614 0.560931 0.005203 0.174476
H4    H     H_    0.367586 0.420482 0.979372 0.170086
H5    H     H_    0.484889 0.107748 0.965403 0.180389
H6    H     H_    0.477028 0.893896 0.034432 0.178953
H7    H     H_    0.530809 0.898589 0.472532 0.180707
H8    H     H_    0.589246 0.113164 0.538364 0.178809
C65   C     C_R   0.971889 0.402232 0.359104 0.272326
C66   C     C_R   0.806948 0.598095 0.634505 0.228703
C67   C     C_R   0.917773 0.590878 0.856325 0.275258
C68   C     C_R   0.962427 0.403590 0.139755 0.260978
C69   C     C_R   0.413275 0.102325 0.136435 0.243524
C70   C     C_R   0.309356 0.900177 0.865622 0.232293
C71   C     C_R   0.601672 0.903366 0.644678 0.244335
C72   C     C_R   0.697143 0.101861 0.366438 0.254933
C73   C     C_R   0.040594 0.377333 0.328353 0.177735
C74   C     C_R   0.790995 0.629121 0.663759 0.219564
C75   C     C_R   0.908259 0.620848 0.826395 0.179936
C76   C     C_R   0.953448 0.372080 0.168681 0.199806
C77   C     C_R   0.424764 0.131639 0.166972 0.223605
C78   C     C_R   0.299987 0.870973 0.834905 0.209240
C79   C     C_R   0.577523 0.872082 0.673446 0.216661
C80   C     C_R   0.692921 0.129536 0.334642 0.197509
C81   C     C_R   0.066802 0.333245 0.334569 -0.507030
C82   C     C_R   0.934270 0.661771 0.667432 -0.486581
C83   C     C_R   0.939358 0.664517 0.833802 -0.495540
C84   C     C_R   0.069676 0.335411 0.166133 -0.449670
C85   C     C_R   0.568909 0.163678 0.166991 -0.469767
C86   C     C_R   0.433882 0.837108 0.832649 -0.450639
C87   C     C_R   0.430983 0.840568 0.670073 -0.484681
C88   C     C_R   0.575448 0.166351 0.335205 -0.478363
C89   C     C_R   0.069416 0.317874 0.372682 0.318785
C90   C     C_R   0.090621 0.662309 0.640949 0.358400
C91   C     C_R   0.997884 0.677200 0.870934 0.328429
C92   C     C_R   0.198525 0.331882 0.135285 0.310216
C93   C     C_R   0.705665 0.165011 0.137045 0.345267
C94   C     C_R   0.581482 0.834238 0.860373 0.350051
C95   C     C_R   0.295825 0.843770 0.639593 0.346812
C96   C     C_R   0.470316 0.175784 0.368934 0.327815
C97   C     C_R   0.090399 0.347964 0.402495 0.107647
C98   C     C_R   0.109082 0.630158 0.612990 0.126591
C99   C     C_R   0.012029 0.646805 0.900721 0.101926
C100  C     C_R   0.206417 0.363591 0.106833 0.109591
C101  C     C_R   0.702266 0.134081 0.107823 0.097384
C102  C     C_R   0.601899 0.865504 0.888926 0.086166
C103  C     C_R   0.313373 0.876822 0.612331 0.115438
C104  C     C_R   0.439709 0.142886 0.395950 0.119184
C105  C     C_R   0.024342 0.390139 0.396729 -0.010959
C106  C     C_R   0.964195 0.598725 0.608745 0.000323
C107  C     C_R   0.965925 0.603815 0.893538 0.007721
C108  C     C_R   0.057618 0.394932 0.104431 -0.046227
C109  C     C_R   0.551535 0.103442 0.106653 0.016847
C110  C     C_R   0.460811 0.897706 0.892713 0.023171
C111  C     C_R   0.473141 0.904918 0.613314 0.001761
C112  C     C_R   0.564171 0.107355 0.396635 -0.000867
C113  C     C_3   0.860269 0.433366 0.600773 -0.722677
H9    H     H_    0.742868 0.452335 0.613847 0.282514
H10   H     H_    0.808550 0.399994 0.599069 0.208978
H11   H     H_    0.989761 0.433560 0.619398 0.274543
C114  C     C_3   0.158323 0.554361 0.406427 -0.704916
H12   H     H_    0.054419 0.543914 0.384184 0.278517
H13   H     H_    0.160215 0.589626 0.406191 0.209643
H14   H     H_    0.306352 0.543701 0.399213 0.276248
C115  C     C_3   0.520419 0.508870 0.063697 -0.728197
H15   H     H_    0.577035 0.513024 0.093079 0.297201
H16   H     H_    0.421039 0.535752 0.058097 0.208252
H17   H     H_    0.432851 0.479400 0.061616 0.238213
C116  C     C_3   0.439278 0.476624 0.924613 -0.660997
H18   H     H_    0.529939 0.505522 0.927514 0.267562
H19   H     H_    0.534981 0.449009 0.929827 0.203259
H20   H     H_    0.383262 0.473626 0.895080 0.289260
C117  C     C_3   0.482226 0.065323 0.900076 -0.723884
H21   H     H_    0.354453 0.052855 0.884513 0.276945
H22   H     H_    0.467876 0.100417 0.901088 0.210540
H23   H     H_    0.616730 0.058341 0.884130 0.276896
C118  C     C_3   0.527930 0.936014 0.099158 -0.724951
H24   H     H_    0.414474 0.949807 0.117701 0.279823
H25   H     H_    0.503823 0.901132 0.098612 0.209825
H26   H     H_    0.673125 0.941442 0.111652 0.273631
C119  C     C_3   0.521219 0.940032 0.406648 -0.722302
H27   H     H_    0.645344 0.951750 0.389555 0.277151
H28   H     H_    0.532946 0.904900 0.407975 0.210169
H29   H     H_    0.383026 0.947346 0.392097 0.277069
C120  C     C_3   0.546767 0.072361 0.604127 -0.732383
H30   H     H_    0.660182 0.057299 0.621887 0.279638
H31   H     H_    0.580038 0.106864 0.602947 0.210105
H32   H     H_    0.403296 0.068962 0.617875 0.272821
N9    N     N_R   0.841078 0.437196 0.352120 0.271892
O37   O     O_R   0.749230 0.454855 0.380276 -0.375921
O38   O     O_R   0.774946 0.443848 0.317906 -0.247249
N10   N     N_R   0.666240 0.564462 0.632104 0.268258
O39   O     O_R   0.586690 0.554757 0.599648 -0.442164
O40   O     O_R   0.632093 0.540604 0.661669 -0.237699
N11   N     N_R   0.890091 0.546525 0.848560 0.271415
O41   O     O_R   0.001972 0.527191 0.824423 -0.254299
O42   O     O_R   0.763084 0.524678 0.867642 -0.367101
N12   N     N_R   0.907159 0.446416 0.149028 0.285891
O43   O     O_R   0.019974 0.477951 0.139895 -0.346988
O44   O     O_R   0.741537 0.454384 0.164970 -0.244755
N13   N     N_R   0.265343 0.070124 0.136511 0.266219
O45   O     O_R   0.165432 0.062307 0.105878 -0.420224
O46   O     O_R   0.240236 0.046231 0.166389 -0.250618
N14   N     N_R   0.168744 0.933491 0.868537 0.263445
O47   O     O_R   0.084205 0.941268 0.900894 -0.427784
O48   O     O_R   0.135846 0.958316 0.839614 -0.251485
N15   N     N_R   0.750306 0.935095 0.648570 0.273252
O49   O     O_R   0.860641 0.944873 0.619873 -0.418926
O50   O     O_R   0.762085 0.957533 0.679638 -0.242492
N16   N     N_R   0.832703 0.067421 0.367530 0.267263
O51   O     O_R   0.932729 0.060136 0.398228 -0.413843
O52   O     O_R   0.851722 0.042247 0.338375 -0.253413
N17   N     N_R   0.100628 0.397803 0.293292 0.289721
O53   O     O_R   0.167135 0.375835 0.264833 -0.380106
O54   O     O_R   0.134000 0.438509 0.293129 -0.221559
N18   N     N_R   0.626148 0.627250 0.688940 0.290624
O55   O     O_R   0.647638 0.630605 0.725537 -0.283359
O56   O     O_R   0.456611 0.616743 0.676031 -0.321529
N19   N     N_R   0.877588 0.606329 0.788128 0.271731
O57   O     O_R   0.748057 0.577322 0.781078 -0.228580
O58   O     O_R   0.999692 0.616853 0.761535 -0.348047
N20   N     N_R   0.834412 0.378623 0.201600 0.260380
O59   O     O_R   0.672639 0.357887 0.204844 -0.306079
O60   O     O_R   0.869251 0.410094 0.224598 -0.237778
N21   N     N_R   0.290895 0.128405 0.198211 0.279207
O61   O     O_R   0.354138 0.125764 0.233058 -0.315220
O62   O     O_R   0.106199 0.125707 0.191900 -0.281907
N22   N     N_R   0.156306 0.876334 0.805714 0.284418
O63   O     O_R   0.207957 0.879530 0.770164 -0.296059
O64   O     O_R   0.975556 0.881217 0.814675 -0.287782
N23   N     N_R   0.698537 0.873233 0.706830 0.280630
O65   O     O_R   0.621066 0.873032 0.740611 -0.336089
O66   O     O_R   0.884422 0.878094 0.703769 -0.259076
N24   N     N_R   0.818275 0.121642 0.302851 0.278214
O67   O     O_R   0.747294 0.116950 0.268764 -0.304925
O68   O     O_R   0.004344 0.120442 0.307760 -0.290987
N25   N     N_R   0.043497 0.273245 0.381774 0.267784
O69   O     O_R   0.043665 0.244139 0.355475 -0.398975
O70   O     O_R   0.984691 0.262213 0.415598 -0.323384
N26   N     N_R   0.225835 0.697099 0.640114 0.233151
O71   O     O_R   0.245369 0.718583 0.608732 -0.338823
O72   O     O_R   0.364105 0.699127 0.665111 -0.362174
N27   N     N_R   0.053130 0.720512 0.878075 0.258492
O73   O     O_R   0.199019 0.736922 0.859924 -0.363432
O74   O     O_R   0.982129 0.740857 0.907107 -0.330801
N28   N     N_R   0.327630 0.296480 0.133103 0.238096
O75   O     O_R   0.493065 0.297991 0.150574 -0.341125
O76   O     O_R   0.295207 0.266544 0.108369 -0.313826
N29   N     N_R   0.842017 0.199433 0.135020 0.241757
O77   O     O_R   0.024949 0.192801 0.140617 -0.361164
O78   O     O_R   0.782032 0.237875 0.128808 -0.336129
N30   N     N_R   0.706911 0.798189 0.860686 0.246057
O79   O     O_R   0.883388 0.801961 0.848531 -0.344018
O80   O     O_R   0.635787 0.760579 0.867141 -0.359155
N31   N     N_R   0.143722 0.812917 0.634977 0.241402
O81   O     O_R   0.117019 0.795514 0.601770 -0.323850
O82   O     O_R   0.002962 0.811401 0.659415 -0.362739
N32   N     N_R   0.423590 0.219245 0.379151 0.265963
O83   O     O_R   0.465849 0.250769 0.356650 -0.402001
O84   O     O_R   0.384330 0.228570 0.414436 -0.339936
C121  C     C_3   0.199614 0.335748 0.438170 -0.626940
H33   H     H_    0.265871 0.363944 0.452008 0.197061
H34   H     H_    0.104072 0.319495 0.458934 0.281000
H35   H     H_    0.320245 0.314176 0.430741 0.266260
C122  C     C_3   0.288214 0.629550 0.588133 -0.587813
H36   H     H_    0.311894 0.598283 0.574624 0.221934
H37   H     H_    0.276533 0.653786 0.565312 0.262579
H38   H     H_    0.419184 0.636470 0.605224 0.245778
C123  C     C_3   0.086949 0.660061 0.939494 -0.667063
H39   H     H_    0.976655 0.679367 0.954390 0.263192
H40   H     H_    0.122902 0.632761 0.958090 0.200105
H41   H     H_    0.221842 0.678867 0.936230 0.258475
C124  C     C_3   0.400180 0.369030 0.087664 -0.573739
H42   H     H_    0.428322 0.342442 0.067673 0.267948
H43   H     H_    0.412678 0.399801 0.072833 0.233739
H44   H     H_    0.516179 0.369079 0.109534 0.247036
C125  C     C_3   0.859724 0.134833 0.077912 -0.604374
H45   H     H_    0.858530 0.106532 0.059203 0.206051
H46   H     H_    0.845074 0.163702 0.059997 0.250835
H47   H     H_    0.003451 0.135253 0.091753 0.265925
C126  C     C_3   0.775615 0.863553 0.915041 -0.593892
H48   H     H_    0.790825 0.891798 0.933577 0.213997
H49   H     H_    0.766305 0.834808 0.933284 0.252248
H50   H     H_    0.909760 0.862050 0.897858 0.256745
C127  C     C_3   0.157261 0.882790 0.582526 -0.620597
H51   H     H_    0.150164 0.916101 0.572337 0.207901
H52   H     H_    0.184269 0.861673 0.557802 0.260993
H53   H     H_    0.012811 0.875328 0.594490 0.263153
C128  C     C_3   0.268529 0.144634 0.422652 -0.631429
H54   H     H_    0.211848 0.112256 0.428405 0.223252
H55   H     H_    0.308951 0.159651 0.450113 0.271380
H56   H     H_    0.148567 0.162846 0.409539 0.261779

loop_
_geom_bond_atom_site_label_1
_geom_bond_atom_site_label_2
_geom_bond_distance
_ccdc_geom_bond_type
O17   V3    1.703973 S    
C100  C108  1.432708 A    
C16   O28   1.349704 S    
C56   C64   1.405415 A    
N24   O68   1.301365 A    
O18   V4    1.703975 S    
N6    C109  1.455942 S    
O12   V1    1.979747 S    
O19   V1    1.708988 S    
C113  H10   1.110845 S    
C113  H9    1.110561 S    
C7    C82   1.513492 S    
C37   C45   1.405447 A    
C49   C57   1.407052 A    
C10   N2    1.374012 A    
C65   N9    1.449828 S    
N8    C24   1.373631 A    
C10   O22   1.348616 S    
C67   N11   1.435535 S    
C84   C92   1.407725 A    
C39   C47   1.404332 A    
C117  H21   1.110435 S    
N2    C105  1.462002 S    
C85   C93   1.415395 A    
O15   V4    1.983878 S    
O14   V4    1.982963 S    
C29   C37   1.419101 A    
C116  H18   1.108596 S    
C123  H41   1.110531 S    
C30   C54   1.426778 A    
C83   C91   1.420939 A    
N25   O69   1.300741 A    
C126  H48   1.106764 S    
C77   N21   1.439181 S    
C1    C88   1.494298 S    
O8    V1    1.978671 S    
C42   C57   1.402829 A    
C89   N25   1.451845 S    
C52   C116  1.509373 S    
C71   C79   1.419623 A    
C41   C58   1.402016 A    
C124  H44   1.110892 S    
C72   C80   1.415650 A    
N29   O77   1.300291 A    
C28   C52   1.428902 A    
C96   C104  1.419311 A    
C117  H22   1.110871 S    
C78   C86   1.418747 A    
C46   C61   1.401426 A    
C69   C77   1.416368 A    
N23   O65   1.300967 A    
C34   C42   1.402342 A    
N21   O62   1.301141 A    
C93   C101  1.414463 A    
C45   C62   1.401356 A    
O1    V3    1.981533 S    
C121  H35   1.110426 S    
C17   C25   1.422167 A    
C30   C38   1.419161 A    
O3    C2    1.305652 A    
O2    V4    1.981529 S    
N9    O37   1.301305 A    
N3    C108  1.495955 S    
C66   N10   1.439370 S    
C118  H25   1.110869 S    
O13   V3    1.982962 S    
C68   C108  1.430665 A    
N18   O55   1.296503 A    
C92   N28   1.434415 S    
C54   C62   1.404371 A    
N17   O54   1.301997 A    
C69   N13   1.439185 S    
C125  H47   1.107801 S    
C26   C34   1.414346 A    
C94   C102  1.411488 A    
C76   C84   1.413569 A    
O11   V2    1.979745 S    
C96   N32   1.453020 S    
N30   O79   1.300118 A    
N23   O66   1.300948 A    
C55   C63   1.404952 A    
C50   C58   1.406255 A    
C31   C55   1.426520 A    
C52   C60   1.404190 A    
C16   C48   1.406346 A    
C121  H34   1.108210 S    
N4    C107  1.450047 S    
C49   C113  1.509504 S    
C20   C28   1.424673 A    
N5    C110  1.456192 S    
C65   C73   1.417389 A    
C75   N19   1.433602 S    
C119  H27   1.110458 S    
O9    V1    1.979558 S    
O4    V3    1.980711 S    
C126  H49   1.110200 S    
C27   C35   1.414393 A    
N27   O74   1.301115 A    
N4    C20   1.371825 A    
C128  H55   1.108604 S    
N7    C23   1.373853 A    
N5    C21   1.373129 A    
C58   H2    1.083790 S    
O16   C8    1.298119 A    
O7    V2    1.978671 S    
C122  H36   1.105914 S    
C54   C118  1.510632 S    
C53   C117  1.510603 S    
N9    O38   1.301625 A    
O12   C4    1.298863 A    
C120  H30   1.110466 S    
N20   O60   1.300033 A    
C103  C111  1.414964 A    
C19   O31   1.338220 S    
C11   O23   1.345917 S    
N1    C17   1.375436 A    
C100  C124  1.510865 S    
C68   C76   1.420263 A    
C64   H8    1.083742 S    
C82   C90   1.427352 A    
N17   O53   1.300357 A    
C19   C27   1.427962 A    
O5    V1    1.979104 S    
C116  H19   1.110929 S    
O17   V1    2.157468 S    
C57   H1    1.083805 S    
N25   O70   1.301254 A    
C18   O30   1.347329 S    
C51   C115  1.511791 S    
O19   V3    2.150412 S    
N11   O41   1.301218 A    
C18   C26   1.421744 A    
C101  C125  1.513977 S    
O20   V4    2.150410 S    
C75   C83   1.415572 A    
N14   O47   1.301148 A    
C55   C119  1.510452 S    
N19   O58   1.301492 A    
C88   C96   1.421651 A    
C33   C41   1.402289 A    
C101  C109  1.419830 A    
N15   O49   1.300353 A    
N29   O78   1.300074 A    
C119  H28   1.110868 S    
C124  H43   1.102957 S    
C117  H23   1.109881 S    
C17   O29   1.347008 S    
C22   C30   1.424686 A    
C115  H16   1.110918 S    
C123  H39   1.109518 S    
C114  H12   1.110484 S    
C15   N7    1.371658 A    
C13   C45   1.406502 A    
C6    C83   1.497626 S    
C9    N1    1.373383 A    
N26   O71   1.298767 A    
C73   N17   1.448704 S    
C35   C36   1.418987 A    
C23   C31   1.425336 A    
C38   C46   1.405570 A    
O16   V3    1.983877 S    
C22   O34   1.347066 S    
C95   C103  1.418243 A    
C56   C120  1.510306 S    
C99   C123  1.513773 S    
C120  H32   1.109819 S    
C69   C109  1.417958 A    
C76   N20   1.434624 S    
C124  H42   1.110340 S    
C27   C51   1.428812 A    
N21   O61   1.301066 A    
N15   O50   1.301390 A    
C67   C107  1.407160 A    
C92   C100  1.412584 A    
O10   V2    1.979556 S    
N26   O72   1.299885 A    
C53   C61   1.404527 A    
C90   C98   1.416113 A    
N30   O80   1.301088 A    
N13   O45   1.301016 A    
C115  H17   1.109363 S    
O11   C3    1.300179 A    
N6    C22   1.373002 A    
N22   O64   1.301104 A    
O8    C5    1.295584 A    
C35   C43   1.399510 A    
C80   N24   1.436017 S    
O3    V4    1.980711 S    
C12   O24   1.349840 S    
C127  H52   1.109464 S    
C36   C44   1.406799 A    
O9    C1    1.292692 A    
C48   C63   1.401864 A    
N16   O52   1.301282 A    
C60   H4    1.084249 S    
O14   C6    1.307715 A    
C20   O32   1.347083 S    
C114  H13   1.110850 S    
C29   C53   1.426786 A    
C43   C60   1.398608 A    
N2    C18   1.377490 A    
O4    C1    1.304495 A    
C9    C41   1.405050 A    
O6    V2    1.979109 S    
N10   O40   1.301657 A    
C120  H31   1.110869 S    
N12   O43   1.301575 A    
C3    C86   1.499103 S    
N12   O44   1.302098 A    
C122  H37   1.109109 S    
C12   C44   1.405383 A    
N18   O56   1.300465 A    
C8    C81   1.479564 S    
C127  H53   1.109731 S    
N32   O84   1.301185 A    
C12   N4    1.367128 A    
C23   O35   1.346951 S    
C123  H40   1.108215 S    
C33   C34   1.414912 A    
C21   C29   1.424890 A    
N27   O73   1.300165 A    
C74   C82   1.432374 A    
C98   C106  1.415058 A    
N28   O76   1.300391 A    
C95   N31   1.439885 S    
C11   N3    1.375905 A    
C102  C110  1.417849 A    
C72   C112  1.415174 A    
C50   C114  1.509851 S    
C104  C128  1.512732 S    
C128  H56   1.111262 S    
C21   O33   1.347008 S    
C118  H24   1.110425 S    
C16   N8    1.371266 A    
N24   O67   1.300904 A    
C2    C87   1.505231 S    
O1    C4    1.298315 A    
C32   C56   1.426421 A    
C87   C95   1.424859 A    
C116  H20   1.110017 S    
N22   O63   1.301130 A    
C67   C75   1.413281 A    
O2    C3    1.299798 A    
N32   O83   1.300722 A    
C78   N22   1.438234 S    
C4    C85   1.493593 S    
C93   N29   1.437055 S    
C98   C122  1.517259 S    
C128  H54   1.109870 S    
C11   C43   1.403848 A    
C102  C126  1.513772 S    
C31   C39   1.418645 A    
C70   C110  1.417806 A    
C94   N30   1.432692 S    
C66   C106  1.415783 A    
C114  H14   1.109863 S    
N31   O81   1.300334 A    
C71   N15   1.438756 S    
C72   N16   1.438265 S    
C71   C111  1.416118 A    
C91   C99   1.420495 A    
C126  H50   1.109145 S    
O7    C6    1.290749 A    
C14   C46   1.406720 A    
C77   C85   1.417042 A    
C61   H5    1.083731 S    
C70   N14   1.438431 S    
C81   C89   1.421753 A    
C99   C107  1.412747 A    
O15   C7    1.305900 A    
C86   C94   1.414129 A    
C26   C50   1.426428 A    
N28   O75   1.300353 A    
N13   O46   1.301316 A    
C89   C97   1.418577 A    
O20   V2    1.708988 S    
C80   C88   1.419593 A    
C24   O36   1.346741 S    
C118  H26   1.109890 S    
O13   C5    1.301808 A    
C119  H29   1.109861 S    
C13   O25   1.349640 S    
N7    C112  1.458861 S    
C62   H6    1.083732 S    
N3    C19   1.384615 A    
C24   C32   1.425865 A    
N8    C111  1.458229 S    
C68   N12   1.441052 S    
O10   C2    1.297924 A    
O5    C8    1.291187 A    
O6    C7    1.301542 A    
C51   C59   1.403724 A    
C91   N27   1.437519 S    
C79   C87   1.422081 A    
C125  H46   1.110115 S    
C59   H3    1.083820 S    
C9    O21   1.349168 S    
C32   C40   1.418815 A    
C37   C38   1.420643 A    
C25   C49   1.425638 A    
C104  C112  1.415794 A    
C14   N6    1.370251 A    
C40   C48   1.404330 A    
C63   H7    1.083727 S    
C28   C36   1.420727 A    
C44   C59   1.401440 A    
C74   N18   1.445135 S    
C127  H51   1.109593 S    
C90   N26   1.439229 S    
C47   C64   1.402151 A    
C73   C81   1.418039 A    
N10   O39   1.300656 A    
C70   C78   1.418224 A    
C14   O26   1.349591 S    
C115  H15   1.110206 S    
N20   O59   1.300113 A    
C122  H38   1.108402 S    
C97   C105  1.421208 A    
N19   O57   1.301913 A    
N11   O42   1.300495 A    
C15   O27   1.349469 S    
C125  H45   1.107114 S    
N31   O82   1.299398 A    
C10   C42   1.405975 A    
C113  H11   1.109716 S    
C103  C127  1.516272 S    
C5    C84   1.494831 S    
C39   C40   1.420576 A    
C97   C121  1.512568 S    
N1    C106  1.460186 S    
C13   N5    1.370336 A    
N16   O51   1.301143 A    
C66   C74   1.421863 A    
C65   C105  1.420993 A    
N14   O48   1.301283 A    
C15   C47   1.406996 A    
C79   N23   1.440364 S    
C25   C33   1.414516 A    
O18   V2    2.157469 S    
C121  H33   1.109972 S    
