data_mof_unit_27648.cif
_audit_creation_date              2012-12-11T17:00:18-0500
_audit_creation_method            fapswitch 2.2
_symmetry_space_group_name_H-M    P1
_symmetry_Int_Tables_number       1
_space_group_crystal_system       triclinic
_cell_length_a                    6.977821
_cell_length_b                    13.608395
_cell_length_c                    20.30803
_cell_angle_alpha                 103.036392
_cell_angle_beta                  90.304458
_cell_angle_gamma                 90.065522
_cell_volume                      1878.65614383

loop_
_atom_site_label
_atom_site_type_symbol
_atom_type_description
_atom_site_fract_x
_atom_site_fract_y
_atom_site_fract_z
_atom_type_partial_charge
O1    O     O_R   0.506770 0.599700 0.449550 -0.539752
O2    O     O_R   0.179980 0.595740 0.587960 -0.549910
O3    O     O_R   0.004580 0.400300 0.550450 -0.547650
C1    C     C_R   0.348361 0.618204 0.614910 0.696493
O4    O     O_R   0.177380 0.611700 0.452380 -0.542067
O5    O     O_R   0.001970 0.416370 0.413900 -0.545337
C2    C     C_R   0.345850 0.635653 0.433531 0.710177
O6    O     O_R   0.509390 0.583630 0.586100 -0.519021
O7    O     O_3   0.337530 0.435890 0.487530 -0.377850
V1    V     V_3+5 0.064660 0.511890 0.502310 1.429347
O8    O     O_R   0.671950 0.404260 0.412040 -0.543895
C3    C     C_R   0.840481 0.382950 0.384757 0.680770
O9    O     O_R   0.674540 0.388300 0.547620 -0.540719
C4    C     C_R   0.844263 0.363862 0.565833 0.746257
V2    V     V_3+5 0.564030 0.488110 0.497690 1.445664
O10   O     O_3   0.841030 0.564110 0.512470 -0.359724
C5    C     C_R   0.973182 0.124796 0.616285 -0.180971
H1    H     H_    0.940151 0.171027 0.522713 0.131969
H2    H     H_    0.064074 0.010138 0.701320 0.121334
H3    H     H_    0.030833 0.051854 0.592013 0.140038
C6    C     C_R   0.860687 0.289114 0.607272 -0.116594
C7    C     C_R   0.750973 0.304267 0.927950 -0.155159
C8    C     C_R   0.683591 0.369600 0.889663 -0.152710
C9    C     C_R   0.716374 0.349227 0.820427 -0.149756
C10   C     C_R   0.828736 0.265883 0.788369 0.075966
C11   C     C_R   0.888630 0.196151 0.827131 0.067354
C12   C     C_R   0.872899 0.246432 0.718098 -0.011075
C13   C     C_R   0.948716 0.150799 0.686417 0.091133
C14   C     C_R   0.002135 0.082339 0.724996 -0.208682
C15   C     C_R   0.976681 0.105417 0.794456 -0.210345
C16   C     C_R   0.852354 0.319517 0.678263 0.328986
C17   C     C_R   0.921924 0.192112 0.576873 -0.234700
C18   C     C_R   0.849390 0.216428 0.897232 -0.083628
H4    H     H_    0.716060 0.319052 0.981224 0.104726
H5    H     H_    0.647992 0.398298 0.792662 0.170790
H6    H     H_    0.599678 0.434703 0.913417 0.121679
C19   C     C_R   0.708839 0.183071 0.226942 0.108594
C20   C     C_R   0.866130 0.183660 0.184358 -0.109018
C21   C     C_R   0.021729 0.246529 0.210896 -0.184284
H7    H     H_    0.144570 0.250920 0.179607 0.136349
C22   C     C_R   0.014819 0.309703 0.276289 -0.176698
C23   C     C_R   0.851637 0.312386 0.317267 -0.106046
C24   C     C_R   0.702056 0.245690 0.291792 0.096542
C25   C     C_3   0.496289 0.269692 0.284449 -0.412701
C26   C     C_3   0.503811 0.203021 0.213865 -0.411609
H8    H     H_    0.473167 0.350689 0.284917 0.165279
H9    H     H_    0.486673 0.245383 0.173336 0.168151
H10   H     H_    0.412424 0.134984 0.208033 0.168458
C27   C     C_R   0.508815 0.687934 0.727239 0.041314
C28   C     C_R   0.352197 0.685112 0.683851 -0.097220
C29   C     C_R   0.194271 0.746124 0.709046 -0.218352
H11   H     H_    0.074512 0.749822 0.676202 0.189317
C30   C     C_R   0.195682 0.808484 0.774738 -0.206420
C31   C     C_R   0.356057 0.812069 0.817548 -0.099852
C32   C     C_R   0.510643 0.748596 0.792980 0.032582
C33   C     C_3   0.716385 0.776845 0.789002 -0.485161
C34   C     C_3   0.711017 0.715099 0.716155 0.286411
H12   H     H_    0.807157 0.741679 0.822507 0.159247
C35   C     C_R   0.441468 0.881018 0.384480 0.425875
H13   H     H_    0.434972 0.830647 0.476771 0.124038
H14   H     H_    0.438795 0.008092 0.301083 0.155196
C36   C     C_R   0.358246 0.711330 0.392518 -0.087342
C37   C     C_R   0.324493 0.680726 0.066203 -0.172492
C38   C     C_R   0.306198 0.604764 0.101536 -0.121892
C39   C     C_R   0.316939 0.627200 0.171988 -0.160384
C40   C     C_R   0.346675 0.727431 0.209161 0.101853
C41   C     C_R   0.366190 0.804581 0.172356 0.077338
C42   C     C_R   0.361454 0.753634 0.281344 0.026718
C43   C     C_R   0.405903 0.855106 0.314192 0.028550
C44   C     C_R   0.414701 0.929597 0.276786 -0.207261
C45   C     C_R   0.395793 0.904733 0.207297 -0.204993
C46   C     C_R   0.334906 0.682925 0.322230 -0.229623
C47   C     C_R   0.413060 0.809428 0.422896 -0.260714
C48   C     C_R   0.354961 0.780469 0.100955 -0.077413
H15   H     H_    0.296812 0.605360 0.301185 0.101855
H16   H     H_    0.314416 0.661740 0.011517 0.102542
O11   O     O_R   0.203450 0.916320 0.913910 -0.545006
O12   O     O_R   0.535520 0.888300 0.047620 -0.539769
O13   O     O_R   0.710860 0.083650 0.086100 -0.538687
C49   C     C_R   0.366303 0.859185 0.062074 0.689567
O14   O     O_R   0.532860 0.904250 0.912040 -0.539494
O15   O     O_R   0.708190 0.099710 0.949550 -0.537304
C50   C     C_R   0.364332 0.882846 0.884825 0.699477
O16   O     O_R   0.206120 0.900260 0.050460 -0.535966
O17   O     O_3   0.375280 0.064080 0.012470 -0.373428
V3    V     V_3+5 0.648180 0.988110 0.997690 1.418859
O18   O     O_R   0.038220 0.111740 0.952370 -0.544819
C51   C     C_R   0.868248 0.138290 0.935970 0.684057
O19   O     O_R   0.040880 0.095790 0.087940 -0.544720
C52   C     C_R   0.872495 0.117702 0.115069 0.691956
V4    V     V_3+5 0.148800 0.011950 0.002300 1.405884
O20   O     O_3   0.871820 0.935920 0.987530 -0.369118
H17   H     H_    0.132940 0.360661 0.293390 0.128214
H18   H     H_    0.404166 0.238657 0.319440 0.178267
H19   H     H_    0.076367 0.858476 0.790544 0.136996
H20   H     H_    0.739310 0.859322 0.796341 0.158364
H21   H     H_    0.803716 0.647580 0.708307 0.100739
O21   O     O_3   0.732171 0.766508 0.662547 -0.566813
C53   C     C_3   0.650082 0.864174 0.674026 0.094216
H22   H     H_    0.762656 0.920619 0.693809 0.127996
H23   H     H_    0.528868 0.875995 0.709959 0.141184
C54   C     C_3   0.573895 0.881467 0.607259 -0.304335
H24   H     H_    0.691608 0.869983 0.569815 0.195462
H25   H     H_    0.459156 0.825224 0.588701 0.181553
C55   C     C_3   0.491462 0.987303 0.615092 -0.846284
H26   H     H_    0.372194 0.999130 0.651845 0.230174
H27   H     H_    0.435792 0.997031 0.565656 0.253622
H28   H     H_    0.603539 0.045024 0.633065 0.248812
O22   O     O_3   0.492827 0.978101 0.417401 -0.578672
C56   C     C_3   0.689322 0.994092 0.406177 0.069775
H29   H     H_    0.713147 0.076765 0.414646 0.134330
H30   H     H_    0.734975 0.961111 0.353263 0.119056
C57   C     C_3   0.814950 0.953429 0.455835 -0.370049
H31   H     H_    0.782948 0.995442 0.507916 0.213855
H32   H     H_    0.784355 0.872301 0.452082 0.199941
C58   C     C_3   0.026013 0.963658 0.440633 -0.771638
H33   H     H_    0.058275 0.914532 0.390486 0.239133
H34   H     H_    0.113828 0.939731 0.479928 0.235228
H35   H     H_    0.063526 0.042564 0.439734 0.232564
H36   H     H_    0.303921 0.564236 0.195681 0.103640
H37   H     H_    0.283543 0.527626 0.074078 0.116853
H38   H     H_    0.408143 0.964839 0.180827 0.117290
O23   O     O_3   0.848907 0.421795 0.707810 -0.600862
C59   C     C_3   0.039461 0.459039 0.719238 0.065204
H39   H     H_    0.042297 0.535724 0.709244 0.145060
H40   H     H_    0.147235 0.414603 0.684254 0.112540
C60   C     C_3   0.101203 0.465801 0.792753 -0.316844
H41   H     H_    0.983112 0.498063 0.827373 0.212868
H42   H     H_    0.135967 0.389307 0.799865 0.200155
C61   C     C_3   0.277020 0.532439 0.811930 -0.849089
H43   H     H_    0.392770 0.509322 0.774363 0.235967
H44   H     H_    0.330150 0.526516 0.862508 0.224042
H45   H     H_    0.236993 0.611900 0.814493 0.247204
H46   H     H_    0.021862 0.049972 0.821964 0.122917

loop_
_geom_bond_atom_site_label_1
_geom_bond_atom_site_label_2
_ccdc_geom_bond_type
H14   C44   S    
C40   C42   A    
C32   C33   S    
O18   V4    S    
C30   H19   S    
C22   C23   A    
C45   H38   S    
O2    C1    A    
C1    O6    A    
O17   V4    S    
O23   C59   S    
C21   C22   A    
O17   V3    S    
C33   C34   S    
C55   H27   S    
C19   C20   A    
C4    C6    S    
C13   C14   A    
C18   C51   S    
O5    C3    A    
C20   C21   A    
O12   C49   A    
C37   H16   S    
O11   C50   A    
C38   H37   S    
O21   C53   S    
H13   C47   S    
C5    H3    S    
C27   C34   S    
C58   H33   S    
C54   C55   S    
C56   H29   S    
O13   C52   A    
C3    C23   S    
O8    V2    S    
C22   H17   S    
C30   C31   A    
C33   H12   S    
C42   C43   A    
C15   H46   S    
C8    C9    A    
C36   C47   A    
C44   C45   A    
O1    V2    S    
O16   V4    S    
O19   V4    S    
O7    V1    S    
C35   C47   A    
O14   V3    S    
C49   O16   A    
C57   C58   S    
O12   V3    S    
C40   C41   A    
C48   C49   S    
O9    C4    A    
C54   H24   S    
C46   H15   S    
C31   C50   S    
O14   C50   A    
C25   H8    S    
C26   H9    S    
C7    H4    S    
C6    C17   A    
C9    H5    S    
C12   C16   A    
C29   H11   S    
C9    C10   A    
V4    O20   S    
O4    C2    A    
C10   C11   A    
C27   C32   A    
C1    C28   S    
C29   C30   A    
C19   C24   A    
C61   H44   S    
C24   C25   S    
C60   H42   S    
C2    C36   S    
C14   C15   A    
C6    C16   A    
C11   C18   A    
C53   H22   S    
C42   C46   A    
C34   H21   S    
C28   C29   A    
C36   C46   A    
C41   C48   A    
C55   H28   S    
C54   H25   S    
C56   C57   S    
O3    C4    A    
C35   C43   A    
C59   C60   S    
C53   H23   S    
C8    H6    S    
O6    V2    S    
O9    V2    S    
C61   H45   S    
H1    C17   S    
C23   C24   A    
C19   C26   S    
C60   H41   S    
O2    V1    S    
C21   H7    S    
C25   C26   S    
C59   H40   S    
C57   H31   S    
C26   H10   S    
C33   H20   S    
C7    C18   A    
C31   C32   A    
O11   V4    S    
O1    C2    A    
C5    C13   A    
O5    V1    S    
O8    C3    A    
C11   C15   A    
C37   C48   A    
C10   C12   A    
C55   H26   S    
C20   C52   S    
C58   H35   S    
C38   C39   A    
C61   H43   S    
O7    V2    S    
C60   C61   S    
C16   O23   S    
O4    V1    S    
O3    V1    S    
V1    O10   S    
O22   C56   S    
O15   V3    S    
O15   C51   A    
C34   O21   S    
C35   O22   S    
C39   H36   S    
C58   H34   S    
C41   C45   A    
C39   C40   A    
C43   C44   A    
C56   H30   S    
C25   H18   S    
C37   C38   A    
C53   C54   S    
O18   C51   A    
C27   C28   A    
C12   C13   A    
C5    C17   A    
C7    C8    A    
V3    O20   S    
O19   C52   A    
O13   V3    S    
V2    O10   S    
C59   H39   S    
C57   H32   S    
H2    C14   S    
