data_mof_unit_41542.cif
_audit_creation_date              2012-10-26T19:58:17-0400
_audit_creation_method            fapswitch 2.2
_symmetry_space_group_name_H-M    P1
_symmetry_Int_Tables_number       1
_space_group_crystal_system       triclinic
_cell_length_a                    7.463836
_cell_length_b                    8.690115
_cell_length_c                    13.428541
_cell_angle_alpha                 94.065913
_cell_angle_beta                  78.503966
_cell_angle_gamma                 102.999136
_cell_volume                      831.340077355

loop_
_atom_site_label
_atom_site_type_symbol
_atom_type_description
_atom_site_fract_x
_atom_site_fract_y
_atom_site_fract_z
_atom_type_partial_charge
C1    C     C_R   0.545627 0.800048 0.502151 0.551772
C2    C     C_R   0.349024 0.407017 0.797059 -0.007330
C3    C     C_2   0.572292 0.967807 0.500879 -0.164024
C4    C     C_R   0.400572 0.465401 0.691192 0.553500
C5    C     C_2   0.428795 0.032047 0.496447 -0.158564
C6    C     C_R   0.454838 0.199904 0.496899 0.545233
C7    C     C_R   0.599467 0.510868 0.306405 0.545400
C8    C     C_R   0.887462 0.586522 0.044408 -0.133041
C9    C     C_R   0.654851 0.518396 0.195922 -0.001293
C10   C     C_R   0.163843 0.336133 0.836631 -0.166681
C11   C     C_R   0.107005 0.306904 0.939904 -0.141806
C12   C     C_R   0.425100 0.415832 0.967479 0.000355
C13   C     C_R   0.232961 0.354574 0.005827 -0.126740
C14   C     C_3   0.686790 0.176695 0.742674 -0.288640
C15   C     C_R   0.484883 0.420725 0.860568 0.052101
C16   C     C_R   0.561737 0.468729 0.030282 0.014590
C17   C     C_R   0.751599 0.527566 0.984620 0.019226
C18   C     C_R   0.807458 0.512441 0.880115 -0.139462
C19   C     C_R   0.678723 0.435107 0.821611 0.147748
C20   C     C_R   0.516946 0.465949 0.136539 -0.126999
C21   C     C_R   0.839781 0.580160 0.149666 -0.141287
Cu1   Cu    Cu3+1 0.321300 0.483160 0.488710 0.934665
Cu2   Cu    Cu3+1 0.678700 0.516840 0.511290 0.957465
H1    H     H_    0.947097 0.623094 0.194706 0.132134
H2    H     H_    0.962039 0.254003 0.969793 0.133416
H3    H     H_    0.711392 0.038819 0.503206 0.125459
H4    H     H_    0.881877 0.385014 0.700599 0.257770
H5    H     H_    0.752527 0.118411 0.673238 0.140953
H6    H     H_    0.532347 0.137969 0.751221 0.155494
H7    H     H_    0.732645 0.139004 0.809175 0.126960
H8    H     H_    0.290034 0.960983 0.493076 0.132966
H9    H     H_    0.012063 0.619719 0.578419 0.235435
H10   H     H_    0.988000 0.380492 0.421468 0.238846
H11   H     H_    0.954152 0.544944 0.845712 0.111726
H12   H     H_    0.032210 0.631919 0.009503 0.122522
H13   H     H_    0.375782 0.420863 0.175024 0.122091
H14   H     H_    0.063066 0.303677 0.787577 0.125530
H15   H     H_    0.176023 0.338146 0.085518 0.107236
N1    N     N_2   0.947230 0.542220 0.528320 -0.261803
N2    N     N_2   0.052770 0.457780 0.471680 -0.263545
N3    N     N_2   0.743395 0.346435 0.733576 -0.468417
O1    O     O_R   0.383920 0.714220 0.492660 -0.499382
O2    O     O_R   0.685730 0.742660 0.511730 -0.498742
O3    O     O_R   0.275440 0.478800 0.636790 -0.526941
O4    O     O_R   0.577250 0.507240 0.655860 -0.463860
O5    O     O_R   0.314270 0.257340 0.488270 -0.504441
O6    O     O_R   0.616080 0.285780 0.507340 -0.496410
O7    O     O_R   0.422750 0.492760 0.344140 -0.505035
O8    O     O_R   0.724560 0.521200 0.363210 -0.506148

loop_
_geom_bond_atom_site_label_1
_geom_bond_atom_site_label_2
_ccdc_geom_bond_type
Cu1   O7    S    
C14   H5    S    
Cu2   O4    S    
C18   H11   S    
H4    N3    S    
C9    C20   A    
C2    C4    S    
C8    C17   A    
C12   C15   A    
C16   C20   A    
Cu1   N2    S    
C7    O7    A    
C3    C5    D    
C8    C21   A    
C15   C19   A    
C2    C15   A    
C11   C13   A    
C9    C21   A    
C13   H15   S    
Cu1   O1    S    
C14   H7    S    
C10   H14   S    
Cu2   N1    S    
Cu1   O5    S    
C17   C18   A    
C4    O4    A    
C14   N3    S    
C6    O5    A    
C5    C6    S    
Cu2   O8    S    
H10   N2    S    
Cu2   O6    S    
C10   C11   A    
C11   H2    S    
C14   H6    S    
C20   H13   S    
C19   N3    S    
C1    O1    A    
Cu2   O2    S    
C12   C13   A    
C7    O8    A    
C7    C9    S    
C18   C19   A    
C6    O6    A    
C21   H1    S    
N1    N2    D    
H9    N1    S    
Cu1   Cu2   S    
C4    O3    A    
C5    H8    S    
C1    O2    A    
C3    H3    S    
Cu1   O3    S    
C12   C16   A    
C16   C17   A    
C1    C3    S    
C8    H12   S    
C2    C10   A    
