data_mof_unit_37841.cif
_audit_creation_date              2012-12-11T16:08:42-0500
_audit_creation_method            fapswitch 2.2
_symmetry_space_group_name_H-M    P1
_symmetry_Int_Tables_number       1
_space_group_crystal_system       triclinic
_cell_length_a                    12.888254
_cell_length_b                    13.273755
_cell_length_c                    27.687431
_cell_angle_alpha                 95.33957
_cell_angle_beta                  90.144456
_cell_angle_gamma                 118.662885
_cell_volume                      4132.13193057

loop_
_atom_site_label
_atom_site_type_symbol
_atom_type_description
_atom_site_fract_x
_atom_site_fract_y
_atom_site_fract_z
_atom_type_partial_charge
C1    C     C_R   0.628019 0.895371 0.427425 0.541329
C2    C     C_R   0.573209 0.318509 0.223579 -0.130279
C3    C     C_R   0.556570 0.293619 0.271766 0.009492
C4    C     C_R   0.641146 0.277316 0.297201 0.011841
C5    C     C_R   0.674487 0.329888 0.200786 0.010980
C6    C     C_1   0.689880 0.360069 0.151729 -0.047364
C7    C     C_1   0.622494 0.245074 0.345950 -0.041563
C8    C     C_1   0.702281 0.391548 0.111793 -0.011066
C9    C     C_R   0.204765 0.758339 0.346574 -0.125727
C10   C     C_R   0.195801 0.754717 0.296579 0.012204
C11   C     C_R   0.185661 0.751926 0.195924 -0.001310
C12   C     C_R   0.574281 0.174736 0.432957 0.563184
C13   C     C_R   0.199507 0.666667 0.216756 -0.101744
C14   C     C_R   0.202863 0.667129 0.266894 -0.118100
C15   C     C_R   0.168649 0.743787 0.146070 -0.171905
C16   C     C_R   0.135148 0.817090 0.125523 -0.014849
C17   C     C_R   0.198224 0.939124 0.356534 -0.132245
C18   C     C_R   0.182292 0.933141 0.306192 0.012436
C19   C     C_R   0.185672 0.842991 0.276084 0.064547
C20   C     C_R   0.168998 0.018501 0.285289 -0.133547
C21   C     C_R   0.160198 0.015264 0.234906 -0.110815
C22   C     C_R   0.163325 0.925911 0.204513 0.024745
C23   C     C_R   0.269502 0.876176 0.425361 0.543173
C24   C     C_R   0.179092 0.840874 0.225468 0.018191
C25   C     C_R   0.144313 0.916027 0.153896 0.252123
C26   C     C_R   0.214842 0.854384 0.376553 -0.005851
C27   C     C_R   0.752041 0.937957 0.357408 -0.127699
C28   C     C_R   0.756409 0.929758 0.307367 -0.004158
C29   C     C_R   0.757727 0.920545 0.206281 -0.000200
C30   C     C_R   0.848516 0.015766 0.235228 -0.010564
C31   C     C_R   0.848022 0.018637 0.285538 -0.140488
C32   C     C_R   0.759896 0.910884 0.155940 -0.113510
C33   C     C_R   0.682574 0.807266 0.128128 -0.011466
C34   C     C_R   0.627116 0.899903 0.565263 0.538211
C35   C     C_R   0.563781 0.760369 0.351584 -0.128783
C36   C     C_R   0.570266 0.747419 0.301234 0.016978
C37   C     C_R   0.664541 0.835172 0.278943 0.059861
C38   C     C_R   0.481352 0.651784 0.272608 -0.124776
C39   C     C_R   0.486056 0.642926 0.222120 -0.129671
C40   C     C_R   0.578033 0.731101 0.199715 0.015359
C41   C     C_R   0.666372 0.829240 0.228289 0.050070
C42   C     C_R   0.587581 0.719977 0.149525 -0.135831
C43   C     C_R   0.651653 0.858987 0.379298 -0.003011
C44   C     C_R   0.692448 0.207936 0.658075 -0.133882
C45   C     C_R   0.569855 0.168172 0.581475 0.568412
C46   C     C_R   0.708661 0.230798 0.708588 0.002543
C47   C     C_R   0.747065 0.299215 0.809006 0.020876
C48   C     C_R   0.837462 0.296319 0.781836 -0.119841
C49   C     C_R   0.818149 0.261681 0.731951 -0.129033
C50   C     C_R   0.769587 0.347060 0.857591 -0.123130
C51   C     C_R   0.680665 0.357350 0.883201 -0.002598
C52   C     C_R   0.490823 0.176508 0.662305 -0.136875
C53   C     C_R   0.505173 0.197859 0.712816 0.011558
C54   C     C_R   0.615372 0.227815 0.735998 0.055304
C55   C     C_R   0.412849 0.194775 0.740328 -0.128004
C56   C     C_R   0.272232 0.880225 0.563616 0.540145
C57   C     C_R   0.430942 0.225972 0.790332 -0.127664
C58   C     C_R   0.542247 0.262401 0.813207 0.023974
C59   C     C_R   0.634222 0.260887 0.786277 0.068707
C60   C     C_R   0.565507 0.308319 0.861741 -0.118050
C61   C     C_R   0.585398 0.185730 0.634667 -0.012096
C62   C     C_1   0.225863 0.865414 0.610996 -0.017437
C63   C     C_R   0.196105 0.760968 0.725346 -0.096835
C64   C     C_R   0.187800 0.755032 0.775880 0.290391
C65   C     C_R   0.144993 0.915443 0.782210 -0.155359
C66   C     C_R   0.156024 0.922179 0.732240 -0.123053
C67   C     C_1   0.602503 0.215068 0.386122 0.001639
C68   C     C_R   0.181296 0.844821 0.703709 -0.002154
C69   C     C_R   0.159859 0.831719 0.804045 0.058139
C70   C     C_1   0.135516 0.817611 0.854482 -0.001663
C71   C     C_1   0.200305 0.855435 0.652789 -0.057685
C72   C     C_1   0.106262 0.798651 0.895403 0.002703
C73   C     C_1   0.641330 0.870436 0.612381 -0.011872
C74   C     C_R   0.610444 0.899206 0.738080 -0.120353
C75   C     C_R   0.612054 0.887112 0.787818 -0.006069
C76   C     C_R   0.688428 0.752581 0.770632 -0.129311
C77   C     C_R   0.686821 0.765204 0.721167 -0.117843
C78   C     C_R   0.744078 0.291408 0.274826 -0.123853
C79   C     C_R   0.648170 0.838697 0.704827 0.016197
C80   C     C_R   0.651329 0.813106 0.804206 0.012290
C81   C     C_1   0.662040 0.802228 0.855109 -0.053493
C82   C     C_1   0.646672 0.853118 0.654029 -0.056538
C83   C     C_1   0.680217 0.791386 0.896533 -0.005761
C84   C     C_R   0.066967 0.773946 0.078752 0.550883
C85   C     C_R   0.717046 0.440887 0.066952 0.548529
C86   C     C_R   0.720071 0.783216 0.080762 0.548249
C87   C     C_R   0.057175 0.765996 0.941432 0.536858
C88   C     C_R   0.709467 0.431722 0.929385 0.545635
C89   C     C_R   0.762407 0.320253 0.227015 0.004888
C90   C     C_R   0.715573 0.776261 0.943260 0.545678
Cr1   Cr    Cr6+3 0.416430 0.829200 0.492370 1.018083
Cr2   Cr    Cr6+3 0.674630 0.087020 0.504170 1.021767
Cr3   Cr    Cr6+3 0.408920 0.083740 0.503490 1.021667
Cr4   Cr    Cr6+3 0.914010 0.832750 0.013970 1.040226
Cr5   Cr    Cr6+3 0.922310 0.578600 0.003000 1.035438
Cr6   Cr    Cr6+3 0.656280 0.574630 0.003870 1.015768
H1    H     H_    0.810685 0.281795 0.294870 0.118118
H2    H     H_    0.150455 0.082637 0.219911 0.177830
H3    H     H_    0.165156 0.087610 0.307904 0.142561
H4    H     H_    0.205088 0.012883 0.379642 0.132961
H5    H     H_    0.830152 0.979567 0.138632 0.169155
H6    H     H_    0.821485 0.013074 0.378778 0.136757
H7    H     H_    0.918173 0.091459 0.307761 0.109511
H8    H     H_    0.526432 0.640562 0.127832 0.124051
H9    H     H_    0.417895 0.567273 0.200614 0.110314
H10   H     H_    0.408596 0.583804 0.289262 0.118800
H11   H     H_    0.486801 0.698258 0.368595 0.128437
H12   H     H_    0.858084 0.383205 0.874267 0.133212
H13   H     H_    0.764755 0.211615 0.637025 0.139633
H14   H     H_    0.924226 0.324578 0.798819 0.117854
H15   H     H_    0.890229 0.263338 0.711353 0.111451
H16   H     H_    0.495649 0.313575 0.881682 0.129471
H17   H     H_    0.359520 0.226514 0.810728 0.104782
H18   H     H_    0.328081 0.172274 0.722932 0.102524
H19   H     H_    0.406740 0.155055 0.644381 0.129350
H20   H     H_    0.213512 0.699889 0.702931 0.110637
H21   H     H_    0.508567 0.332060 0.204197 0.108877
H22   H     H_    0.122812 0.974251 0.803715 0.114600
H23   H     H_    0.144240 0.987199 0.715832 0.113572
H24   H     H_    0.580366 0.956148 0.725259 0.122372
H25   H     H_    0.719730 0.696120 0.782821 0.123093
H26   H     H_    0.716071 0.718079 0.695765 0.124155
H27   H     H_    0.167602 0.671346 0.123980 0.147751
H28   H     H_    0.215605 0.691246 0.361699 0.135818
H29   H     H_    0.204221 0.597782 0.194265 0.130975
H30   H     H_    0.212008 0.599663 0.282461 0.111783
O1    O     O_R   0.296680 0.802170 0.437540 -0.518004
O2    O     O_R   0.662610 0.183990 0.557860 -0.492959
O3    O     O_R   0.500730 0.201280 0.562180 -0.500285
O4    O     O_R   0.312500 0.978850 0.548170 -0.519026
O5    O     O_3   0.499990 0.999990 0.500010 -0.287454
O6    O     O_R   0.820790 0.857990 0.068830 -0.499814
O7    O     O_R   0.016700 0.827330 0.062850 -0.458912
O8    O     O_R   0.041970 0.673520 0.060040 -0.523925
O9    O     O_R   0.817980 0.483660 0.048840 -0.484710
O10   O     O_R   0.637200 0.461990 0.052510 -0.520679
O11   O     O_R   0.664790 0.681920 0.057970 -0.503052
O12   O     O_R   0.525380 0.838530 0.443500 -0.500255
O13   O     O_R   0.815840 0.852920 0.961840 -0.506698
O14   O     O_R   0.012100 0.822630 0.963670 -0.507794
O15   O     O_R   0.037010 0.668460 0.953040 -0.503406
O16   O     O_R   0.813390 0.478970 0.949660 -0.499911
O17   O     O_R   0.632250 0.456930 0.945520 -0.520697
O18   O     O_R   0.660200 0.677230 0.958780 -0.497434
O19   O     O_3   0.830870 0.661990 0.006950 -0.246656
O20   O     O_R   0.702130 0.995190 0.446810 -0.524842
O21   O     O_R   0.661770 0.181390 0.458760 -0.483958
O22   O     O_R   0.499820 0.198480 0.455280 -0.489623
O23   O     O_R   0.311660 0.976250 0.449080 -0.512559
O24   O     O_R   0.297580 0.804960 0.544440 -0.499873
O25   O     O_R   0.526220 0.841130 0.542590 -0.492112
O26   O     O_R   0.703030 0.997990 0.553710 -0.520268
C91   C     C_1   0.945784 0.109368 0.214466 0.189023
N1    N     N_1   0.023941 0.183866 0.197759 -0.290589
C92   C     C_1   0.874167 0.346493 0.206374 0.205698
N2    N     N_1   0.963947 0.369153 0.189662 -0.284935
O27   O     O_3   0.192640 0.666955 0.797466 -0.571568
C93   C     C_3   0.299530 0.664053 0.788711 0.012719
H31   H     H_    0.349455 0.683703 0.824191 0.163211
H32   H     H_    0.359785 0.728588 0.764810 0.121406
C94   C     C_3   0.270257 0.542635 0.766919 -0.267477
H33   H     H_    0.215606 0.479088 0.792108 0.173041
H34   H     H_    0.218072 0.521053 0.731892 0.163209
C95   C     C_3   0.382236 0.533191 0.758070 -0.477097
H35   H     H_    0.435488 0.592483 0.731303 0.166967
H36   H     H_    0.357756 0.443443 0.743349 0.148273
H37   H     H_    0.436313 0.554997 0.792580 0.157730
C96   C     C_1   0.573716 0.951427 0.821146 0.182234
N3    N     N_1   0.542836 0.002966 0.847789 -0.299183
C97   C     C_1   0.454643 0.289694 0.294937 0.194321
N4    N     N_1   0.373590 0.287669 0.313635 -0.328332
O28   O     O_3   0.115503 0.992214 0.134076 -0.552357
C98   C     C_3   0.205858 0.061842 0.104261 0.031116
H38   H     H_    0.162718 0.080010 0.073970 0.160906
H39   H     H_    0.255137 0.019124 0.087127 0.106654
C99   C     C_3   0.292407 0.176509 0.133144 -0.290558
H40   H     H_    0.242605 0.218225 0.150180 0.194923
H41   H     H_    0.339568 0.159791 0.162369 0.156157
C100  C     C_3   0.382801 0.258389 0.100501 -0.463338
H42   H     H_    0.437227 0.220568 0.084710 0.158180
H43   H     H_    0.442097 0.341935 0.122068 0.157466
H44   H     H_    0.337376 0.275312 0.070667 0.152409

loop_
_geom_bond_atom_site_label_1
_geom_bond_atom_site_label_2
_ccdc_geom_bond_type
C66   C68   A    
C45   O3    A    
O27   C93   S    
Cr4   O14   S    
Cr3   O23   S    
C35   C36   A    
Cr5   O19   S    
C90   O18   A    
C87   O14   A    
C9    H28   S    
C79   C82   S    
C90   O13   A    
Cr6   O10   S    
C98   H38   S    
C52   C53   A    
Cr6   O19   S    
C46   C49   A    
C84   O8    A    
Cr1   O1    S    
C33   C42   A    
C12   O21   A    
C27   C28   A    
C36   C37   A    
C48   H14   S    
C8    C85   S    
C29   C32   A    
C52   C61   A    
C5    C6    S    
C65   C69   A    
C89   C92   S    
Cr1   O5    S    
C97   N4    T    
C45   O2    A    
C58   C60   A    
C15   C16   A    
C11   C24   A    
C16   C84   S    
Cr4   O7    S    
Cr3   O22   S    
C18   C19   A    
C23   C26   S    
C45   C61   S    
C77   H26   S    
C93   C94   S    
C94   H34   S    
C11   C15   A    
C1    C43   S    
C99   C100  S    
C22   C25   A    
C64   O27   S    
Cr2   O26   S    
C65   H22   S    
C75   C96   S    
C35   C43   A    
C75   C80   A    
C88   O17   A    
C18   C20   A    
C86   O11   A    
C49   H15   S    
C100  H44   S    
C13   H29   S    
C44   H13   S    
Cr4   O19   S    
C53   C55   A    
C23   O23   A    
C21   C22   A    
Cr2   O21   S    
C93   H32   S    
Cr4   O13   S    
C95   H35   S    
C1    O20   A    
C4    C7    S    
Cr3   O3    S    
Cr2   O2    S    
C88   O16   A    
C81   C83   T    
C2    H21   S    
C44   C46   A    
C9    C26   A    
C17   C18   A    
C47   C50   A    
C54   C59   A    
C98   H39   S    
C78   C89   A    
C38   C39   A    
C12   C67   S    
C84   O7    A    
C74   C75   A    
Cr2   O20   S    
C96   N3    T    
Cr2   O5    S    
C76   C77   A    
C10   C14   A    
Cr6   O11   S    
C34   O26   A    
C57   H17   S    
C85   O10   A    
C58   C59   A    
C53   C54   A    
C47   C59   A    
Cr5   O8    S    
Cr4   O6    S    
C100  H42   S    
C31   H7    S    
C38   H10   S    
C33   C86   S    
C4    C78   A    
C29   C30   A    
C60   H16   S    
Cr6   O18   S    
Cr1   O12   S    
C47   C48   A    
C10   C19   A    
C46   C54   A    
C78   H1    S    
Cr5   O9    S    
C50   C51   A    
C77   C79   A    
C64   C69   A    
C87   O15   A    
C72   C87   S    
C15   H27   S    
C85   O9    A    
C63   H20   S    
C25   O28   S    
C40   C41   A    
Cr5   O15   S    
C74   C79   A    
C55   C57   A    
C93   H31   S    
C22   C24   A    
C2    C5    A    
C76   H25   S    
C56   O24   A    
Cr3   O4    S    
C73   C82   T    
C39   C40   A    
C94   C95   S    
O28   C98   S    
C23   O1    A    
C9    C10   A    
C52   H19   S    
C16   C25   A    
C39   H9    S    
C83   C90   S    
C63   C68   A    
C99   H40   S    
C29   C41   A    
C50   H12   S    
C28   C31   A    
C76   C80   A    
C80   C81   S    
C42   H8    S    
C51   C88   S    
Cr1   O24   S    
C6    C8    T    
C34   O25   A    
C3    C97   S    
C55   H18   S    
C44   C61   A    
C74   H24   S    
C27   H6    S    
C14   H30   S    
C66   H23   S    
C32   C33   A    
C12   O22   A    
C95   H36   S    
C19   C24   A    
C94   H33   S    
C36   C38   A    
Cr1   O25   S    
C21   H2    S    
C11   C13   A    
C86   O6    A    
C57   C58   A    
C30   C31   A    
C20   H3    S    
Cr3   O5    S    
C28   C37   A    
C68   C71   S    
C48   C49   A    
C40   C42   A    
C98   C99   S    
C17   C26   A    
C62   C71   T    
C2    C3    A    
C56   C62   S    
C95   H37   S    
C37   C41   A    
C69   C70   S    
C17   H4    S    
C56   O4    A    
C30   C91   S    
C35   H11   S    
C34   C73   S    
C7    C67   T    
C63   C64   A    
C27   C43   A    
C20   C21   A    
Cr5   O16   S    
C65   C66   A    
C92   N2    T    
C32   H5    S    
C70   C72   T    
C51   C60   A    
C100  H43   S    
C91   N1    T    
C13   C14   A    
C5    C89   A    
C1    O12   A    
C3    C4    A    
C99   H41   S    
Cr6   O17   S    
