data_mof_unit_16137.cif
_audit_creation_date              2012-12-11T17:05:27-0500
_audit_creation_method            fapswitch 2.2
_symmetry_space_group_name_H-M    P1
_symmetry_Int_Tables_number       1
_space_group_crystal_system       triclinic
_cell_length_a                    6.990664
_cell_length_b                    14.552899
_cell_length_c                    16.006216
_cell_angle_alpha                 90.152044
_cell_angle_beta                  89.74815
_cell_angle_gamma                 89.790105
_cell_volume                      1628.35075418

loop_
_atom_site_label
_atom_site_type_symbol
_atom_type_description
_atom_site_fract_x
_atom_site_fract_y
_atom_site_fract_z
_atom_type_partial_charge
O1    O     O_R   0.494380 0.415640 0.412830 -0.536682
O2    O     O_R   0.823960 0.405540 0.586560 -0.545309
O3    O     O_R   0.994270 0.584360 0.587170 -0.545181
C1    C     C_R   0.655189 0.383683 0.615245 0.696224
O4    O     O_R   0.824090 0.404620 0.413450 -0.543692
O5    O     O_R   0.994400 0.583430 0.412820 -0.538811
C2    C     C_R   0.655663 0.382514 0.384546 0.690221
O6    O     O_R   0.494250 0.416570 0.587180 -0.530893
O7    O     O_3   0.660800 0.558670 0.500000 -0.372403
V1    V     V_3+5 0.935650 0.489120 0.500000 1.375768
O8    O     O_R   0.324110 0.594460 0.413440 -0.539625
C3    C     C_R   0.155150 0.616170 0.384506 0.692584
O9    O     O_R   0.323980 0.595380 0.586550 -0.539666
C4    C     C_R   0.154974 0.615100 0.617045 0.696914
V2    V     V_3+5 0.435660 0.510880 0.500000 1.395654
O10   O     O_3   0.160640 0.441330 0.500000 -0.371538
C5    C     C_3   0.985952 0.660555 0.752759 -0.340035
H1    H     H_    0.845917 0.671926 0.722112 0.155658
H2    H     H_    0.992310 0.587264 0.771977 0.142316
C6    C     C_3   0.999099 0.725036 0.830453 -0.400289
H3    H     H_    0.055958 0.686682 0.884975 0.126124
H4    H     H_    0.852498 0.747350 0.848421 0.150427
H5    H     H_    0.966511 0.776922 0.613210 0.146080
H6    H     H_    0.900432 0.855780 0.732632 0.168622
C7    C     C_3   0.095693 0.780652 0.653514 -0.402914
C8    C     C_3   0.339751 0.688169 0.735887 0.163896
C9    C     C_3   0.145102 0.684209 0.688329 0.074760
H7    H     H_    0.454577 0.698121 0.688462 0.112771
C10   C     C_3   0.129195 0.809596 0.810848 0.093091
C11   C     C_3   0.055194 0.848596 0.726566 -0.336828
C12   C     C_3   0.340140 0.770916 0.799438 -0.060981
H8    H     H_    0.379708 0.741908 0.861413 0.105405
H9    H     H_    0.213469 0.804893 0.612732 0.128244
H10   H     H_    0.100632 0.919207 0.711952 0.114629
C13   C     C_R   0.272803 0.815037 0.239204 0.101876
C14   C     C_R   0.118291 0.815902 0.183686 -0.114216
C15   C     C_R   0.966688 0.755029 0.200294 -0.183288
H11   H     H_    0.844017 0.753278 0.159532 0.134238
C16   C     C_R   0.977857 0.691226 0.266225 -0.178916
H12   H     H_    0.862744 0.642606 0.274391 0.129067
C17   C     C_R   0.141347 0.686052 0.317386 -0.111589
C18   C     C_R   0.284300 0.751654 0.304199 0.100239
C19   C     C_3   0.493796 0.738348 0.291451 -0.411717
C20   C     C_3   0.481402 0.807753 0.220924 -0.398603
H13   H     H_    0.528890 0.667682 0.269615 0.166337
H14   H     H_    0.578380 0.763173 0.345594 0.174537
H15   H     H_    0.510027 0.777532 0.158220 0.168995
H16   H     H_    0.558195 0.872843 0.234442 0.168391
C21   C     C_R   0.490572 0.315441 0.740525 0.110242
C22   C     C_R   0.647592 0.318379 0.685986 -0.115013
C23   C     C_R   0.802072 0.259117 0.702993 -0.185897
H17   H     H_    0.926251 0.258726 0.662677 0.138841
C24   C     C_R   0.791826 0.194826 0.768382 -0.187221
H18   H     H_    0.909224 0.147246 0.776657 0.133160
C25   C     C_R   0.625461 0.186811 0.817893 -0.106175
C26   C     C_R   0.479407 0.251065 0.804621 0.098360
C27   C     C_3   0.271634 0.235851 0.790353 -0.420237
C28   C     C_3   0.283590 0.306618 0.720931 -0.391196
H19   H     H_    0.182871 0.258844 0.844324 0.177617
H20   H     H_    0.242231 0.165196 0.767255 0.164174
H21   H     H_    0.202815 0.370834 0.734959 0.178842
H22   H     H_    0.259873 0.277251 0.657637 0.166476
C29   C     C_R   0.492490 0.315285 0.258233 0.101930
C30   C     C_R   0.647855 0.316725 0.313373 -0.112420
C31   C     C_R   0.799656 0.255406 0.296490 -0.182024
H23   H     H_    0.922931 0.253906 0.336905 0.134933
C32   C     C_R   0.788003 0.190841 0.230780 -0.177977
H24   H     H_    0.903603 0.142065 0.222432 0.129424
C33   C     C_R   0.623775 0.185203 0.180019 -0.112208
C34   C     C_R   0.480529 0.251188 0.193467 0.103230
C35   C     C_3   0.271319 0.238449 0.206798 -0.412915
C36   C     C_3   0.284155 0.308627 0.277003 -0.399213
H25   H     H_    0.236984 0.168097 0.229028 0.166490
H26   H     H_    0.185865 0.262843 0.152763 0.176339
H27   H     H_    0.256430 0.279169 0.339899 0.170318
H28   H     H_    0.206791 0.373725 0.263374 0.167912
O11   O     O_R   0.771490 0.080820 0.910070 -0.541715
O12   O     O_R   0.441590 0.092730 0.083780 -0.538072
O13   O     O_R   0.271350 0.913900 0.084390 -0.535694
C37   C     C_R   0.610250 0.114722 0.112823 0.696552
O14   O     O_R   0.441780 0.091820 0.910670 -0.538246
O15   O     O_R   0.271540 0.912980 0.910040 -0.541381
C38   C     C_R   0.611079 0.114950 0.883037 0.707727
O16   O     O_R   0.771300 0.081740 0.084420 -0.537640
O17   O     O_3   0.604960 0.938700 0.997240 -0.377829
V3    V     V_3+5 0.330090 0.008230 0.997220 1.381775
O18   O     O_R   0.941820 0.901930 0.910640 -0.547963
C39   C     C_R   0.112239 0.880294 0.881265 0.655503
O19   O     O_R   0.941630 0.902840 0.083750 -0.542156
C40   C     C_R   0.110346 0.881015 0.112565 0.694189
V4    V     V_3+5 0.830090 0.986410 0.997190 1.364965
O20   O     O_3   0.105080 0.055990 0.997200 -0.366062
C41   C     C_3   0.507151 0.840452 0.780412 -0.357958
C42   C     C_3   0.462954 0.926298 0.727484 -0.292094
C43   C     C_3   0.639923 0.981503 0.704170 -0.830517
H29   H     H_    0.733632 0.991496 0.759100 0.232113
H30   H     H_    0.719972 0.946611 0.653058 0.222972
H31   H     H_    0.595115 0.049818 0.680333 0.229662
H32   H     H_    0.398070 0.906417 0.667570 0.197875
H33   H     H_    0.366994 0.972992 0.763229 0.197150
H34   H     H_    0.570171 0.864103 0.840253 0.202493
H35   H     H_    0.623000 0.801765 0.749244 0.151560
N1    N     N_2   0.369642 0.600347 0.778688 -0.531070
H36   H     H_    0.292385 0.590413 0.832859 0.258491
C44   C     C_3   0.561495 0.564741 0.784028 -0.606223
H37   H     H_    0.557995 0.494866 0.811567 0.201209
H38   H     H_    0.647146 0.609247 0.825707 0.194500
H39   H     H_    0.625390 0.558789 0.720667 0.210197

loop_
_geom_bond_atom_site_label_1
_geom_bond_atom_site_label_2
_ccdc_geom_bond_type
C28   H22   S    
O18   C39   A    
C41   C42   S    
O18   V4    S    
C17   C18   A    
C43   H29   S    
C1    O6    A    
O17   V4    S    
C43   H31   S    
C16   C17   A    
O17   V3    S    
C44   H38   S    
C8    C9    S    
C15   H11   S    
C14   C15   A    
O5    C3    A    
O12   C37   A    
C27   H19   S    
O11   C38   A    
V2    O10   S    
C5    C6    S    
C26   C27   S    
C13   C18   A    
C10   C39   S    
O8    V2    S    
C13   C14   A    
O13   C40   A    
C34   C35   S    
O1    V2    S    
O16   V4    S    
C4    C9    S    
O19   V4    S    
O7    V1    S    
O14   V3    S    
C20   H15   S    
C37   O16   A    
O12   V3    S    
C28   H21   S    
C8    C12   S    
O9    C4    A    
C42   C43   S    
C36   H27   S    
O14   C38   A    
C5    H1    S    
C6    C10   S    
C24   C25   A    
C44   H39   S    
C11   H10   S    
C32   H24   S    
C5    C9    S    
C41   H34   S    
C16   H12   S    
O4    C2    A    
C27   H20   S    
C31   C32   A    
C12   C41   S    
C21   C28   S    
C23   H17   S    
C1    C22   S    
C23   C24   A    
O2    C1    A    
C19   C20   S    
C10   C11   S    
C8    N1    S    
C12   H8    S    
C29   C34   A    
C42   H33   S    
C25   C26   A    
C22   C23   A    
C36   H28   S    
N1    C44   S    
C6    H3    S    
C13   C20   S    
C19   H13   S    
O3    C4    A    
C6    H4    S    
C31   H23   S    
O6    V2    S    
O9    V2    S    
C18   C19   S    
C25   C38   S    
O2    V1    S    
V4    O20   S    
C3    C17   S    
C35   H25   S    
C14   C40   S    
C7    C11   S    
O11   V4    S    
O1    C2    A    
C41   H35   S    
O5    V1    S    
C35   H26   S    
O8    C3    A    
C43   H30   S    
C24   H18   S    
C7    C9    S    
C21   C26   A    
C44   H37   S    
C8    H7    S    
C30   C31   A    
O7    V2    S    
C35   C36   S    
C10   C12   S    
O3    V1    S    
V3    O20   S    
O15   V3    S    
C27   C28   S    
C42   H32   S    
O15   C39   A    
C5    H2    S    
H5    C7    S    
C33   C34   A    
C19   H14   S    
H6    C11   S    
C2    C30   S    
C29   C30   A    
O4    V1    S    
C29   C36   S    
C15   C16   A    
C21   C22   A    
N1    H36   S    
C33   C37   S    
V1    O10   S    
C32   C33   A    
O19   C40   A    
O13   V3    S    
C20   H16   S    
C7    H9    S    
