data_mof_unit_42801.cif
_audit_creation_date              2013-03-05T15:49:41-0500
_audit_creation_method            fapswitch 2.2
_symmetry_space_group_name_H-M    P1
_symmetry_Int_Tables_number       1
_space_group_crystal_system       triclinic
_cell_length_a                    23.518694
_cell_length_b                    12.951423
_cell_length_c                    11.769569
_cell_angle_alpha                 99.387332
_cell_angle_beta                  92.637352
_cell_angle_gamma                 92.656012
_cell_volume                      3527.98410355

loop_
_atom_site_label
_atom_site_type_symbol
_atom_site_description
_atom_site_fract_x
_atom_site_fract_y
_atom_site_fract_z
_atom_type_partial_charge
O1    O     O_R   0.502990 0.354470 0.582000 -0.553456
O2    O     O_R   0.497010 0.645530 0.418000 -0.590843
O3    O     O_R   0.495870 0.341410 0.386200 -0.562606
O4    O     O_R   0.504130 0.658590 0.613800 -0.555643
C1    C     C_R   0.496751 0.299499 0.479101 0.904792
C2    C     C_R   0.503224 0.700490 0.520988 0.858382
O5    O     O_R   0.421440 0.506500 0.597920 -0.592844
O6    O     O_R   0.578560 0.493500 0.402080 -0.515406
O7    O     O_R   0.414320 0.493440 0.402120 -0.537065
O8    O     O_R   0.585680 0.506560 0.597880 -0.600926
C3    C     C_R   0.390902 0.501752 0.500955 0.859919
C4    C     C_R   0.608841 0.498503 0.498690 0.881170
Cu1   Cu    Cu3+1 0.504210 0.507730 0.615930 1.036309
Cu2   Cu    Cu3+1 0.495790 0.492270 0.384070 1.087520
C5    C     C_R   0.882778 0.598538 0.502527 0.633391
C6    C     C_R   0.119150 0.423663 0.550693 0.642366
N1    N     N_R   0.852128 0.508940 0.512172 -0.450659
N2    N     N_R   0.148824 0.512103 0.533551 -0.455976
C7    C     C_R   0.877675 0.422068 0.536002 0.577541
C8    C     C_R   0.122980 0.602673 0.525492 0.578134
C9    C     C_R   0.937845 0.418830 0.540424 -0.074840
C10   C     C_R   0.063320 0.607553 0.533394 -0.078521
C11   C     C_R   0.970545 0.512717 0.534772 -0.000102
C12   C     C_R   0.030899 0.513837 0.541116 -0.000927
C13   C     C_R   0.942724 0.605411 0.521529 -0.088246
C14   C     C_R   0.058937 0.421187 0.554028 -0.080326
C15   C     C_R   0.966006 0.326230 0.553183 -0.096365
C16   C     C_R   0.035319 0.702368 0.532468 -0.086578
C17   C     C_R   0.026058 0.328494 0.564417 -0.093357
C18   C     C_R   0.975309 0.701396 0.527055 -0.089697
O9    O     O_2   0.854910 0.679413 0.472034 -0.469356
O10   O     O_2   0.148316 0.337857 0.559566 -0.473235
O11   O     O_2   0.844377 0.340321 0.556740 -0.484480
O12   O     O_2   0.155286 0.686288 0.506333 -0.482328
C19   C     C_R   0.231607 0.488815 0.410619 -0.095940
C20   C     C_R   0.759794 0.450566 0.404347 -0.104321
C21   C     C_R   0.291432 0.487419 0.402005 0.275130
C22   C     C_R   0.699393 0.445717 0.402139 0.251748
C23   C     C_R   0.328057 0.506681 0.503698 -0.147546
C24   C     C_R   0.671416 0.498240 0.497176 -0.144369
C25   C     C_R   0.304146 0.531141 0.611134 -0.232579
C26   C     C_R   0.703614 0.553173 0.593061 -0.184636
H1    H     H_    0.330901 0.551416 0.689459 0.215662
H2    H     H_    0.683063 0.593306 0.666864 0.210713
C27   C     C_R   0.245529 0.530965 0.619652 -0.073278
C28   C     C_R   0.762609 0.558176 0.595096 -0.076875
H3    H     H_    0.228101 0.549137 0.703735 0.182349
H4    H     H_    0.786687 0.600498 0.670401 0.179032
C29   C     C_R   0.209152 0.508940 0.520841 0.236963
C30   C     C_R   0.790983 0.507533 0.502106 0.234751
C31   C     C_R   0.508946 0.813984 0.532085 -0.225031
C32   C     C_R   0.490615 0.186038 0.468645 -0.191512
C33   C     C_R   0.449119 0.015787 0.377546 0.288190
C34   C     C_R   0.549406 0.984419 0.625208 0.274437
C35   C     C_R   0.452931 0.125108 0.384565 0.245260
C36   C     C_R   0.545623 0.875078 0.617929 0.251084
C37   C     C_R   0.522462 0.139206 0.546905 -0.157225
C38   C     C_R   0.477113 0.860839 0.453929 -0.165576
C39   C     C_R   0.517699 0.031281 0.544237 -0.046555
C40   C     C_R   0.481396 0.968882 0.457550 -0.038886
H5    H     H_    0.448403 0.811719 0.390793 0.226459
H6    H     H_    0.551553 0.188233 0.609333 0.215111
N3    N     N_R   0.510550 0.519360 0.790130 -0.242353
N4    N     N_R   0.489450 0.480640 0.209870 -0.242852
C41   C     C_R   0.453998 0.384480 0.026585 -0.118803
C42   C     C_R   0.562009 0.587844 0.969776 -0.110897
C43   C     C_R   0.456864 0.400579 0.147546 0.140668
C44   C     C_R   0.553790 0.580407 0.849742 0.078125
C45   C     C_R   0.522719 0.546398 0.154805 0.168389
C46   C     C_R   0.474832 0.458786 0.846588 0.161807
C47   C     C_R   0.524020 0.530397 0.031542 -0.054074
C48   C     C_R   0.484240 0.456119 0.967144 -0.049524
H7    H     H_    0.582997 0.622371 0.802809 0.189353
H8    H     H_    0.433981 0.347043 0.192780 0.208355
C49   C     C_2   0.933885 0.224177 0.550457 0.966337
O13   O     O_2   0.908356 0.180942 0.461229 -0.503258
O14   O     O_R   0.934257 0.176828 0.649032 -0.710713
H9    H     H_    0.911517 0.107089 0.636063 0.362908
C50   C     C_2   0.067952 0.805016 0.547035 0.957353
O15   O     O_2   0.091823 0.841439 0.640414 -0.529060
O16   O     O_R   0.071484 0.859125 0.453918 -0.654721
H10   H     H_    0.094795 0.928034 0.474614 0.376137
C51   C     C_2   0.420344 0.411104 0.789299 0.863455
O17   O     O_2   0.419569 0.338853 0.708408 -0.536571
O18   O     O_R   0.369254 0.443242 0.836214 -0.751154
H11   H     H_    0.334727 0.400825 0.795453 0.355554
C52   C     C_2   0.548723 0.645282 0.221117 0.894162
O19   O     O_2   0.527529 0.727864 0.210495 -0.542484
O20   O     O_R   0.598299 0.645894 0.291208 -0.707428
H12   H     H_    0.611699 0.718979 0.330893 0.342569
C53   C     C_2   0.425686 0.284226 0.967470 0.901466
O21   O     O_2   0.379415 0.254575 0.997350 -0.469164
O22   O     O_R   0.453127 0.221632 0.880733 -0.692394
H13   H     H_    0.429939 0.154658 0.847653 0.369395
C54   C     C_2   0.615217 0.644759 0.022542 0.853144
O23   O     O_2   0.627405 0.733091 0.003975 -0.485182
O24   O     O_R   0.652864 0.595089 0.088462 -0.682888
H14   H     H_    0.688145 0.641153 0.118525 0.367534
C55   C     C_2   0.053377 0.231882 0.586185 0.976218
O25   O     O_2   0.051561 0.154720 0.510524 -0.542486
O26   O     O_R   0.080438 0.229461 0.693892 -0.679188
H15   H     H_    0.097198 0.159469 0.698655 0.366684
C56   C     C_2   0.947600 0.803222 0.538480 0.941653
O27   O     O_2   0.921162 0.832648 0.623835 -0.532292
O28   O     O_R   0.951893 0.864919 0.451958 -0.665519
H16   H     H_    0.931568 0.932529 0.470065 0.364276
C57   C     C_2   0.192685 0.472013 0.304992 0.956768
O29   O     O_2   0.205822 0.509261 0.220207 -0.484092
O30   O     O_R   0.140828 0.414157 0.302349 -0.735832
H17   H     H_    0.118086 0.409089 0.226168 0.359659
C58   C     C_2   0.790590 0.394099 0.307455 0.963726
O31   O     O_2   0.772661 0.307324 0.258473 -0.471718
O32   O     O_R   0.840653 0.439648 0.273077 -0.737144
H18   H     H_    0.857993 0.393230 0.207256 0.360357
N5    N     N_R   0.314326 0.464508 0.290387 0.149445
O33   O     O_R   0.305176 0.371672 0.229013 -0.242726
O34   O     O_R   0.335541 0.540504 0.242694 -0.279451
N6    N     N_R   0.666775 0.386182 0.305245 0.162541
O35   O     O_R   0.671977 0.408711 0.202357 -0.251086
O36   O     O_R   0.632476 0.308115 0.319496 -0.310657
N7    N     N_R   0.580131 0.826511 0.695709 0.152860
O37   O     O_R   0.616326 0.758654 0.655501 -0.376020
O38   O     O_R   0.578434 0.855403 0.806630 -0.236951
N8    N     N_R   0.417015 0.173841 0.309286 0.143245
O39   O     O_R   0.382990 0.244647 0.352409 -0.319075
O40   O     O_R   0.414241 0.140765 0.198585 -0.253931
N9    N     N_R   0.410773 0.953396 0.292164 0.147077
O41   O     O_R   0.430718 0.889184 0.208510 -0.251427
O42   O     O_R   0.356308 0.966895 0.292664 -0.237843
N10   N     N_R   0.586628 0.046882 0.712750 0.146855
O43   O     O_R   0.565652 0.113557 0.792762 -0.268015
O44   O     O_R   0.640812 0.030844 0.718346 -0.237403

loop_
_geom_bond_atom_site_label_1
_geom_bond_atom_site_label_2
_geom_bond_distance
_ccdc_geom_bond_type
C42   C44   1.404008 A    
C52   O19   1.222831 D    
O22   H13   1.013825 S    
C15   C17   1.410956 A    
C54   O23   1.222960 D    
C25   H1    1.080299 S    
C58   O31   1.222929 D    
C49   O13   1.223073 D    
O24   H14   1.013840 S    
C37   H6    1.082791 S    
C23   C25   1.402420 A    
O14   H9    1.013845 S    
O5    C3    1.311336 A    
O26   H15   1.013865 S    
O1    C1    1.299157 A    
C19   C21   1.416027 A    
C12   C14   1.421754 A    
C37   C39   1.392181 A    
C38   C40   1.391799 A    
N5    O33   1.300832 A    
C41   C53   1.481864 S    
C31   C36   1.409511 A    
C26   C28   1.384906 A    
C27   H3    1.083078 S    
O4    Cu1   1.958182 S    
C45   C47   1.433575 A    
C16   C50   1.484859 S    
N6    O35   1.300804 A    
C33   N9    1.435361 S    
N3    C44   1.352939 A    
C56   O28   1.397526 S    
C51   O17   1.220067 D    
C41   C43   1.402807 A    
C18   C56   1.487230 S    
C19   C29   1.412535 A    
C11   C12   1.417267 A    
C1    C32   1.454330 S    
C2    C31   1.453694 S    
N2    C8    1.360687 A    
C45   C52   1.476729 S    
C32   C35   1.409675 A    
C8    O12   1.349075 S    
C38   H5    1.082868 S    
C24   C26   1.400961 A    
C9    C15   1.422233 A    
C39   C40   1.417725 A    
C10   C16   1.421394 A    
Cu1   Cu2   2.700833 S    
C57   O30   1.397883 S    
O2    C2    1.299958 A    
C26   H2    1.083024 S    
C15   C49   1.486636 S    
C33   C40   1.412618 A    
O16   H10   1.013822 S    
C28   H4    1.083152 S    
C34   C39   1.413461 A    
C33   C35   1.403192 A    
C6    C14   1.417509 A    
C34   N10   1.435920 S    
C34   C36   1.403099 A    
C17   C55   1.485957 S    
N4    C43   1.351692 A    
C19   C57   1.489750 S    
O4    C2    1.296336 A    
C7    O11   1.348647 S    
C53   O21   1.223091 D    
C50   O16   1.397363 S    
N5    O34   1.301261 A    
C44   H7    1.081947 S    
O18   H11   1.013992 S    
C4    C24   1.472755 S    
N10   O44   1.301027 A    
O7    Cu2   1.937983 S    
N9    O42   1.300990 A    
C53   O22   1.398212 S    
O7    C3    1.300634 A    
C42   C47   1.433484 A    
Cu1   N3    2.029169 S    
N3    C46   1.386736 A    
C27   C29   1.394056 A    
O6    C4    1.304398 A    
Cu2   N4    2.029169 S    
C20   C58   1.487595 S    
C58   O32   1.398351 S    
C31   C38   1.391309 A    
N4    C45   1.386558 A    
C3    C23   1.483977 S    
C46   C51   1.479691 S    
C49   O14   1.397791 S    
N7    O37   1.300654 A    
O3    Cu2   1.958182 S    
O8    C4    1.301745 A    
C51   O18   1.397984 S    
C8    C10   1.414120 A    
C9    C11   1.420864 A    
C10   C12   1.421070 A    
O1    Cu1   1.958406 S    
C57   O29   1.222929 D    
N9    O41   1.300992 A    
C20   C30   1.414742 A    
N8    O40   1.301094 A    
O32   H18   1.013766 S    
C13   C18   1.420450 A    
C5    N1    1.360914 A    
C35   N8    1.435214 S    
O6    Cu2   1.947473 S    
C55   O26   1.397708 S    
O3    C1    1.297371 A    
O8    Cu1   1.937981 S    
N1    C30   1.436514 S    
C54   O24   1.397170 S    
C5    O9    1.349125 S    
C21   N5    1.434043 S    
C6    O10   1.348461 S    
C41   C48   1.432678 A    
O28   H16   1.013886 S    
C28   C30   1.395328 A    
C55   O25   1.223007 D    
C36   N7    1.434960 S    
C16   C18   1.409247 A    
N10   O43   1.301086 A    
C47   C48   1.410221 A    
C21   C23   1.422861 A    
O30   H17   1.013772 S    
C22   C24   1.416977 A    
C20   C22   1.417876 A    
N1    C7    1.362215 A    
C43   H8    1.079830 S    
C11   C13   1.420606 A    
O2    Cu2   1.958405 S    
N6    O36   1.301264 A    
N7    O38   1.301058 A    
C5    C13   1.413666 A    
C32   C37   1.392180 A    
C50   O15   1.222755 D    
C22   N6    1.435755 S    
O5    Cu1   1.947473 S    
C14   C17   1.422898 A    
C6    N2    1.361634 A    
C56   O27   1.222968 D    
C52   O20   1.395916 S    
C25   C27   1.386746 A    
C42   C54   1.479421 S    
C46   C48   1.432204 A    
O20   H12   1.013917 S    
N2    C29   1.435295 S    
N8    O39   1.300950 A    
C7    C9    1.416498 A    
