data_mof_unit_58531.cif
_audit_creation_date              2013-03-05T16:14:04-0500
_audit_creation_method            fapswitch 2.2
_symmetry_space_group_name_H-M    P1
_symmetry_Int_Tables_number       1
_space_group_crystal_system       triclinic
_cell_length_a                    9.867906
_cell_length_b                    10.784328
_cell_length_c                    16.553031
_cell_angle_alpha                 89.424345
_cell_angle_beta                  96.552034
_cell_angle_gamma                 89.159765
_cell_volume                      1749.73730625

loop_
_atom_site_label
_atom_site_type_symbol
_atom_site_description
_atom_site_fract_x
_atom_site_fract_y
_atom_site_fract_z
_atom_type_partial_charge
O1    O     O_R   0.614620 0.316750 0.500010 -0.548706
O2    O     O_R   0.385380 0.683250 0.499990 -0.548707
O3    O     O_R   0.385290 0.316780 0.500000 -0.630845
O4    O     O_R   0.614710 0.683220 0.500000 -0.630844
C1    C     C_R   0.500925 0.259999 0.497894 0.900950
C2    C     C_R   0.499074 0.740001 0.502106 0.900949
O5    O     O_R   0.627460 0.498830 0.616130 -0.573816
O6    O     O_R   0.372540 0.501170 0.383870 -0.573814
O7    O     O_R   0.398130 0.498850 0.616130 -0.607147
O8    O     O_R   0.601870 0.501150 0.383870 -0.607147
C3    C     C_R   0.520386 0.500171 0.653876 0.908897
C4    C     C_R   0.479614 0.499829 0.346124 0.908894
Zn1   Zn    Zn3+2 0.653130 0.499980 0.500000 1.063630
Zn2   Zn    Zn3+2 0.346870 0.500020 0.500000 1.063630
C5    C     C_R   0.539956 0.511926 0.741494 -0.315258
C6    C     C_R   0.460043 0.488076 0.258506 -0.315253
C7    C     C_R   0.482904 0.612766 0.780426 0.428028
C8    C     C_R   0.517080 0.387229 0.219574 0.428030
C9    C     C_R   0.499208 0.617063 0.864974 0.456115
C10   C     C_R   0.500772 0.382931 0.135025 0.456123
C11   C     C_R   0.571985 0.520281 0.910351 -0.008415
C12   C     C_R   0.428003 0.479718 0.089649 -0.008413
C13   C     C_R   0.641334 0.427689 0.871166 0.269067
C14   C     C_R   0.358670 0.572319 0.128835 0.269073
C15   C     C_R   0.622821 0.423757 0.786471 -0.240221
C16   C     C_R   0.377187 0.576252 0.213530 -0.240216
N1    N     N_2   0.560608 0.506197 0.993716 -0.103671
N2    N     N_2   0.439378 0.493800 0.006284 -0.103673
H1    H     H_    0.670682 0.350132 0.755252 0.254445
H2    H     H_    0.329338 0.649883 0.244750 0.254436
C17   C     C_R   0.380700 0.068088 0.505975 -0.227977
C18   C     C_R   0.619300 0.931912 0.494023 -0.227977
H3    H     H_    0.287830 0.120133 0.512514 0.222437
H4    H     H_    0.712169 0.879867 0.487484 0.222437
C19   C     C_R   0.376370 0.941201 0.511121 0.338865
C20   C     C_R   0.623629 0.058799 0.488876 0.338867
C21   C     C_R   0.497206 0.872556 0.504058 -0.217264
C22   C     C_R   0.502793 0.127444 0.495940 -0.217264
C23   C     C_R   0.057513 0.548089 0.435165 0.381819
C24   C     C_R   0.942487 0.451910 0.564835 0.381820
C25   C     C_R   0.914116 0.547279 0.435548 -0.131518
C26   C     C_R   0.085884 0.452721 0.564452 -0.131515
H5    H     H_    0.848640 0.586401 0.384492 0.199151
H6    H     H_    0.151360 0.413599 0.615508 0.199151
N3    N     N_R   0.857210 0.499970 0.500020 -0.157313
N4    N     N_R   0.142790 0.500030 0.499980 -0.157313
O9    O     O_3   0.587025 0.290165 0.261492 -0.622271
H7    H     H_    0.562985 0.287558 0.317843 0.338076
O10   O     O_3   0.412951 0.709824 0.738507 -0.622269
H8    H     H_    0.437000 0.712439 0.682157 0.338079
O11   O     O_3   0.557810 0.283239 0.098536 -0.609519
H9    H     H_    0.518445 0.279534 0.040846 0.366199
O12   O     O_3   0.442159 0.716750 0.901462 -0.609515
H10   H     H_    0.481526 0.720461 0.959151 0.366201
N5    N     N_R   0.724776 0.334330 0.916665 0.250858
O13   O     O_R   0.753755 0.230324 0.882770 -0.291939
O14   O     O_R   0.782457 0.356790 0.989610 -0.263416
N6    N     N_R   0.275241 0.665686 0.083337 0.250853
O15   O     O_R   0.246307 0.769709 0.117226 -0.291950
O16   O     O_R   0.217531 0.643221 0.010399 -0.263409
N7    N     N_R   0.249447 0.885637 0.524813 0.240014
O17   O     O_R   0.240363 0.824403 0.592010 -0.323564
O18   O     O_R   0.137723 0.920193 0.480340 -0.289219
N8    N     N_R   0.750552 0.114364 0.475183 0.240014
O19   O     O_R   0.759633 0.175600 0.407986 -0.323563
O20   O     O_R   0.862277 0.079806 0.519654 -0.289221
N9    N     N_R   0.111500 0.600891 0.366332 0.218074
O21   O     O_R   0.061381 0.569321 0.293455 -0.347009
O22   O     O_R   0.185575 0.699472 0.375234 -0.327546
N10   N     N_R   0.888500 0.399108 0.633667 0.218072
O23   O     O_R   0.938617 0.430678 0.706545 -0.347008
O24   O     O_R   0.814426 0.300527 0.624765 -0.327548

loop_
_geom_bond_atom_site_label_1
_geom_bond_atom_site_label_2
_geom_bond_distance
_ccdc_geom_bond_type
Zn1   N3    2.013803 S    
O7    Zn2   1.930983 S    
C17   H3    1.084131 S    
C13   N5    1.441463 S    
N10   O23   1.301084 A    
C25   H5    1.081642 S    
C20   N8    1.436368 S    
O9    H7    0.988601 S    
C23   N9    1.428523 S    
C17   C22   1.398231 A    
O6    C4    1.287396 A    
C8    O9    1.381480 S    
C9    O12   1.382155 S    
N5    O13   1.301728 A    
C20   C22   1.411096 A    
C11   N1    1.404123 S    
C2    C21   1.430099 S    
Zn2   N4    2.013803 S    
C12   N2    1.404120 S    
O12   H10   0.990438 S    
N8    O19   1.300427 A    
O5    C3    1.287395 A    
O7    C3    1.294092 A    
C18   H4    1.084132 S    
O2    C2    1.283013 A    
O3    Zn2   2.006694 S    
C24   N10   1.428523 S    
C19   N7    1.436367 S    
C23   N4    1.377615 A    
O1    C1    1.283012 A    
C6    C16   1.396803 A    
O8    C4    1.294092 A    
C12   C14   1.407262 A    
O4    C2    1.291226 A    
C9    C11   1.417202 A    
C14   C16   1.394141 A    
C16   H2    1.083269 S    
C10   O11   1.382155 S    
C8    C10   1.391715 A    
N5    O14   1.301425 A    
C11   C13   1.407268 A    
C15   H1    1.083269 S    
N7    O17   1.300426 A    
O2    Zn2   2.017687 S    
C26   H6    1.081642 S    
C17   C19   1.371783 A    
C5    C15   1.396804 A    
O1    Zn1   2.017689 S    
N6    O16   1.301425 A    
N9    O21   1.301083 A    
O3    C1    1.291225 A    
C14   N6    1.441457 S    
C18   C20   1.371784 A    
O5    Zn1   1.967310 S    
C13   C15   1.394144 A    
C24   N3    1.377614 A    
C23   C25   1.415919 A    
C6    C8    1.412031 A    
O10   H8    0.988603 S    
C26   N4    1.359696 A    
C4    C6    1.448215 S    
C19   C21   1.411097 A    
N1    N2    1.246261 D    
C5    C7    1.412030 A    
C25   N3    1.359698 A    
N10   O24   1.299076 A    
C18   C21   1.398231 A    
O6    Zn2   1.967310 S    
C7    C9    1.391711 A    
N6    O15   1.301721 A    
C1    C22   1.430099 S    
C3    C5    1.448219 S    
N7    O18   1.301344 A    
C7    O10   1.381480 S    
O11   H9    0.990437 S    
O4    Zn1   2.006691 S    
C10   C12   1.417200 A    
C24   C26   1.415919 A    
N9    O22   1.299076 A    
O8    Zn1   1.930983 S    
N8    O20   1.301344 A    
