data_mof_unit_57249.cif
_audit_creation_date              2012-12-10T17:41:47-0500
_audit_creation_method            fapswitch 2.2
_symmetry_space_group_name_H-M    P1
_symmetry_Int_Tables_number       1
_space_group_crystal_system       triclinic
_cell_length_a                    13.861686
_cell_length_b                    13.821582
_cell_length_c                    14.940897
_cell_angle_alpha                 90.308242
_cell_angle_beta                  92.974268
_cell_angle_gamma                 85.891735
_cell_volume                      2851.32740961

loop_
_atom_site_label
_atom_site_type_symbol
_atom_type_description
_atom_site_fract_x
_atom_site_fract_y
_atom_site_fract_z
_atom_type_partial_charge
C1    C     C_R   0.498090 0.496607 0.329244 0.860005
C2    C     C_R   0.501820 0.504381 0.670761 0.839733
C3    C     C_R   0.507357 0.503419 0.953596 -0.115741
C4    C     C_R   0.501572 0.499354 0.047057 -0.129310
C5    C     C_R   0.519905 0.416165 0.904766 -0.004192
C6    C     C_R   0.493357 0.586859 0.096358 -0.009182
C7    C     C_R   0.499851 0.681231 0.960107 0.354798
C8    C     C_R   0.513448 0.320875 0.040844 0.384941
C9    C     C_R   0.488615 0.677031 0.052979 0.379404
C10   C     C_R   0.530479 0.326217 0.948795 0.360232
C11   C     C_R   0.791182 0.534797 0.428455 0.566692
C12   C     C_R   0.212744 0.445935 0.562316 0.540302
C13   C     C_R   0.801249 0.471560 0.575880 0.535742
C14   C     C_R   0.198243 0.551712 0.436379 0.522063
C15   C     C_R   0.904348 0.460672 0.573633 -0.214002
C16   C     C_R   0.095264 0.561612 0.441842 -0.223057
C17   C     C_R   0.949014 0.508775 0.506595 -0.139784
C18   C     C_R   0.051726 0.509097 0.506875 -0.117832
C19   C     C_R   0.890581 0.555020 0.438006 -0.190035
C20   C     C_R   0.110532 0.456331 0.571603 -0.215801
C21   C     C_R   0.963801 0.409228 0.640240 0.410351
C22   C     C_R   0.034588 0.623869 0.384238 0.403292
C23   C     C_R   0.515000 0.317327 0.501525 0.820399
C24   C     C_R   0.484924 0.682660 0.497821 0.818273
C25   C     C_R   0.065167 0.414193 0.643389 0.341508
C26   C     C_R   0.933075 0.615902 0.377866 0.370451
C27   C     C_1   0.477116 0.785381 0.490862 -0.153270
C28   C     C_1   0.522311 0.214838 0.510734 -0.187585
C29   C     C_2   0.468514 0.976293 0.474530 0.412648
C30   C     C_2   0.524759 0.024968 0.532586 0.410299
C31   C     C_1   0.525157 0.128779 0.520836 -0.053463
C32   C     C_1   0.471887 0.871853 0.483438 -0.041936
C33   C     C_R   0.521070 0.419526 0.811875 -0.235830
C34   C     C_R   0.492273 0.583318 0.189154 -0.282804
C35   C     C_R   0.507267 0.507434 0.767306 -0.190948
C36   C     C_R   0.493353 0.495103 0.232812 -0.196356
C37   C     C_R   0.499374 0.595992 0.814210 0.451588
C38   C     C_R   0.496109 0.407003 0.185518 0.463317
C39   C     C_R   0.502019 0.594568 0.908889 -0.101255
C40   C     C_R   0.503336 0.408067 0.091327 -0.104390
Cu1   Cu    Cu3+1 0.597420 0.500010 0.499990 0.989378
Cu2   Cu    Cu3+1 0.402580 0.499990 0.500010 0.985877
H1    H     H_    0.528653 0.353207 0.772871 0.193228
H2    H     H_    0.490303 0.649455 0.228687 0.201841
N1    N     N_R   0.743820 0.499960 0.499930 -0.290550
N2    N     N_R   0.256180 0.500040 0.500070 -0.280212
O1    O     O_R   0.582280 0.500030 0.370250 -0.530039
O2    O     O_R   0.417720 0.499970 0.629750 -0.529852
O3    O     O_R   0.417740 0.500020 0.370270 -0.579884
O4    O     O_R   0.582260 0.499980 0.629730 -0.576089
O5    O     O_R   0.593900 0.362160 0.500010 -0.566334
O6    O     O_R   0.406100 0.637840 0.499990 -0.549088
O7    O     O_R   0.429360 0.362150 0.500030 -0.604897
O8    O     O_R   0.570640 0.637850 0.499970 -0.583197
O9    O     O_3   0.581670 0.973558 0.599195 -0.604826
C41   C     C_3   0.618239 0.034469 0.667072 -0.330483
H3    H     H_    0.558791 0.079296 0.697970 0.177636
H4    H     H_    0.672461 0.080997 0.640669 0.173723
H5    H     H_    0.655533 0.988378 0.720737 0.182266
O10   O     O_3   0.412081 0.027949 0.407679 -0.602835
C42   C     C_3   0.352022 0.968851 0.355486 -0.342834
H6    H     H_    0.300796 0.933713 0.397767 0.168731
H7    H     H_    0.395902 0.913844 0.317357 0.185296
H8    H     H_    0.308253 0.015326 0.305975 0.177255
O11   O     O_3   0.475393 0.681943 0.768174 -0.550042
C43   C     C_3   0.559139 0.716648 0.733442 -0.258869
H9    H     H_    0.625201 0.702574 0.778041 0.118664
H10   H     H_    0.547237 0.796307 0.724456 0.221514
H11   H     H_    0.572044 0.684598 0.667025 0.150390
O12   O     O_3   0.503508 0.320332 0.232441 -0.556398
C44   C     C_3   0.410849 0.297303 0.257225 -0.263158
H12   H     H_    0.407273 0.217436 0.253706 0.210566
H13   H     H_    0.349864 0.330371 0.213477 0.095416
H14   H     H_    0.400087 0.319299 0.327529 0.166455
O13   O     O_3   0.505984 0.770636 0.919630 -0.565669
C45   C     C_3   0.593628 0.811875 0.947946 0.114000
H15   H     H_    0.645282 0.803296 0.893811 0.123279
H16   H     H_    0.631367 0.777793 0.008982 0.140679
C46   C     C_3   0.573108 0.920286 0.965490 -0.310204
H17   H     H_    0.542050 0.956413 0.903099 0.215207
H18   H     H_    0.519443 0.930973 0.017953 0.238621
C47   C     C_3   0.665333 0.967454 0.996624 -0.934782
H19   H     H_    0.698360 0.931562 0.058341 0.270799
H20   H     H_    0.647688 0.045105 0.011954 0.271723
H21   H     H_    0.718411 0.962172 0.943296 0.246066
O14   O     O_3   0.515090 0.231904 0.084499 -0.566039
C48   C     C_3   0.449933 0.166889 0.044984 0.118567
H22   H     H_    0.445146 0.107757 0.094292 0.156519
H23   H     H_    0.479767 0.130405 0.985244 0.190412
C49   C     C_3   0.346237 0.211738 0.023391 -0.420046
H24   H     H_    0.317241 0.247955 0.083624 0.214268
H25   H     H_    0.346203 0.266344 0.969220 0.217649
C50   C     C_3   0.278980 0.134203 0.992159 -0.911807
H26   H     H_    0.305720 0.097611 0.930896 0.264855
H27   H     H_    0.205190 0.168461 0.976316 0.258019
H28   H     H_    0.274682 0.079357 0.045628 0.246918
O15   O     O_3   0.481033 0.761955 0.102631 -0.582799
C51   C     C_3   0.384520 0.801922 0.094186 -0.344939
H29   H     H_    0.378184 0.868495 0.135892 0.175795
H30   H     H_    0.333512 0.751027 0.118999 0.165712
H31   H     H_    0.363267 0.823242 0.023842 0.198394
O16   O     O_3   0.554689 0.242896 0.900856 -0.600249
C52   C     C_3   0.656424 0.226929 0.904912 -0.360201
H32   H     H_    0.685712 0.215934 0.975181 0.181981
H33   H     H_    0.691045 0.287588 0.873430 0.183397
H34   H     H_    0.676086 0.159908 0.866804 0.186747
O17   O     O_3   0.749566 0.534652 0.342488 -0.564005
C53   C     C_3   0.772954 0.441820 0.304448 0.065087
H35   H     H_    0.728113 0.387494 0.333711 0.183361
H36   H     H_    0.850794 0.416621 0.317343 0.088748
C54   C     C_3   0.753890 0.444747 0.202587 -0.352614
H37   H     H_    0.684075 0.486023 0.185235 0.247368
H38   H     H_    0.812144 0.481675 0.171464 0.182836
C55   C     C_3   0.752432 0.342948 0.162672 -0.882453
H39   H     H_    0.823562 0.302042 0.176267 0.243367
H40   H     H_    0.737742 0.348139 0.089021 0.245053
H41   H     H_    0.694884 0.302857 0.191575 0.301212
O18   O     O_3   0.267731 0.376631 0.613350 -0.563483
C56   C     C_3   0.272224 0.285976 0.567284 0.132968
H42   H     H_    0.343568 0.248436 0.586672 0.175793
H43   H     H_    0.267921 0.293611 0.492733 0.114586
C57   C     C_3   0.195943 0.218505 0.594772 -0.381470
H44   H     H_    0.197683 0.212468 0.668944 0.267775
H45   H     H_    0.123104 0.247338 0.569192 0.206508
C58   C     C_3   0.214931 0.117056 0.555462 -0.924871
H46   H     H_    0.213600 0.120424 0.481122 0.267800
H47   H     H_    0.157909 0.070092 0.575205 0.253156
H48   H     H_    0.286462 0.084080 0.581041 0.267271
O19   O     O_3   0.760703 0.457555 0.657010 -0.549859
C59   C     C_3   0.757649 0.545971 0.706846 0.122795
H49   H     H_    0.697192 0.543662 0.752132 0.165128
H50   H     H_    0.741757 0.611321 0.663497 0.109103
C60   C     C_3   0.848692 0.557843 0.767834 -0.363912
H51   H     H_    0.866324 0.491048 0.808096 0.266216
H52   H     H_    0.910650 0.571959 0.726895 0.202981
C61   C     C_3   0.833523 0.643051 0.832376 -0.982274
H53   H     H_    0.815456 0.711472 0.794518 0.258922
H54   H     H_    0.900974 0.650788 0.874447 0.268798
H55   H     H_    0.774134 0.630561 0.877213 0.250316
O20   O     O_3   0.239422 0.587091 0.361925 -0.535944
C62   C     C_3   0.220245 0.524468 0.288173 0.153448
H56   H     H_    0.142610 0.508896 0.279257 0.104951
H57   H     H_    0.261140 0.453166 0.299678 0.078689
C63   C     C_3   0.252364 0.567934 0.201178 -0.308594
H58   H     H_    0.308088 0.619686 0.217466 0.239686
H59   H     H_    0.284815 0.508867 0.159038 0.165830
C64   C     C_3   0.169182 0.621030 0.146030 -0.855214
H60   H     H_    0.109416 0.572838 0.131972 0.233366
H61   H     H_    0.195698 0.643683 0.081044 0.229322
H62   H     H_    0.141581 0.687086 0.181546 0.301903
O21   O     O_3   0.923696 0.356599 0.705521 -0.550556
C65   C     C_3   0.910858 0.262590 0.672105 -0.249032
H63   H     H_    0.875659 0.221382 0.723291 0.174580
H64   H     H_    0.981670 0.223070 0.659707 0.151776
H65   H     H_    0.862631 0.264355 0.610076 0.148957
O22   O     O_3   0.073562 0.693141 0.333557 -0.569251
C66   C     C_3   0.085414 0.776061 0.387254 -0.276796
H66   H     H_    0.137383 0.759914 0.445451 0.170523
H67   H     H_    0.014718 0.807125 0.410577 0.167332
H68   H     H_    0.115730 0.832067 0.346198 0.165406
O23   O     O_3   0.119032 0.373689 0.716116 -0.582860
C67   C     C_3   0.142592 0.448286 0.776702 0.124312
H69   H     H_    0.075945 0.479312 0.807962 0.130920
H70   H     H_    0.177348 0.507404 0.742683 0.144673
C68   C     C_3   0.213939 0.405708 0.850153 -0.311753
H71   H     H_    0.179992 0.347792 0.886109 0.218710
H72   H     H_    0.279853 0.372855 0.819208 0.245781
C69   C     C_3   0.243548 0.483154 0.917373 -0.941724
H73   H     H_    0.280926 0.540033 0.883392 0.273386
H74   H     H_    0.293869 0.449539 0.970515 0.252752
H75   H     H_    0.178834 0.517030 0.949301 0.255888
O24   O     O_3   0.873739 0.682129 0.326955 -0.579635
C70   C     C_3   0.883322 0.666377 0.234018 0.146988
H76   H     H_    0.814516 0.639440 0.206370 0.169227
H77   H     H_    0.943616 0.612435 0.217162 0.107957
C71   C     C_3   0.895992 0.762794 0.187758 -0.318017
H78   H     H_    0.835691 0.816240 0.204263 0.226656
H79   H     H_    0.965180 0.791850 0.212213 0.243224
C72   C     C_3   0.896152 0.750651 0.086105 -0.970735
H80   H     H_    0.956710 0.698555 0.067696 0.262718
H81   H     H_    0.905445 0.821705 0.054543 0.264060
H82   H     H_    0.826479 0.723950 0.059666 0.254100

loop_
_geom_bond_atom_site_label_1
_geom_bond_atom_site_label_2
_ccdc_geom_bond_type
C2    C35   S    
C24   O6    A    
C43   H10   S    
C48   H22   S    
C38   O12   S    
C68   H71   S    
Cu1   Cu2   S    
C64   H60   S    
C45   C46   S    
O9    C41   S    
C6    C9    A    
O15   C51   S    
C14   N2    A    
C22   O22   S    
C70   H76   S    
C41   H3    S    
C11   C19   A    
C66   H66   S    
O22   C66   S    
C64   H61   S    
C45   H16   S    
O19   C59   S    
C29   C32   S    
C62   H57   S    
Cu2   O7    S    
C30   C31   S    
C69   H74   S    
C56   C57   S    
C43   H11   S    
C20   C25   A    
C24   O8    A    
C53   H35   S    
C18   C20   A    
C15   C17   A    
Cu2   N2    S    
C42   H7    S    
C19   C26   A    
O18   C56   S    
C2    O4    A    
C44   H14   S    
C17   C19   A    
C29   O10   S    
C49   H25   S    
C52   H33   S    
C69   H75   S    
C4    C40   A    
C25   O23   S    
C5    C33   A    
C58   H48   S    
C9    O15   S    
O21   C65   S    
C24   C27   S    
O12   C44   S    
C52   H34   S    
C34   C36   A    
C42   H6    S    
C72   H82   S    
C71   H79   S    
C43   H9    S    
C26   O24   S    
C50   H27   S    
C38   C40   A    
C68   H72   S    
C63   C64   S    
Cu1   N1    S    
C23   O7    A    
C67   H70   S    
C70   H77   S    
C33   H1    S    
C10   O16   S    
C64   H62   S    
C34   H2    S    
C45   H15   S    
C63   H59   S    
C62   C63   S    
C46   H18   S    
O14   C48   S    
C1    O1    A    
C7    O13   S    
C2    O2    A    
C6    C34   A    
C37   O11   S    
O10   C42   S    
C61   H55   S    
C66   H67   S    
C42   H8    S    
C59   H50   S    
O13   C45   S    
C29   C30   D    
C60   C61   S    
C67   C68   S    
C23   O5    A    
C65   H65   S    
O17   C53   S    
C12   C20   A    
C17   C18   A    
Cu1   O1    S    
C54   H38   S    
C50   H26   S    
Cu2   O2    S    
C23   C28   S    
O20   C62   S    
C58   H47   S    
C56   H43   S    
C12   O18   S    
C12   N2    A    
C71   H78   S    
C65   H64   S    
C47   H19   S    
C50   H28   S    
C51   H30   S    
C13   C15   A    
C11   O17   S    
C60   H51   S    
C14   C16   A    
C11   N1    A    
C4    C6    A    
O11   C43   S    
C57   H45   S    
C3    C4    A    
C47   H21   S    
Cu1   O4    S    
O24   C70   S    
C49   C50   S    
C44   H13   S    
C67   H69   S    
C70   C71   S    
C7    C9    A    
C21   C25   A    
C69   H73   S    
C16   C22   A    
C54   H37   S    
C35   C37   A    
C27   C32   T    
C28   C31   T    
C14   O20   S    
C63   H58   S    
C3    C5    A    
C46   C47   S    
C55   H40   S    
C56   H42   S    
C53   C54   S    
C55   H39   S    
C68   C69   S    
C72   H80   S    
C66   H68   S    
C51   H31   S    
C30   O9    S    
C47   H20   S    
C41   H5    S    
C16   C18   A    
C71   C72   S    
C57   C58   S    
C48   H23   S    
C59   H49   S    
C5    C10   A    
C37   C39   A    
O23   C67   S    
C62   H56   S    
C13   N1    A    
C49   H24   S    
C58   H46   S    
C53   H36   S    
C36   C38   A    
C33   C35   A    
C41   H4    S    
C54   C55   S    
C8    O14   S    
C21   O21   S    
O16   C52   S    
Cu1   O8    S    
C55   H41   S    
Cu2   O3    S    
C3    C39   A    
C46   H17   S    
C59   C60   S    
C15   C21   A    
C44   H12   S    
C65   H63   S    
C8    C10   A    
C51   H29   S    
C22   C26   A    
C48   C49   S    
C61   H54   S    
C52   H32   S    
C60   H52   S    
C7    C39   A    
C61   H53   S    
C8    C40   A    
C57   H44   S    
C1    O3    A    
Cu1   O5    S    
C13   O19   S    
C1    C36   S    
Cu2   O6    S    
C72   H81   S    
