data_mof_unit_8801.cif
_audit_creation_date              2012-12-10T18:18:24-0500
_audit_creation_method            fapswitch 2.2
_symmetry_space_group_name_H-M    P1
_symmetry_Int_Tables_number       1
_space_group_crystal_system       triclinic
_cell_length_a                    14.029121
_cell_length_b                    14.956909
_cell_length_c                    15.402922
_cell_angle_alpha                 90.800279
_cell_angle_beta                  67.138788
_cell_angle_gamma                 90.802436
_cell_volume                      2977.73032561

loop_
_atom_site_label
_atom_site_type_symbol
_atom_type_description
_atom_site_fract_x
_atom_site_fract_y
_atom_site_fract_z
_atom_type_partial_charge
C1    C     C_R   0.500119 0.673186 0.501325 0.980956
C2    C     C_R   0.501399 0.768746 0.502181 -0.130379
C3    C     C_R   0.469529 0.185233 0.432945 0.377405
C4    C     C_R   0.543677 0.815575 0.558121 0.378332
C5    C     C_R   0.467335 0.091507 0.434997 -0.002941
C6    C     C_R   0.540591 0.909251 0.559753 -0.005724
C7    C     C_R   0.502680 0.047106 0.497666 0.018321
C8    C     C_R   0.502954 0.953659 0.498830 0.020517
C9    C     C_R   0.535984 0.096239 0.560336 0.085717
C10   C     C_R   0.464145 0.904530 0.440097 0.079492
C11   C     C_R   0.427982 0.041727 0.378216 -0.268067
C12   C     C_R   0.499793 0.326992 0.498956 0.929848
C13   C     C_R   0.570613 0.958892 0.623034 -0.270198
C14   C     C_R   0.426589 0.948910 0.379825 0.007145
C15   C     C_R   0.569309 0.051803 0.623674 0.012937
C16   C     C_R   0.434987 0.500716 0.676768 0.925546
C17   C     C_R   0.565024 0.501176 0.323196 0.930660
C18   C     C_R   0.195103 0.421519 0.512528 -0.081271
C19   C     C_R   0.805829 0.578102 0.485316 -0.043809
C20   C     C_R   0.208843 0.578024 0.485605 -0.040264
C21   C     C_R   0.790596 0.422181 0.515713 -0.083557
C22   C     C_R   0.108577 0.579849 0.485151 0.005684
C23   C     C_R   0.380355 0.524327 0.110027 -0.268198
C24   C     C_R   0.891159 0.420220 0.515518 0.010371
C25   C     C_R   0.050774 0.499863 0.499450 0.099757
C26   C     C_R   0.949290 0.500088 0.500439 0.099197
C27   C     C_R   0.094325 0.419691 0.512964 0.006721
C28   C     C_R   0.906311 0.580036 0.485558 0.009292
C29   C     C_R   0.064834 0.659547 0.471116 -0.205985
C30   C     C_R   0.935188 0.340430 0.528960 -0.225461
C31   C     C_R   0.964784 0.659589 0.470869 -0.205274
C32   C     C_R   0.035859 0.340147 0.527695 -0.212605
C33   C     C_R   0.392776 0.507342 0.779762 -0.230152
C34   C     C_R   0.617923 0.529260 0.890922 -0.267150
C35   C     C_R   0.606952 0.509437 0.220373 -0.226616
C36   C     C_R   0.261763 0.482294 0.935824 -0.202388
C37   C     C_R   0.738955 0.491805 0.063254 -0.206106
C38   C     C_R   0.294904 0.471996 0.838333 0.367972
C39   C     C_R   0.706618 0.479789 0.160242 0.360513
C40   C     C_R   0.454241 0.550709 0.820736 0.340610
C41   C     C_R   0.543666 0.549901 0.181207 0.335377
C42   C     C_R   0.433048 0.536761 0.916473 -0.057401
C43   C     C_R   0.564892 0.536643 0.085039 -0.048894
C44   C     C_R   0.330871 0.512421 0.976456 -0.017174
C45   C     C_R   0.303337 0.511624 0.074654 0.016082
C46   C     C_R   0.667577 0.516169 0.024044 -0.016206
C47   C     C_R   0.512562 0.538486 0.951643 0.064264
C48   C     C_R   0.485435 0.537022 0.049829 0.065969
C49   C     C_R   0.195350 0.495811 0.142046 0.109675
C50   C     C_R   0.171433 0.423821 0.204864 -0.146384
C51   C     C_R   0.069117 0.407701 0.266269 -0.141516
C52   C     C_R   0.990266 0.463576 0.265897 -0.060694
C53   C     C_R   0.013709 0.536562 0.205318 -0.088225
C54   C     C_R   0.115877 0.552875 0.143684 -0.184870
C55   C     C_R   0.802274 0.503615 0.858455 0.109457
C56   C     C_R   0.694591 0.516614 0.926016 0.013227
C57   C     C_R   0.845147 0.417749 0.840176 -0.179126
C58   C     C_R   0.949414 0.406890 0.781829 -0.106820
C59   C     C_R   0.010949 0.481527 0.741427 -0.048264
C60   C     C_R   0.967730 0.566786 0.756710 -0.137127
C61   C     C_R   0.863556 0.577945 0.815112 -0.144805
C62   C     C_R   0.386154 0.900182 0.316904 0.116153
C63   C     C_R   0.280497 0.878719 0.347924 -0.166561
C64   C     C_R   0.242930 0.831438 0.288618 -0.134351
C65   C     C_R   0.310543 0.805414 0.198353 -0.097618
C66   C     C_R   0.415772 0.827084 0.167014 -0.156324
C67   C     C_R   0.531337 0.188752 0.560504 -0.369431
C68   C     C_R   0.453681 0.874159 0.226149 -0.141120
C69   C     C_R   0.600868 0.100083 0.693187 0.120386
C70   C     C_R   0.539968 0.093233 0.789889 -0.155291
C71   C     C_R   0.568483 0.139511 0.855726 -0.133182
C72   C     C_R   0.658099 0.192500 0.825552 -0.099241
C73   C     C_R   0.719657 0.199006 0.729492 -0.144502
C74   C     C_R   0.691518 0.152717 0.663341 -0.176381
C75   C     C_R   0.462105 0.811960 0.444297 -0.356169
C76   C     C_R   0.498917 0.231745 0.497830 -0.107635
H1    H     H_    0.229128 0.360457 0.523464 0.160938
H2    H     H_    0.817416 0.473665 0.018896 0.191903
H3    H     H_    0.357484 0.516597 0.185096 0.205445
H4    H     H_    0.641274 0.522972 0.815479 0.205395
H5    H     H_    0.551953 0.228867 0.609801 0.178468
H6    H     H_    0.431897 0.772225 0.401127 0.200460
H7    H     H_    0.395846 0.074089 0.333384 0.167023
H8    H     H_    0.593810 0.926257 0.673916 0.167127
H9    H     H_    0.231647 0.379430 0.205146 0.139086
H10   H     H_    0.050874 0.351547 0.313721 0.147744
H11   H     H_    0.910987 0.450429 0.312600 0.149108
H12   H     H_    0.772274 0.638958 0.473232 0.150644
H13   H     H_    0.952599 0.580164 0.205733 0.149242
H14   H     H_    0.133064 0.609434 0.096704 0.135089
H15   H     H_    0.798531 0.359836 0.872863 0.128138
H16   H     H_    0.982872 0.340821 0.768961 0.136349
H17   H     H_    0.092208 0.473398 0.698521 0.154502
H18   H     H_    0.015324 0.624305 0.724357 0.137569
H19   H     H_    0.831216 0.644494 0.828196 0.134233
H20   H     H_    0.449036 0.647944 0.196206 0.338344
H21   H     H_    0.545978 0.652388 0.809472 0.337824
H22   H     H_    0.733855 0.403772 0.248417 0.340178
H23   H     H_    0.253978 0.639121 0.474308 0.154611
H24   H     H_    0.272423 0.395367 0.745482 0.332094
H25   H     H_    0.473556 0.201847 0.307047 0.321601
H26   H     H_    0.647847 0.798079 0.609380 0.320468
H27   H     H_    0.227631 0.898240 0.417894 0.129496
H28   H     H_    0.161430 0.814943 0.312564 0.127184
H29   H     H_    0.281450 0.768407 0.152746 0.129324
H30   H     H_    0.468082 0.806706 0.097204 0.131694
H31   H     H_    0.535458 0.890003 0.201548 0.131416
H32   H     H_    0.470043 0.052754 0.814098 0.135939
H33   H     H_    0.520985 0.134421 0.930152 0.132604
H34   H     H_    0.745051 0.361257 0.527942 0.147499
H35   H     H_    0.679890 0.228339 0.876650 0.121149
H36   H     H_    0.789111 0.239922 0.706508 0.134447
H37   H     H_    0.739664 0.158274 0.589051 0.126059
H38   H     H_    0.107930 0.721847 0.460540 0.138939
H39   H     H_    0.892153 0.278114 0.539611 0.135784
H40   H     H_    0.933073 0.721867 0.459452 0.136366
H41   H     H_    0.067893 0.277757 0.538375 0.146896
H42   H     H_    0.185377 0.457534 0.979206 0.192216
N1    N     N_R   0.249980 0.499930 0.499960 -0.102686
N2    N     N_R   0.750020 0.500070 0.500040 -0.098851
O1    O     O_R   0.419720 0.632140 0.499980 -0.639275
O2    O     O_3   0.531054 0.609254 0.766772 -0.719487
O3    O     O_3   0.774404 0.439387 0.192230 -0.764468
O4    O     O_3   0.229884 0.426981 0.804385 -0.763214
O5    O     O_3   0.444898 0.233352 0.368637 -0.779111
O6    O     O_3   0.583207 0.768003 0.612673 -0.734342
O7    O     O_R   0.580280 0.367860 0.500020 -0.657655
O8    O     O_R   0.580270 0.632160 0.499970 -0.581975
O9    O     O_R   0.419730 0.367840 0.500030 -0.596732
O10   O     O_R   0.373870 0.499980 0.632250 -0.630403
O11   O     O_R   0.626130 0.500020 0.367750 -0.634174
O12   O     O_R   0.534420 0.500000 0.632240 -0.543708
O13   O     O_R   0.465580 0.500000 0.367760 -0.535053
O14   O     O_3   0.465562 0.605821 0.237325 -0.768674
Zn1   Zn    Zn3+2 0.392800 0.499980 0.500010 0.984459
Zn2   Zn    Zn3+2 0.607200 0.500020 0.499990 0.978630

loop_
_geom_bond_atom_site_label_1
_geom_bond_atom_site_label_2
_ccdc_geom_bond_type
C66   C68   A    
C29   H38   S    
C34   C56   A    
C23   C45   A    
C22   C29   A    
C17   O11   A    
C73   C74   A    
C2    C4    A    
O10   Zn1   S    
C1    O8    A    
C32   H41   S    
C55   C56   S    
C21   H34   S    
C7    C8    A    
C12   O7    A    
C53   C54   A    
C44   C45   A    
C13   H8    S    
C62   C63   A    
C17   C35   S    
C67   H5    S    
C24   C26   A    
C54   H14   S    
C21   N2    A    
O8    Zn2   S    
C8    C10   A    
C11   C14   A    
C49   C54   A    
C14   C62   S    
C55   C61   A    
C39   O3    S    
C64   H28   S    
C1    C2    S    
C49   C50   A    
C50   H9    S    
C34   H4    S    
O9    Zn1   S    
C22   C25   A    
H25   O5    S    
C70   C71   A    
C68   H31   S    
C30   C32   A    
C16   O10   A    
C43   C48   A    
C40   C42   A    
C72   H35   S    
C59   C60   A    
C41   C43   A    
C42   C44   A    
C66   H30   S    
C35   C41   A    
C51   H10   S    
C65   H29   S    
C41   O14   S    
C1    O1    A    
C30   H39   S    
C28   C31   A    
H22   O3    S    
C15   C69   S    
C33   C40   A    
C12   O9    A    
C51   C52   A    
O7    Zn2   S    
C4    C6    A    
C19   H12   S    
C10   C14   A    
C5    C7    A    
H20   O14   S    
C11   H7    S    
C25   C26   A    
C74   H37   S    
N1    Zn1   S    
C60   C61   A    
N2    Zn2   S    
C35   C39   A    
C9    C67   A    
H26   O6    S    
H21   O2    S    
C19   C28   A    
C16   C33   S    
C10   C75   A    
C47   C48   A    
C45   C49   S    
O12   Zn2   S    
C3    O5    S    
C50   C51   A    
C69   C74   A    
O1    Zn1   S    
C3    C76   A    
C63   H27   S    
C20   C22   A    
C19   N2    A    
O11   Zn2   S    
C13   C15   A    
C12   C76   S    
C17   O13   A    
C36   C44   A    
C31   H40   S    
C36   H42   S    
C52   C53   A    
C73   H36   S    
C7    C9    A    
C23   C48   A    
C57   H15   S    
C27   C32   A    
C52   H11   S    
C18   C27   A    
C72   C73   A    
C3    C5    A    
C6    C8    A    
C61   H19   S    
C75   H6    S    
C5    C11   A    
C34   C47   A    
C62   C68   A    
C25   C27   A    
C40   O2    S    
C37   H2    S    
C26   C28   A    
C33   C38   A    
C4    O6    S    
C23   H3    S    
C64   C65   A    
C55   C57   A    
C58   C59   A    
C71   C72   A    
C29   C31   A    
C70   H32   S    
C6    C13   A    
C53   H13   S    
C57   C58   A    
C20   H23   S    
C18   H1    S    
C71   H33   S    
C36   C38   A    
C42   C47   A    
C9    C15   A    
C69   C70   A    
C16   O12   A    
C43   C46   A    
C24   C30   A    
C63   C64   A    
C37   C39   A    
C65   C66   A    
C21   C24   A    
C46   C56   A    
O13   Zn1   S    
C67   C76   A    
C59   H17   S    
H24   O4    S    
C37   C46   A    
C58   H16   S    
C18   N1    A    
C20   N1    A    
C38   O4    S    
C2    C75   A    
C60   H18   S    
