data_mof_unit_38608.cif
_audit_creation_date              2013-03-05T16:10:59-0500
_audit_creation_method            fapswitch 2.2
_symmetry_space_group_name_H-M    P1
_symmetry_Int_Tables_number       1
_space_group_crystal_system       triclinic
_cell_length_a                    22.911304
_cell_length_b                    7.202894
_cell_length_c                    20.851117
_cell_angle_alpha                 90.000146
_cell_angle_beta                  93.656863
_cell_angle_gamma                 90.001157
_cell_volume                      3434.00558467

loop_
_atom_site_label
_atom_site_type_symbol
_atom_site_description
_atom_site_fract_x
_atom_site_fract_y
_atom_site_fract_z
_atom_type_partial_charge
O1    O     O_R   0.307200 0.614510 0.194080 -0.582113
O2    O     O_R   0.692800 0.385490 0.805920 -0.587504
O3    O     O_R   0.192800 0.114510 0.305920 -0.582053
O4    O     O_R   0.807200 0.885490 0.694080 -0.587479
O5    O     O_R   0.188140 0.283260 0.181690 -0.557655
O6    O     O_R   0.811860 0.716740 0.818310 -0.574012
O7    O     O_R   0.311860 0.783260 0.318310 -0.557520
O8    O     O_R   0.688140 0.216740 0.681690 -0.573773
C1    C     C_R   0.168533 0.452924 0.165946 1.051850
C2    C     C_R   0.831763 0.546765 0.833538 1.080808
C3    C     C_R   0.331475 0.952926 0.334047 1.051787
C4    C     C_R   0.668231 0.046761 0.666467 1.080636
O9    O     O_R   0.306460 0.284700 0.186400 -0.554619
O10   O     O_R   0.693540 0.715300 0.813600 -0.549776
O11   O     O_R   0.193540 0.784700 0.313600 -0.554684
O12   O     O_R   0.806460 0.215300 0.686400 -0.549670
O13   O     O_R   0.311970 0.115840 0.310660 -0.577810
O14   O     O_R   0.688030 0.884160 0.689340 -0.574272
O15   O     O_R   0.188030 0.615840 0.189340 -0.577994
O16   O     O_R   0.811970 0.384160 0.810660 -0.574309
C5    C     C_R   0.325237 0.453349 0.171654 0.986100
C6    C     C_R   0.674668 0.546646 0.828231 1.018309
C7    C     C_R   0.174763 0.953347 0.328347 0.985836
C8    C     C_R   0.825332 0.046648 0.671769 1.017979
O17   O     O_3   0.251670 0.448440 0.290760 -0.267727
O18   O     O_3   0.748330 0.551560 0.709240 -0.281450
O19   O     O_3   0.248330 0.948440 0.209240 -0.267932
O20   O     O_3   0.751670 0.051560 0.790760 -0.281610
V1    V     V_3+5 0.249690 0.173030 0.242440 1.341499
V2    V     V_3+5 0.750310 0.826970 0.757560 1.320233
V3    V     V_3+5 0.250310 0.673030 0.257560 1.341529
V4    V     V_3+5 0.749690 0.326970 0.742440 1.320381
C9    C     C_R   0.966797 0.161147 0.504923 -0.216335
C10   C     C_R   0.032831 0.838335 0.494686 -0.207481
C11   C     C_R   0.533211 0.661143 0.995084 -0.216408
C12   C     C_R   0.467177 0.338330 0.005326 -0.207447
H1    H     H_    0.941553 0.287147 0.509560 0.213663
H2    H     H_    0.058074 0.712335 0.490053 0.215615
H3    H     H_    0.558455 0.787146 0.990444 0.213647
H4    H     H_    0.441934 0.212327 0.009961 0.215629
C13   C     C_R   0.954222 0.006919 0.542800 -0.087038
C14   C     C_R   0.045451 0.992628 0.456854 -0.087115
C15   C     C_R   0.545787 0.506912 0.957209 -0.087066
C16   C     C_R   0.454556 0.492628 0.043154 -0.087122
C17   C     C_R   0.987485 0.842308 0.537444 0.360066
C18   C     C_R   0.012138 0.157173 0.462161 0.361425
C19   C     C_R   0.512525 0.342299 0.962569 0.360053
C20   C     C_R   0.487869 0.657174 0.037845 0.361442
C21   C     C_1   0.908452 0.023941 0.588105 0.203837
C22   C     C_1   0.091376 0.975803 0.411716 0.210796
C23   C     C_1   0.591553 0.523934 0.911901 0.203788
C24   C     C_1   0.408629 0.475807 0.088290 0.210800
C25   C     C_1   0.129526 0.963511 0.373944 -0.116494
C26   C     C_1   0.870447 0.036377 0.626036 -0.114632
C27   C     C_1   0.370476 0.463516 0.126060 -0.116482
C28   C     C_1   0.629556 0.536370 0.873967 -0.114458
C29   C     C_R   0.435090 0.041931 0.366765 0.348979
C30   C     C_R   0.563859 0.972065 0.634702 0.330387
C31   C     C_R   0.064875 0.541450 0.133278 0.348827
C32   C     C_R   0.936182 0.472579 0.865259 0.330214
C33   C     C_R   0.382096 0.958950 0.382333 -0.460033
C34   C     C_R   0.618903 0.033913 0.617024 -0.470601
C35   C     C_R   0.117921 0.458950 0.117653 -0.459982
C36   C     C_R   0.881099 0.533945 0.882975 -0.470631
C37   C     C_R   0.377307 0.878070 0.443267 0.333215
C38   C     C_R   0.627043 0.081097 0.552691 0.330130
C39   C     C_R   0.122773 0.378570 0.056651 0.333034
C40   C     C_R   0.872927 0.580687 0.947340 0.330166
C41   C     C_R   0.425007 0.886823 0.490509 -0.184616
C42   C     C_R   0.581087 0.052548 0.504520 -0.163102
C43   C     C_R   0.075078 0.387372 0.009405 -0.184684
C44   C     C_R   0.918906 0.552217 0.995490 -0.162746
C45   C     C_R   0.478700 0.967821 0.474391 -0.038651
C46   C     C_R   0.526097 0.984652 0.521896 -0.043567
C47   C     C_R   0.021340 0.467952 0.025569 -0.038752
C48   C     C_R   0.973940 0.484803 0.978069 -0.043716
C49   C     C_R   0.485119 0.033039 0.410858 -0.164328
C50   C     C_R   0.518339 0.934771 0.586707 -0.157954
C51   C     C_R   0.014867 0.532610 0.089157 -0.164292
C52   C     C_R   0.981728 0.435332 0.913229 -0.157901
C53   C     C_R   0.420938 0.813768 0.553207 0.396959
C54   C     C_R   0.589842 0.078870 0.438642 0.449255
C55   C     C_R   0.079182 0.314663 0.946667 0.397012
C56   C     C_R   0.910132 0.578052 0.061383 0.449190
C57   C     C_R   0.465817 0.844322 0.601391 0.183140
C58   C     C_R   0.541936 0.080935 0.392798 0.185214
C59   C     C_R   0.034295 0.345245 0.898496 0.183065
C60   C     C_R   0.958018 0.579923 0.107250 0.185420
N1    N     N_R   0.023314 0.320777 0.424986 0.251532
O21   O     O_R   0.075648 0.358002 0.407786 -0.365529
O22   O     O_R   0.982066 0.442480 0.412954 -0.348470
N2    N     N_R   0.976273 0.678682 0.574596 0.252582
O23   O     O_R   0.923942 0.641654 0.591851 -0.373957
O24   O     O_R   0.017474 0.556780 0.586554 -0.337837
N3    N     N_R   0.476694 0.820782 0.075019 0.251487
O25   O     O_R   0.424361 0.858003 0.092222 -0.365617
O26   O     O_R   0.517942 0.942492 0.087046 -0.348644
N4    N     N_R   0.523739 0.178666 0.925422 0.252556
O27   O     O_R   0.576072 0.141635 0.908174 -0.374111
O28   O     O_R   0.482538 0.056757 0.913465 -0.337876
N5    N     N_R   0.436680 0.143603 0.307587 0.252616
O29   O     O_R   0.446813 0.321362 0.308942 -0.361578
O30   O     O_R   0.423471 0.062614 0.252762 -0.329167
N6    N     N_R   0.552079 0.974715 0.701615 0.251560
O31   O     O_R   0.514492 0.092879 0.721985 -0.306161
O32   O     O_R   0.581164 0.868816 0.742855 -0.347122
N7    N     N_R   0.063204 0.642620 0.192552 0.252561
O33   O     O_R   0.076482 0.561301 0.247302 -0.329046
O34   O     O_R   0.052902 0.820283 0.191365 -0.361413
N8    N     N_R   0.947947 0.475576 0.798344 0.251564
O35   O     O_R   0.985502 0.593947 0.778029 -0.306311
O36   O     O_R   0.918870 0.369819 0.757053 -0.347015
N9    N     N_R   0.321858 0.802119 0.458170 0.249595
O37   O     O_R   0.307693 0.634499 0.439907 -0.387129
O38   O     O_R   0.281911 0.910685 0.479131 -0.402455
N10   N     N_R   0.679991 0.174354 0.537807 0.260191
O39   O     O_R   0.730757 0.100384 0.553194 -0.469518
O40   O     O_R   0.677515 0.343180 0.515602 -0.360189
N11   N     N_R   0.178265 0.303053 0.041704 0.249485
O41   O     O_R   0.192558 0.135507 0.059931 -0.387304
O42   O     O_R   0.218119 0.411936 0.020719 -0.402330
N12   N     N_R   0.819905 0.673410 0.962287 0.259966
O43   O     O_R   0.769197 0.599093 0.946860 -0.469797
O44   O     O_R   0.822249 0.842073 0.984649 -0.359992
O45   O     O_3   0.371870 0.716584 0.569269 -0.583556
C61   C     C_3   0.383236 0.524153 0.564835 0.243568
H5    H     H_    0.423336 0.483173 0.594360 0.121053
H6    H     H_    0.389117 0.484045 0.514074 0.116062
C62   C     C_3   0.331545 0.417461 0.589321 -0.243138
H7    H     H_    0.324703 0.460559 0.639484 0.242895
H8    H     H_    0.291306 0.450493 0.558854 0.250206
C63   C     C_3   0.342282 0.208858 0.587908 -0.808409
H9    H     H_    0.349827 0.164688 0.538198 0.262156
H10   H     H_    0.303545 0.134144 0.604279 0.303905
H11   H     H_    0.381027 0.171998 0.620137 0.272111
O46   O     O_3   0.646013 0.095465 0.418005 -0.593677
C64   C     C_3   0.663360 0.926681 0.389494 0.240399
H12   H     H_    0.684997 0.962243 0.344901 0.166290
H13   H     H_    0.626432 0.831263 0.374866 0.106361
C65   C     C_3   0.707197 0.823081 0.434892 -0.356821
H14   H     H_    0.745935 0.912792 0.446236 0.258833
H15   H     H_    0.686527 0.789506 0.480262 0.231260
C66   C     C_3   0.727394 0.642927 0.404755 -0.762958
H16   H     H_    0.689563 0.549072 0.393881 0.293766
H17   H     H_    0.759157 0.571403 0.438811 0.290742
H18   H     H_    0.749089 0.672724 0.359731 0.251676
O47   O     O_3   0.128257 0.217550 0.930582 -0.583469
C67   C     C_3   0.116899 0.025108 0.935009 0.243470
H19   H     H_    0.076793 0.984137 0.905487 0.121036
H20   H     H_    0.111030 0.984980 0.985771 0.115915
C68   C     C_3   0.168583 0.918420 0.910510 -0.243224
H21   H     H_    0.175443 0.961611 0.860361 0.242887
H22   H     H_    0.208819 0.951346 0.940997 0.250209
C69   C     C_3   0.157814 0.709821 0.911866 -0.808051
H23   H     H_    0.150208 0.665561 0.961552 0.262177
H24   H     H_    0.196560 0.635089 0.895526 0.303902
H25   H     H_    0.119094 0.673063 0.879583 0.272179
O48   O     O_3   0.853948 0.593896 0.082028 -0.593815
C70   C     C_3   0.836748 0.424688 0.110370 0.239845
H26   H     H_    0.816004 0.459406 0.155586 0.166886
H27   H     H_    0.873637 0.327942 0.123849 0.105220
C71   C     C_3   0.791950 0.323432 0.065462 -0.353249
H28   H     H_    0.753395 0.414611 0.055030 0.258337
H29   H     H_    0.811835 0.290200 0.019604 0.231864
C72   C     C_3   0.771639 0.143263 0.095498 -0.765591
H30   H     H_    0.809281 0.048032 0.105463 0.294216
H31   H     H_    0.739194 0.073454 0.061775 0.289989
H32   H     H_    0.750720 0.172738 0.141024 0.252107
N13   N     N_R   0.458761 0.767346 0.663971 0.269743
O49   O     O_R   0.412859 0.809053 0.694715 -0.289067
O50   O     O_R   0.492492 0.632180 0.684989 -0.347490
N14   N     N_R   0.553618 0.112160 0.326818 0.267508
O51   O     O_R   0.582360 0.259350 0.311048 -0.311372
O52   O     O_R   0.545540 0.978433 0.285225 -0.323054
N15   N     N_R   0.041385 0.268551 0.835881 0.269817
O53   O     O_R   0.087285 0.310526 0.805171 -0.289105
O54   O     O_R   0.007701 0.133343 0.814795 -0.347371
N16   N     N_R   0.946288 0.610133 0.173269 0.267502
O55   O     O_R   0.917456 0.756898 0.189269 -0.310916
O56   O     O_R   0.954425 0.475860 0.214637 -0.323206

loop_
_geom_bond_atom_site_label_1
_geom_bond_atom_site_label_2
_geom_bond_distance
_ccdc_geom_bond_type
O17   V3    1.759089 S    
C66   H18   1.110856 S    
C55   C59   1.408297 A    
C30   C34   1.408556 A    
N5    O29   1.301237 A    
C20   N3    1.442364 S    
O19   V1    1.759085 S    
O13   V1    1.992559 S    
N13   O49   1.301238 A    
O3    C7    1.327261 A    
N3    O25   1.301175 A    
C10   C14   1.403592 A    
C67   C68   1.526725 S    
C44   C48   1.419866 A    
O15   V3    1.992545 S    
N6    O32   1.300859 A    
N16   O55   1.301286 A    
O4    V2    1.961794 S    
N15   O54   1.301553 A    
C18   N1    1.442361 S    
C57   N13   1.436360 S    
O1    C5    1.327259 A    
C64   H13   1.117270 S    
O5    C1    1.335755 A    
C61   H5    1.112708 S    
C19   N4    1.442400 S    
C38   N10   1.437765 S    
C58   N14   1.435931 S    
C36   C40   1.407707 A    
O9    V1    1.974323 S    
C67   H20   1.113598 S    
N9    O37   1.300858 A    
C52   C59   1.418870 A    
C11   H3    1.083828 S    
O4    C8    1.327061 A    
C8    C26   1.452217 S    
C21   C26   1.216408 T    
O1    V3    1.961804 S    
N10   O39   1.300795 A    
C12   C19   1.411828 A    
O2    V4    1.961804 S    
C23   C28   1.216400 T    
C14   C18   1.417840 A    
C68   C69   1.523184 S    
O3    V1    1.961796 S    
C17   N2    1.442399 S    
C45   C49   1.421989 A    
N8    O35   1.301221 A    
C51   C60   1.420431 A    
C1    O15   1.336668 A    
C3    O13   1.336683 A    
O47   C67   1.414444 S    
C2    O16   1.333181 A    
C63   H9    1.108287 S    
O2    C6    1.327056 A    
C68   H21   1.111696 S    
C65   C66   1.526420 S    
C41   C45   1.421046 A    
O14   V2    1.992560 S    
N1    O22   1.301644 A    
C11   C15   1.403514 A    
C43   C55   1.417775 A    
C24   C27   1.216538 T    
C40   C44   1.422985 A    
C62   C63   1.523143 S    
C16   C24   1.460811 S    
O11   C7    1.331210 A    
C29   N5    1.437349 S    
O12   C8    1.331378 A    
C10   H2    1.083808 S    
C9    C18   1.411803 A    
N7    O34   1.301227 A    
C37   N9    1.435306 S    
O10   V2    1.974322 S    
C11   C20   1.411804 A    
C13   C21   1.460615 S    
N6    O31   1.301187 A    
N14   O52   1.301421 A    
C7    C25   1.452304 S    
C71   H29   1.111181 S    
N11   O42   1.300475 A    
C45   C46   1.427557 A    
C64   C65   1.529841 S    
C35   C39   1.408355 A    
C22   C25   1.216543 T    
O7    V3    1.998915 S    
C34   C38   1.407691 A    
O8    V4    1.998915 S    
C29   C49   1.424348 A    
C12   H4    1.083810 S    
C41   C53   1.417830 A    
C65   H14   1.111039 S    
C69   H25   1.110871 S    
C31   C51   1.424314 A    
C5    C27   1.452304 S    
C56   O48   1.387819 S    
O18   V4    1.759089 S    
C6    C28   1.452218 S    
C61   C62   1.526732 S    
C54   C58   1.408850 A    
O11   V3    1.974340 S    
C31   N7    1.437375 S    
C56   C60   1.408784 A    
O48   C70   1.421141 S    
O7    C3    1.335772 A    
C47   C48   1.427550 A    
C42   C46   1.419851 A    
C71   C72   1.526450 S    
C4    C34   1.483272 S    
C70   H26   1.111059 S    
O8    C4    1.337654 A    
N2    O24   1.301626 A    
C70   C71   1.529554 S    
O9    C5    1.331208 A    
C10   C17   1.411828 A    
C67   H19   1.112727 S    
C60   N16   1.435875 S    
C16   C20   1.417833 A    
C69   H23   1.108308 S    
C44   C56   1.413505 A    
C14   C22   1.460810 S    
C55   O47   1.383509 S    
C50   C57   1.418858 A    
C63   H10   1.110163 S    
O6    V2    1.998938 S    
C49   C58   1.420530 A    
C72   H32   1.110829 S    
N4    O28   1.301627 A    
O45   C61   1.414426 S    
C12   C16   1.403590 A    
C30   N6    1.438016 S    
N7    O33   1.301752 A    
N12   O44   1.301145 A    
O5    V1    1.998944 S    
C59   N15   1.436367 S    
N14   O51   1.301292 A    
C9    H1    1.083825 S    
C71   H28   1.111064 S    
O16   V4    1.992545 S    
C66   H17   1.110569 S    
C32   C52   1.424161 A    
C61   H6    1.113593 S    
C53   O45   1.383482 S    
C1    C35   1.487132 S    
C69   H24   1.110167 S    
C2    C36   1.483293 S    
C48   C52   1.420375 A    
C65   H15   1.111255 S    
O46   C64   1.421102 S    
C3    C33   1.487198 S    
O6    C2    1.337636 A    
N16   O56   1.301401 A    
N11   O41   1.300853 A    
N3    O26   1.301647 A    
C29   C33   1.409624 A    
O12   V4    1.974341 S    
C40   N12   1.437796 S    
C64   H12   1.111157 S    
C31   C35   1.409573 A    
N5    O30   1.301760 A    
C32   C36   1.408558 A    
C9    C13   1.403514 A    
O10   C6    1.331375 A    
O20   V2    1.759084 S    
C70   H27   1.117422 S    
C62   H7    1.111692 S    
N15   O53   1.301246 A    
C43   C47   1.421012 A    
C15   C23   1.460613 S    
C38   C42   1.422974 A    
C39   N11   1.435290 S    
C63   H11   1.110871 S    
C37   C41   1.425235 A    
N2    O23   1.301198 A    
N10   O40   1.301148 A    
C39   C43   1.425242 A    
C68   H22   1.111493 S    
C54   O46   1.387925 S    
C42   C54   1.413560 A    
N8    O36   1.300837 A    
C15   C19   1.417725 A    
C32   N8    1.437987 S    
C30   C50   1.424157 A    
C33   C37   1.408377 A    
C72   H30   1.111129 S    
C72   H31   1.110488 S    
N4    O27   1.301195 A    
C46   C50   1.420392 A    
C4    O14   1.333175 A    
N12   O43   1.300802 A    
C13   C17   1.417739 A    
N9    O38   1.300472 A    
N1    O21   1.301180 A    
C47   C51   1.421941 A    
C53   C57   1.408304 A    
C66   H16   1.111127 S    
C62   H8    1.111489 S    
N13   O50   1.301548 A    
