data_mof_unit_12447.cif
_audit_creation_date              2012-12-10T17:13:36-0500
_audit_creation_method            fapswitch 2.2
_symmetry_space_group_name_H-M    P1
_symmetry_Int_Tables_number       1
_space_group_crystal_system       triclinic
_cell_length_a                    10.732097
_cell_length_b                    13.020081
_cell_length_c                    11.662106
_cell_angle_alpha                 99.669779
_cell_angle_beta                  93.798769
_cell_angle_gamma                 90.195745
_cell_volume                      1602.72094315

loop_
_atom_site_label
_atom_site_type_symbol
_atom_type_description
_atom_site_fract_x
_atom_site_fract_y
_atom_site_fract_z
_atom_type_partial_charge
C1    C     C_R   0.501171 0.299123 0.479030 0.818825
C2    C     C_3   0.878109 0.500638 0.498747 0.169863
C3    C     C_3   0.933718 0.602049 0.574056 -0.381864
C4    C     C_3   0.919473 0.494350 0.372731 -0.372699
C5    C     C_R   0.508163 0.813706 0.533654 -0.047856
C6    C     C_R   0.504876 0.185720 0.467844 -0.166303
C7    C     C_R   0.461934 0.016570 0.349400 -0.222930
C8    C     C_R   0.467163 0.124236 0.360399 -0.267943
C9    C     C_R   0.543153 0.138025 0.564628 0.378443
C10   C     C_R   0.529454 0.030030 0.555402 0.089063
C11   C     C_R   0.490951 0.969149 0.446491 0.111480
C12   C     C_R   0.259658 0.500324 0.500133 0.757464
C13   C     C_R   0.481551 0.861421 0.436208 -0.246470
C14   C     C_R   0.542742 0.874173 0.642311 -0.226224
C15   C     C_R   0.553403 0.981584 0.653169 -0.198924
C16   C     C_R   0.377850 0.406281 0.022346 -0.337047
C17   C     C_R   0.389869 0.414841 0.144493 0.081857
C18   C     C_R   0.553640 0.539506 0.156707 0.019913
C19   C     C_R   0.544809 0.533574 0.033951 0.066662
C20   C     C_R   0.455592 0.466029 0.965978 0.066008
C21   C     C_R   0.446668 0.460196 0.843241 0.050255
C22   C     C_R   0.610282 0.585010 0.855482 0.072293
C23   C     C_R   0.502360 0.700754 0.521222 0.802671
C24   C     C_R   0.622532 0.593343 0.977590 -0.345794
C25   C     C_R   0.740299 0.500348 0.499566 0.744136
C26   C     C_3   0.075027 0.405984 0.550405 -0.379630
C27   C     C_3   0.931225 0.405621 0.548963 -0.389929
C28   C     C_3   0.077583 0.602211 0.574152 -0.377486
C29   C     C_3   0.062165 0.493749 0.373126 -0.369190
C30   C     C_3   0.121705 0.500595 0.499614 0.160320
Cu1   Cu    Cu3+1 0.509350 0.507730 0.615930 0.932694
Cu2   Cu    Cu3+1 0.490650 0.492270 0.384070 0.922863
H1    H     H_    0.114981 0.409287 0.641537 0.169044
H2    H     H_    0.883264 0.562119 0.334463 0.161726
H3    H     H_    0.110076 0.671103 0.538672 0.151905
H4    H     H_    0.896549 0.671221 0.539226 0.148898
H5    H     H_    0.453202 0.814874 0.352340 0.150007
H6    H     H_    0.563320 0.838434 0.718730 0.156108
H7    H     H_    0.432284 0.970549 0.265660 0.146564
H8    H     H_    0.580420 0.026204 0.738204 0.175018
H9    H     H_    0.439593 0.159463 0.284979 0.176380
H10   H     H_    0.378613 0.408209 0.790027 0.125324
H11   H     H_    0.106500 0.332178 0.498373 0.149779
H12   H     H_    0.670646 0.631307 0.812893 0.118893
H13   H     H_    0.308208 0.353483 0.972534 0.137644
H14   H     H_    0.692230 0.646084 0.027393 0.133817
H15   H     H_    0.329434 0.368603 0.187083 0.117905
H16   H     H_    0.621795 0.591412 0.209893 0.116084
H17   H     H_    0.893369 0.332228 0.494841 0.144663
H18   H     H_    0.902521 0.407658 0.639235 0.168165
H19   H     H_    0.118479 0.609386 0.665432 0.171519
H20   H     H_    0.906021 0.608584 0.665284 0.165595
H21   H     H_    0.094268 0.560829 0.334142 0.169680
H22   H     H_    0.091602 0.421050 0.317414 0.163183
H23   H     H_    0.880737 0.422262 0.316314 0.171116
N1    N     N_R   0.523430 0.519360 0.790130 -0.183232
N2    N     N_R   0.476570 0.480640 0.209880 -0.177816
O1    O     O_R   0.506640 0.354460 0.582000 -0.547043
O2    O     O_R   0.490840 0.341410 0.386200 -0.592828
O3    O     O_R   0.325590 0.506510 0.597900 -0.592091
O4    O     O_R   0.309790 0.493450 0.402100 -0.594506
O5    O     O_R   0.509160 0.658590 0.613800 -0.588757
O6    O     O_R   0.493360 0.645540 0.418000 -0.589081
O7    O     O_R   0.690210 0.506550 0.597900 -0.602820
O8    O     O_R   0.674410 0.493490 0.402100 -0.591236
O9    O     O_3   0.587654 0.196454 0.670208 -0.613330
C31   C     C_3   0.713424 0.227692 0.663870 0.097907
H24   H     H_    0.726828 0.306272 0.717895 0.180256
H25   H     H_    0.737634 0.235475 0.574123 0.099253
C32   C     C_3   0.803315 0.152569 0.713502 -0.386587
H26   H     H_    0.778926 0.145345 0.802987 0.225248
H27   H     H_    0.794648 0.074460 0.657867 0.217104
C33   C     C_3   0.938572 0.190480 0.718164 -0.933297
H28   H     H_    0.966221 0.195194 0.629074 0.258082
H29   H     H_    0.000938 0.134898 0.755577 0.260086
H30   H     H_    0.950630 0.268349 0.773926 0.251149

loop_
_geom_bond_atom_site_label_1
_geom_bond_atom_site_label_2
_ccdc_geom_bond_type
C33   H28   S    
C19   C20   A    
C6    C9    A    
C7    C8    A    
C7    C11   A    
C26   C27   S    
Cu1   O1    S    
C3    C28   S    
Cu2   O4    S    
C10   C15   A    
C1    O2    A    
C28   H19   S    
C29   H22   S    
C18   C19   A    
C9    O9    S    
C18   N2    A    
C23   O5    A    
C22   H12   S    
C28   H3    S    
C16   C17   A    
C32   H26   S    
Cu1   N1    S    
C9    C10   A    
C13   H5    S    
C4    C29   S    
C27   H18   S    
C23   O6    A    
O9    C31   S    
C33   H29   S    
Cu1   O5    S    
Cu2   N2    S    
C26   H11   S    
C4    H2    S    
C31   H24   S    
C25   O8    A    
C8    H9    S    
C6    C8    A    
C1    C6    S    
C31   H25   S    
C25   O7    A    
Cu1   O3    S    
C2    C4    S    
C29   C30   S    
C14   H6    S    
C26   H1    S    
Cu1   Cu2   S    
C5    C23   S    
C16   C20   A    
C32   C33   S    
C5    C14   A    
C2    C27   S    
C26   C30   S    
C4    H23   S    
C33   H30   S    
C22   C24   A    
C12   C30   S    
C5    C13   A    
Cu1   O7    S    
C17   H15   S    
Cu2   O6    S    
C18   H16   S    
C16   H13   S    
C21   N1    A    
C22   N1    A    
C3    H20   S    
C31   C32   S    
C24   H14   S    
C28   C30   S    
C2    C3    S    
C1    O1    A    
C12   O4    A    
C11   C13   A    
C29   H21   S    
C3    H4    S    
C19   C24   A    
C2    C25   S    
C15   H8    S    
C10   C11   A    
C21   H10   S    
C12   O3    A    
C20   C21   A    
C7    H7    S    
C14   C15   A    
C32   H27   S    
Cu2   O2    S    
C27   H17   S    
C17   N2    A    
Cu2   O8    S    
