data_mof_unit_11096.cif
_audit_creation_date              2012-12-10T20:52:10-0500
_audit_creation_method            fapswitch 2.2
_symmetry_space_group_name_H-M    P1
_symmetry_Int_Tables_number       1
_space_group_crystal_system       triclinic
_cell_length_a                    10.895292
_cell_length_b                    9.103908
_cell_length_c                    8.247298
_cell_angle_alpha                 93.783062
_cell_angle_beta                  93.496405
_cell_angle_gamma                 90.447872
_cell_volume                      814.687847753

loop_
_atom_site_label
_atom_site_type_symbol
_atom_type_description
_atom_site_fract_x
_atom_site_fract_y
_atom_site_fract_z
_atom_type_partial_charge
C1    C     C_R   0.499857 0.218067 0.496604 0.914354
C2    C     C_R   0.740722 0.497272 0.505475 0.847900
C3    C     C_R   0.223921 0.482366 0.971798 -0.141584
C4    C     C_R   0.776084 0.517638 0.028211 -0.141588
C5    C     C_R   0.166333 0.525145 0.111552 -0.103368
C6    C     C_R   0.833664 0.474855 0.888453 -0.103366
C7    C     C_R   0.091290 0.425817 0.181595 0.132361
C8    C     C_R   0.908709 0.574177 0.818404 0.132363
C9    C     C_R   0.050358 0.298735 0.085755 -0.215917
C10   C     C_R   0.949647 0.701259 0.914240 -0.215920
C11   C     C_R   0.107188 0.253913 0.943234 0.050917
C12   C     C_R   0.500143 0.781933 0.503396 0.914355
C13   C     C_R   0.892827 0.746083 0.056768 0.050917
C14   C     C_R   0.200019 0.343710 0.892615 -0.135269
C15   C     C_R   0.799998 0.656291 0.107396 -0.135269
C16   C     C_R   0.925332 0.444957 0.368997 -0.248988
C17   C     C_R   0.074667 0.555028 0.631005 -0.248989
C18   C     C_R   0.066408 0.119219 0.842123 0.116507
C19   C     C_R   0.152440 0.031651 0.760574 -0.205082
C20   C     C_R   0.112863 0.916320 0.649365 -0.163925
C21   C     C_R   0.987033 0.887941 0.617390 -0.079906
C22   C     C_R   0.901089 0.969042 0.703503 -0.144544
C23   C     C_R   0.874068 0.489674 0.514413 -0.120739
C24   C     C_R   0.940544 0.082578 0.817025 -0.155338
C25   C     C_R   0.933620 0.880775 0.157875 0.116507
C26   C     C_R   0.847597 0.968347 0.239439 -0.205092
C27   C     C_R   0.887188 0.083677 0.350641 -0.163924
C28   C     C_R   0.013022 0.112048 0.382597 -0.079880
C29   C     C_R   0.098954 0.030943 0.296469 -0.144547
C30   C     C_R   0.059486 0.917412 0.182950 -0.155347
C31   C     C_R   0.125931 0.510316 0.485587 -0.120745
C32   C     C_R   0.951027 0.538561 0.652435 0.017206
C33   C     C_R   0.048972 0.461427 0.347566 0.017205
C34   C     C_1   0.499951 0.064610 0.495360 -0.219766
C35   C     C_1   0.500048 0.935390 0.504640 -0.219767
C36   C     C_R   0.259278 0.502725 0.494525 0.847897
H1    H     H_    0.247072 0.309861 0.785560 0.169389
H2    H     H_    0.132679 0.604976 0.729573 0.163569
H3    H     H_    0.250153 0.053739 0.780620 0.140554
H4    H     H_    0.179443 0.852086 0.583977 0.138671
H5    H     H_    0.955888 0.804332 0.524636 0.157590
H6    H     H_    0.803900 0.944701 0.680904 0.139834
H7    H     H_    0.872022 0.143186 0.881746 0.115544
H8    H     H_    0.749883 0.946262 0.219412 0.140552
H9    H     H_    0.820616 0.147914 0.416040 0.138673
H10   H     H_    0.044178 0.195655 0.475347 0.157581
H11   H     H_    0.196146 0.055281 0.319050 0.139836
H12   H     H_    0.752956 0.690137 0.214458 0.169384
H13   H     H_    0.128000 0.856804 0.118211 0.115547
H14   H     H_    0.284113 0.560629 0.923910 0.163956
H15   H     H_    0.715889 0.439380 0.076102 0.163963
H16   H     H_    0.187595 0.631939 0.171879 0.128282
H17   H     H_    0.812397 0.368060 0.828131 0.128278
H18   H     H_    0.975216 0.233798 0.120626 0.155797
H19   H     H_    0.024789 0.766191 0.879366 0.155797
H20   H     H_    0.867320 0.395008 0.270430 0.163562
N1    N     N_1   0.500020 0.500030 0.073640 -0.068761
N2    N     N_1   0.499980 0.499970 0.926360 -0.068762
O1    O     O_R   0.499990 0.285340 0.636850 -0.623018
O2    O     O_R   0.500010 0.714660 0.363150 -0.623013
O3    O     O_R   0.500010 0.285350 0.363100 -0.611625
O4    O     O_R   0.499990 0.714650 0.636900 -0.611623
O5    O     O_R   0.316750 0.500000 0.636870 -0.652441
O6    O     O_R   0.683250 0.500000 0.363130 -0.652441
O7    O     O_R   0.316770 0.500020 0.363120 -0.615021
O8    O     O_R   0.683230 0.499980 0.636880 -0.615021
Zn1   Zn    Zn3+2 0.499990 0.499990 0.682780 0.952868
Zn2   Zn    Zn3+2 0.500010 0.500010 0.317220 0.952870

loop_
_geom_bond_atom_site_label_1
_geom_bond_atom_site_label_2
_ccdc_geom_bond_type
C31   C33   A    
C5    H16   S    
C29   C30   A    
C16   C33   A    
C36   O5    A    
C9    C11   A    
C19   C20   A    
C20   H4    S    
O7    Zn2   S    
C28   H10   S    
C23   C32   A    
C27   H9    S    
C4    C15   A    
C16   H20   S    
O8    Zn1   S    
N1    N2    T    
C26   H8    S    
C11   C18   S    
C21   C22   A    
C12   C35   S    
C10   H19   S    
C7    C33   S    
O3    Zn2   S    
C13   C25   S    
C26   C27   A    
C22   H6    S    
C3    C14   A    
C19   H3    S    
C15   H12   S    
C29   H11   S    
C18   C24   A    
O6    Zn2   S    
C22   C24   A    
C8    C10   A    
C28   C29   A    
C3    H14   S    
C2    O6    A    
C1    C34   S    
C34   C35   T    
C16   C23   A    
O5    Zn1   S    
C17   H2    S    
C13   C15   A    
C36   O7    A    
C17   C31   A    
C11   C14   A    
C21   H5    S    
C4    C6    A    
O4    Zn1   S    
N1    Zn2   S    
C4    H15   S    
C12   O2    A    
C3    C5    A    
N2    Zn1   S    
C25   C30   A    
C12   O4    A    
C20   C21   A    
O2    Zn2   S    
C2    C23   S    
C14   H1    S    
C18   C19   A    
C27   C28   A    
C7    C9    A    
C17   C32   A    
C5    C7    A    
C24   H7    S    
C6    C8    A    
C9    H18   S    
C6    H17   S    
O1    Zn1   S    
C25   C26   A    
C31   C36   S    
C30   H13   S    
C1    O3    A    
C1    O1    A    
C2    O8    A    
C10   C13   A    
C8    C32   S    
