data_mof_unit_43643.cif
_audit_creation_date              2012-12-10T17:27:57-0500
_audit_creation_method            fapswitch 2.2
_symmetry_space_group_name_H-M    P1
_symmetry_Int_Tables_number       1
_space_group_crystal_system       triclinic
_cell_length_a                    10.718319
_cell_length_b                    11.946296
_cell_length_c                    12.950836
_cell_angle_alpha                 91.812741
_cell_angle_beta                  90.955705
_cell_angle_gamma                 83.301601
_cell_volume                      1645.99485593

loop_
_atom_site_label
_atom_site_type_symbol
_atom_type_description
_atom_site_fract_x
_atom_site_fract_y
_atom_site_fract_z
_atom_type_partial_charge
C1    C     C_R   0.506299 0.520206 0.700558 0.869554
C2    C     C_R   0.456806 0.630376 0.858351 -0.228736
C3    C     C_R   0.577953 0.443688 0.872580 0.016916
C4    C     C_R   0.742365 0.496791 0.500516 0.885413
C5    C     C_R   0.564562 0.453563 0.980464 0.156207
C6    C     C_R   0.495569 0.551323 0.024756 0.157651
C7    C     C_R   0.473626 0.558007 0.129636 -0.259962
C8    C     C_R   0.588617 0.372649 0.149465 -0.216228
C9    C     C_R   0.613656 0.366034 0.045556 -0.228388
C10   C     C_R   0.366401 0.964414 0.416830 -0.343658
C11   C     C_R   0.381987 0.846088 0.422772 0.069659
C12   C     C_R   0.959288 0.399216 0.548500 0.080565
C13   C     C_R   0.558871 0.852831 0.533757 -0.040279
C14   C     C_R   0.547439 0.971742 0.529160 0.097385
C15   C     C_R   0.449903 0.028481 0.470326 0.083818
C16   C     C_R   0.502324 0.479310 0.299926 0.898649
C17   C     C_R   0.439418 0.147801 0.466658 -0.054161
C18   C     C_R   0.618618 0.152722 0.575188 -0.026494
C19   C     C_R   0.631416 0.034888 0.581799 -0.341938
C20   C     C_R   0.261416 0.504813 0.515695 0.899332
C21   C     C_R   0.927555 0.287590 0.555854 -0.267800
C22   C     C_R   0.010161 0.201783 0.602000 0.113848
C23   C     C_R   0.878080 0.493225 0.510773 -0.133723
C24   C     C_R   0.124577 0.228973 0.646636 0.132710
C25   C     C_R   0.157025 0.337401 0.635398 -0.208127
C26   C     C_R   0.081727 0.417787 0.577359 0.062703
C27   C     C_3   0.650560 0.336828 0.825879 -0.404536
C28   C     C_3   0.571228 0.236558 0.831156 -0.290241
C29   C     C_3   0.647118 0.125377 0.862291 -0.935959
C30   C     C_3   0.976017 0.082237 0.600264 -0.426946
C31   C     C_3   0.937931 0.048838 0.707803 -0.374260
C32   C     C_3   0.943762 0.921145 0.716243 -0.844023
C33   C     C_3   0.219460 0.144432 0.699849 -0.431291
C34   C     C_R   0.924125 0.596982 0.497233 -0.267434
C35   C     C_3   0.231601 0.173999 0.815546 -0.361267
C36   C     C_3   0.306142 0.077554 0.872531 -0.883963
C37   C     C_2   0.086594 0.724773 0.505726 0.909282
C38   C     C_R   0.048295 0.609882 0.514815 -0.029358
C39   C     C_R   0.129793 0.514549 0.542993 -0.192397
C40   C     C_R   0.518338 0.468151 0.190903 -0.044237
C41   C     C_R   0.516640 0.531402 0.811875 -0.091638
C42   C     C_R   0.446593 0.640399 0.964118 -0.225312
H1    H     H_    0.862590 0.670469 0.473403 0.202024
H2    H     H_    0.843775 0.262542 0.520078 0.178412
H3    H     H_    0.245176 0.357855 0.669000 0.160911
H4    H     H_    0.420307 0.632609 0.163584 0.151446
H5    H     H_    0.626939 0.304198 0.197829 0.164832
H6    H     H_    0.395758 0.716026 0.998200 0.148782
H7    H     H_    0.746449 0.134906 0.882251 0.256991
H8    H     H_    0.604765 0.092382 0.931171 0.257478
H9    H     H_    0.644628 0.060881 0.799177 0.257758
H10   H     H_    0.494329 0.255835 0.887788 0.224197
H11   H     H_    0.522644 0.224884 0.756109 0.232086
H12   H     H_    0.669523 0.290374 0.018381 0.177771
H13   H     H_    0.682270 0.346802 0.746255 0.201902
H14   H     H_    0.741910 0.320877 0.867558 0.180779
H15   H     H_    0.896014 0.901159 0.787669 0.243279
H16   H     H_    0.897574 0.882925 0.648650 0.262053
H17   H     H_    0.043277 0.883431 0.720772 0.291772
H18   H     H_    0.998491 0.080193 0.769664 0.234897
H19   H     H_    0.841749 0.089156 0.722938 0.223300
H20   H     H_    0.896763 0.072878 0.545465 0.197790
H21   H     H_    0.056052 0.023720 0.569859 0.216768
H22   H     H_    0.252747 0.003213 0.872056 0.263854
H23   H     H_    0.411920 0.698410 0.812465 0.182956
H24   H     H_    0.398014 0.052900 0.835021 0.277288
H25   H     H_    0.322969 0.104509 0.953917 0.251030
H26   H     H_    0.279796 0.251045 0.826035 0.214159
H27   H     H_    0.137282 0.191898 0.850740 0.221477
H28   H     H_    0.196195 0.056870 0.690210 0.233388
H29   H     H_    0.312540 0.144763 0.663361 0.204777
H30   H     H_    0.067819 0.870403 0.429149 0.325189
H31   H     H_    0.365062 0.192632 0.421318 0.140534
H32   H     H_    0.684400 0.200405 0.615910 0.136095
H33   H     H_    0.289888 0.005199 0.370860 0.145149
H34   H     H_    0.706078 0.992663 0.627613 0.164548
H35   H     H_    0.317292 0.797185 0.381522 0.137818
H36   H     H_    0.632918 0.808636 0.579928 0.125177
N1    N     N_R   0.523130 0.207800 0.519340 -0.104010
N2    N     N_R   0.476870 0.792180 0.480660 -0.095994
O1    O     O_R   0.506170 0.421690 0.658830 -0.644534
O2    O     O_R   0.035649 0.793850 0.426714 -0.828867
O3    O     O_R   0.491330 0.609320 0.646410 -0.612457
O4    O     O_R   0.690660 0.406170 0.506210 -0.643882
O5    O     O_R   0.675810 0.593790 0.493790 -0.626783
O6    O     O_R   0.508670 0.390680 0.353590 -0.621660
O7    O     O_R   0.493830 0.578310 0.341170 -0.624867
O8    O     O_R   0.324190 0.406210 0.506210 -0.629127
O9    O     O_R   0.309340 0.593830 0.493790 -0.593651
O10   O     O_2   0.158314 0.760760 0.569716 -0.641994
Zn1   Zn    Zn3+2 0.509910 0.374720 0.508290 0.922533
Zn2   Zn    Zn3+2 0.490090 0.625280 0.491710 0.975285

loop_
_geom_bond_atom_site_label_1
_geom_bond_atom_site_label_2
_ccdc_geom_bond_type
C16   O6    A    
C31   H19   S    
C35   C36   S    
C32   H16   S    
C2    H23   S    
C36   H25   S    
C29   H7    S    
O3    Zn2   S    
C12   C23   A    
C37   O10   D    
C19   H34   S    
C4    C23   S    
C10   C15   A    
C30   C31   S    
C27   H13   S    
C26   C39   A    
C2    C41   A    
C1    O1    A    
C17   N1    A    
C18   C19   A    
C11   H35   S    
C3    C41   A    
C8    C9    A    
C16   O7    A    
C7    C40   A    
O4    Zn1   S    
C13   C14   A    
N1    Zn1   S    
C13   N2    A    
C18   H32   S    
C21   C22   A    
C17   H31   S    
C32   H15   S    
O5    Zn2   S    
C29   H8    S    
C38   C39   A    
C7    H4    S    
C24   C25   A    
C10   C11   A    
C20   C39   S    
C27   H14   S    
C18   N1    A    
C4    O5    A    
C25   C26   A    
C12   C21   A    
C12   C26   A    
C31   H18   S    
N2    Zn2   S    
C5    C9    A    
C37   C38   S    
C21   H2    S    
C10   H33   S    
C31   C32   S    
C4    O4    A    
O8    Zn1   S    
C23   C34   A    
C42   H6    S    
O9    Zn2   S    
C33   H28   S    
C16   C40   S    
C1    C41   S    
C30   H20   S    
C22   C24   A    
C37   O2    S    
C25   H3    S    
C29   H9    S    
C15   C17   A    
C13   H36   S    
C28   C29   S    
C22   C30   S    
C34   C38   A    
C14   C19   A    
C34   H1    S    
C3    C5    A    
C28   H11   S    
C6    C7    A    
C1    O3    A    
C20   O9    A    
C24   C33   S    
O6    Zn1   S    
C3    C27   S    
C8    H5    S    
C36   H22   S    
C28   H10   S    
C5    C6    A    
C35   H26   S    
C2    C42   A    
C20   O8    A    
C30   H21   S    
C33   C35   S    
C36   H24   S    
C11   N2    A    
C33   H29   S    
O1    Zn1   S    
C35   H27   S    
C6    C42   A    
C27   C28   S    
C14   C15   A    
C9    H12   S    
C8    C40   A    
C32   H17   S    
O7    Zn2   S    
H30   O2    S    
