data_mof_unit_22446.cif
_audit_creation_date              2012-12-11T14:17:39-0500
_audit_creation_method            fapswitch 2.2
_symmetry_space_group_name_H-M    P1
_symmetry_Int_Tables_number       1
_space_group_crystal_system       triclinic
_cell_length_a                    6.947238
_cell_length_b                    13.663564
_cell_length_c                    20.401762
_cell_angle_alpha                 102.011976
_cell_angle_beta                  90.79351
_cell_angle_gamma                 90.448783
_cell_volume                      1893.91821891

loop_
_atom_site_label
_atom_site_type_symbol
_atom_type_description
_atom_site_fract_x
_atom_site_fract_y
_atom_site_fract_z
_atom_type_partial_charge
O1    O     O_R   0.506860 0.599390 0.449240 -0.537762
O2    O     O_R   0.180220 0.594600 0.586780 -0.542477
O3    O     O_R   0.004500 0.400610 0.550760 -0.538463
C1    C     C_R   0.349788 0.616033 0.613473 0.742641
O4    O     O_R   0.177490 0.611290 0.451970 -0.539779
O5    O     O_R   0.001750 0.417420 0.414990 -0.551148
C2    C     C_R   0.345134 0.637446 0.434830 0.702250
O6    O     O_R   0.509610 0.582580 0.585010 -0.542471
O7    O     O_3   0.337420 0.436370 0.488020 -0.378669
V1    V     V_3+5 0.064680 0.511800 0.502220 1.410238
O8    O     O_R   0.671710 0.405400 0.413220 -0.542954
C3    C     C_R   0.837483 0.384395 0.386183 0.618908
O9    O     O_R   0.674440 0.388710 0.548030 -0.542060
C4    C     C_R   0.843323 0.362235 0.564907 0.693914
V2    V     V_3+5 0.564010 0.488200 0.497780 1.409950
O10   O     O_3   0.841140 0.563630 0.511980 -0.368028
C5    C     C_R   0.837811 0.112317 0.613788 -0.157432
H1    H     H_    0.832922 0.161716 0.520611 0.096687
H2    H     H_    0.831120 0.988079 0.697571 0.121138
H3    H     H_    0.829664 0.034070 0.589022 0.112192
C6    C     C_R   0.850732 0.285777 0.605394 -0.031938
C7    C     C_R   0.877149 0.319022 0.931112 0.126931
C8    C     C_R   0.878936 0.393903 0.893346 -0.110286
C9    C     C_R   0.870126 0.370099 0.823661 -0.212805
C10   C     C_R   0.859064 0.269791 0.788036 0.079096
C11   C     C_R   0.854204 0.192869 0.825594 0.049030
C12   C     C_R   0.854009 0.243302 0.716350 0.081252
C13   C     C_R   0.843842 0.140546 0.684037 0.140308
C14   C     C_R   0.838917 0.066548 0.721892 -0.205870
C15   C     C_R   0.843877 0.092011 0.791363 -0.181458
C16   C     C_R   0.858153 0.315061 0.675310 -0.212150
C17   C     C_R   0.840277 0.184594 0.574733 -0.178456
C18   C     C_R   0.862586 0.217883 0.896765 -0.132540
H4    H     H_    0.864412 0.394356 0.695739 0.094443
H5    H     H_    0.873475 0.432759 0.799279 0.117342
H6    H     H_    0.888446 0.472276 0.917058 0.130663
H7    H     H_    0.839952 0.031270 0.817963 0.118103
C19   C     C_2   0.990837 0.302736 0.279944 -0.204194
C20   C     C_2   0.830256 0.319701 0.317226 0.262242
H8    H     H_    0.126543 0.335820 0.300887 0.111478
C21   C     C_2   0.994801 0.245605 0.208954 -0.107537
C22   C     C_2   0.867620 0.172609 0.182622 -0.259648
H9    H     H_    0.111560 0.262572 0.178111 0.127578
H10   H     H_    0.756968 0.149934 0.212814 0.182676
C23   C     C_2   0.204061 0.790502 0.781536 -0.137351
C24   C     C_2   0.362421 0.815535 0.820103 -0.306142
H11   H     H_    0.066134 0.820576 0.799954 0.130953
H12   H     H_    0.500917 0.785655 0.802803 0.128625
C25   C     C_2   0.203830 0.721982 0.714111 -0.129891
C26   C     C_2   0.362373 0.684273 0.680270 -0.312986
H13   H     H_    0.062736 0.702730 0.691276 0.134591
H14   H     H_    0.505454 0.703120 0.700973 0.124694
C27   C     C_R   0.238113 0.877579 0.382647 -0.163986
H15   H     H_    0.244193 0.829350 0.475957 0.106735
H16   H     H_    0.161578 0.991653 0.296407 0.124457
H17   H     H_    0.183298 0.950594 0.405540 0.110119
C28   C     C_R   0.345247 0.714589 0.394888 -0.037734
C29   C     C_R   0.420818 0.687255 0.072692 -0.168392
C30   C     C_R   0.440726 0.612408 0.109039 -0.126073
C31   C     C_R   0.412850 0.633137 0.177998 -0.152681
C32   C     C_R   0.358614 0.729755 0.212301 0.077104
C33   C     C_R   0.325297 0.804356 0.173847 0.069907
C34   C     C_R   0.336215 0.754920 0.283376 0.070129
C35   C     C_R   0.266323 0.851131 0.313323 0.147408
C36   C     C_R   0.222412 0.920139 0.273965 -0.212942
C37   C     C_R   0.256677 0.898606 0.205725 -0.211827
C38   C     C_R   0.378440 0.687899 0.325948 -0.219748
C39   C     C_R   0.275103 0.809304 0.422957 -0.169199
C40   C     C_R   0.363346 0.783184 0.104267 -0.077970
H18   H     H_    0.430162 0.613345 0.307011 0.106091
H19   H     H_    0.451089 0.670433 0.019580 0.104117
H20   H     H_    0.432844 0.571568 0.202788 0.115962
H21   H     H_    0.481405 0.537926 0.083786 0.124824
H22   H     H_    0.225720 0.956350 0.178125 0.138977
O11   O     O_R   0.203230 0.917310 0.915020 -0.538243
O12   O     O_R   0.535500 0.888690 0.048040 -0.539439
O13   O     O_R   0.711080 0.082610 0.085000 -0.536777
C41   C     C_R   0.367443 0.862216 0.065153 0.687140
O14   O     O_R   0.532630 0.905370 0.913230 -0.548345
O15   O     O_R   0.708190 0.099410 0.949230 -0.538775
C42   C     C_R   0.363633 0.884204 0.886560 0.744438
O16   O     O_R   0.206120 0.900510 0.050790 -0.541596
O17   O     O_3   0.375360 0.063570 0.011990 -0.371113
V3    V     V_3+5 0.648170 0.988200 0.997780 1.418570
O18   O     O_R   0.038240 0.111390 0.951940 -0.542016
C43   C     C_R   0.869417 0.138179 0.935401 0.683693
O19   O     O_R   0.041120 0.094710 0.086750 -0.545459
C44   C     C_R   0.874155 0.115082 0.113349 0.708959
V4    V     V_3+5 0.148810 0.011930 0.002180 1.414749
O20   O     O_3   0.871750 0.936430 0.988010 -0.371904
O21   O     O_3   0.652371 0.292129 0.286008 -0.551013
C45   C     C_3   0.535378 0.239930 0.324031 0.121810
H23   H     H_    0.432591 0.293035 0.353336 0.154089
H24   H     H_    0.618994 0.202700 0.358932 0.084325
C46   C     C_3   0.416141 0.160335 0.277147 -0.773188
H25   H     H_    0.496894 0.089272 0.264512 0.206505
H26   H     H_    0.280916 0.146824 0.302206 0.181391
H27   H     H_    0.379050 0.185231 0.230168 0.243550
C47   C     C_3   0.890681 0.343966 0.007610 -0.358756
C48   C     C_3   0.916720 0.454772 0.040351 -0.763285
H28   H     H_    0.052108 0.484877 0.023467 0.229728
H29   H     H_    0.792071 0.498575 0.028328 0.221080
H30   H     H_    0.925887 0.463227 0.095646 0.227745
H31   H     H_    0.758079 0.315921 0.027798 0.174646
H32   H     H_    0.015057 0.303690 0.023889 0.178784

loop_
_geom_bond_atom_site_label_1
_geom_bond_atom_site_label_2
_ccdc_geom_bond_type
O19   C44   A    
C21   C22   D    
C46   H25   S    
O15   V3    S    
O12   V3    S    
C46   H27   S    
C23   C24   D    
C6    C16   A    
O16   V4    S    
C22   H10   S    
C4    C6    S    
C13   C14   A    
O12   C41   A    
O5    C3    A    
C19   C20   D    
C27   C35   A    
C29   H19   S    
H15   C39   S    
C31   H20   S    
V2    O10   S    
C8    H6    S    
C5    H3    S    
C32   C34   A    
C27   C39   A    
C48   H28   S    
O15   C43   A    
O8    V2    S    
O17   V3    S    
O13   C44   A    
C25   H13   S    
C26   H14   S    
C8    C9    A    
O1    V2    S    
O7    V1    S    
C30   H21   S    
C1    O6    A    
C47   H31   S    
C30   C31   A    
O9    C4    A    
C21   H9    S    
C40   C41   S    
V3    O20   S    
C28   C38   A    
C47   H32   S    
C20   O21   S    
H16   C36   S    
C34   C38   A    
C23   H11   S    
O17   V4    S    
C6    C17   A    
C24   H12   S    
C9    H5    S    
C33   C37   A    
C12   C16   A    
C9    C10   A    
C19   C21   S    
O21   C45   S    
O4    C2    A    
O18   V4    S    
O11   C42   A    
O13   V3    S    
C29   C30   A    
O18   C43   A    
C48   H30   S    
C33   C40   A    
C1    C26   S    
C31   C32   A    
O2    C1    A    
C18   C43   S    
C14   C15   A    
C24   C42   S    
C41   O16   A    
C11   C18   A    
C47   C48   S    
C23   C25   S    
C45   H24   S    
C16   H4    S    
O3    C4    A    
C11   C15   A    
O6    V2    S    
O9    V2    S    
H1    C17   S    
C28   C39   A    
O2    V1    S    
O14   C42   A    
C48   H29   S    
C27   H17   S    
C7    C18   A    
C7    C47   S    
O1    C2    A    
C5    C13   A    
O5    V1    S    
O8    C3    A    
C46   H26   S    
C29   C40   A    
C10   C12   A    
C38   H18   S    
C35   C36   A    
C3    C20   S    
O19   V4    S    
C10   C11   A    
O4    V1    S    
C36   C37   A    
O3    V1    S    
V1    O10   S    
C19   H8    S    
O14   V3    S    
C45   H23   S    
C37   H22   S    
C45   C46   S    
O7    V2    S    
C32   C33   A    
O11   V4    S    
C34   C35   A    
C22   C44   S    
C15   H7    S    
C25   C26   D    
C12   C13   A    
C5    C17   A    
C7    C8    A    
V4    O20   S    
C2    C28   S    
H2    C14   S    
