data_mof_unit_67377.cif
_audit_creation_date              2013-03-05T16:10:58-0500
_audit_creation_method            fapswitch 2.2
_symmetry_space_group_name_H-M    P1
_symmetry_Int_Tables_number       1
_space_group_crystal_system       triclinic
_cell_length_a                    17.95239
_cell_length_b                    28.71501
_cell_length_c                    8.759108
_cell_angle_alpha                 90.601971
_cell_angle_beta                  105.589544
_cell_angle_gamma                 90.1699
_cell_volume                      4348.91610166

loop_
_atom_site_label
_atom_site_type_symbol
_atom_site_description
_atom_site_fract_x
_atom_site_fract_y
_atom_site_fract_z
_atom_type_partial_charge
P1    P     P_3+3 0.171820 0.553000 0.158080 0.623506
P2    P     P_3+3 0.171820 0.447000 0.658080 0.560627
P3    P     P_3+3 0.671820 0.053000 0.158080 0.586947
P4    P     P_3+3 0.671820 0.947000 0.658080 0.545940
O1    O     O_2   0.163830 0.569270 0.980510 -0.319346
O2    O     O_2   0.163830 0.430730 0.480510 -0.281499
O3    O     O_2   0.663830 0.069270 0.980510 -0.383761
O4    O     O_2   0.663830 0.930730 0.480510 -0.279153
O5    O     O_3   0.095420 0.524330 0.188510 -0.361815
O6    O     O_3   0.095420 0.475670 0.688510 -0.468498
O7    O     O_3   0.595420 0.024330 0.188510 -0.327007
O8    O     O_3   0.595420 0.975670 0.688510 -0.436657
O9    O     O_3   0.028940 0.612400 0.656050 -0.429179
O10   O     O_3   0.028940 0.387600 0.156050 -0.407833
O11   O     O_3   0.528940 0.112400 0.656050 -0.417761
O12   O     O_3   0.528940 0.887600 0.156050 -0.403272
O13   O     O_2   0.158866 0.646052 0.838271 -0.359988
O14   O     O_2   0.156161 0.348581 0.331994 -0.293251
O15   O     O_2   0.654700 0.150012 0.844087 -0.397162
O16   O     O_2   0.657056 0.850534 0.340864 -0.307012
O17   O     O_3   0.258854 0.522648 0.230975 -0.566404
O18   O     O_3   0.254968 0.480918 0.741015 -0.582740
O19   O     O_3   0.759976 0.024518 0.233768 -0.597485
O20   O     O_3   0.740315 0.992184 0.718979 -0.629033
O21   O     O_3   0.062872 0.708389 0.695894 -0.558540
O22   O     O_3   0.053530 0.291534 0.151323 -0.529207
O23   O     O_3   0.560361 0.208863 0.676302 -0.534603
O24   O     O_3   0.562155 0.791890 0.160091 -0.526030
H1    H     H_    0.971971 0.679157 0.766847 0.147552
H2    H     H_    0.954751 0.309835 0.213143 0.163687
H3    H     H_    0.470060 0.180951 0.752210 0.143420
H4    H     H_    0.457652 0.820685 0.167818 0.158925
C1    C     C_3   0.939020 0.744867 0.657443 -0.180213
C2    C     C_3   0.928293 0.257006 0.025707 -0.104894
C3    C     C_3   0.436991 0.245803 0.636920 -0.155906
C4    C     C_3   0.440214 0.751173 0.084737 -0.112875
H5    H     H_    0.935977 0.756839 0.774976 0.130995
H6    H     H_    0.963539 0.225325 0.053748 0.195860
H7    H     H_    0.439579 0.258908 0.756081 0.093258
H8    H     H_    0.450546 0.737643 0.204641 0.187757
P5    P     P_3+3 0.829210 0.554130 0.532500 0.464711
P6    P     P_3+3 0.829210 0.445870 0.032500 0.479571
P7    P     P_3+3 0.329210 0.054130 0.532500 0.452403
P8    P     P_3+3 0.329210 0.945870 0.032500 0.464929
P9    P     P_3+3 0.895776 0.653530 0.029929 0.600554
P10   P     P_3+3 0.901366 0.343167 0.530194 0.600655
P11   P     P_3+3 0.393856 0.152091 0.023142 0.613962
P12   P     P_3+3 0.400738 0.844202 0.539640 0.560248
O25   O     O_2   0.837400 0.570350 0.710350 -0.348007
O26   O     O_2   0.837400 0.429650 0.210350 -0.317601
O27   O     O_2   0.337400 0.070350 0.710350 -0.365169
O28   O     O_2   0.337400 0.929650 0.210350 -0.316939
O29   O     O_3   0.972820 0.612580 0.035550 -0.292998
O30   O     O_3   0.972820 0.387420 0.535550 -0.374047
O31   O     O_3   0.472820 0.112580 0.035550 -0.310515
O32   O     O_3   0.472820 0.887420 0.535550 -0.349739
O33   O     O_2   0.835661 0.642795 0.872071 -0.323627
O34   O     O_2   0.838617 0.355762 0.377703 -0.245866
O35   O     O_2   0.335160 0.139781 0.865095 -0.303267
O36   O     O_2   0.340549 0.858889 0.386907 -0.260707
O37   O     O_3   0.745813 0.517637 0.489184 -0.619361
O38   O     O_3   0.745379 0.480989 0.988572 -0.630445
O39   O     O_3   0.249896 0.016176 0.499229 -0.618389
O40   O     O_3   0.249961 0.983769 0.013984 -0.629362
O41   O     O_3   0.921355 0.711669 0.998772 -0.585425
O42   O     O_3   0.925374 0.285744 0.479402 -0.535457
O43   O     O_3   0.418079 0.209960 0.984935 -0.563426
O44   O     O_3   0.422377 0.788481 0.473331 -0.513169
C5    C     C_3   0.993952 0.725691 0.099251 0.955483
C6    C     C_3   0.000243 0.267887 0.555468 0.981711
C7    C     C_3   0.487158 0.226622 0.092091 0.977881
C8    C     C_3   0.494558 0.767347 0.549470 0.993838
C9    C     C_3   0.001768 0.780875 0.086963 0.387176
C10   C     C_3   0.998103 0.213801 0.514128 0.552383
C11   C     C_3   0.488955 0.281523 0.076732 0.390744
C12   C     C_3   0.478863 0.714338 0.573747 0.525510
H9    H     H_    0.026865 0.785669 0.986291 -0.011642
H10   H     H_    0.055955 0.199088 0.570820 -0.055297
H11   H     H_    0.510476 0.287905 0.971630 0.001509
H12   H     H_    0.534079 0.697604 0.638550 0.018311
C13   C     C_3   0.746296 0.512604 0.866672 0.932517
C14   C     C_3   0.747264 0.484458 0.369585 0.925075
C15   C     C_3   0.234243 0.010873 0.875408 0.899364
C16   C     C_3   0.261495 0.982021 0.392772 0.914990
H13   H     H_    0.783460 0.499718 0.793333 0.041438
H14   H     H_    0.784342 0.497298 0.296351 0.045097
H15   H     H_    0.278378 0.006175 0.812593 0.042575
H16   H     H_    0.275577 0.999554 0.291667 0.046113
C17   C     C_3   0.666345 0.521368 0.746463 -0.003013
C18   C     C_3   0.668084 0.474231 0.247142 0.057847
C19   C     C_3   0.156775 0.997034 0.756880 0.023303
C20   C     C_3   0.188801 0.953922 0.318239 0.113146
H17   H     H_    0.621611 0.535070 0.798127 0.104047
H18   H     H_    0.622967 0.460650 0.297283 0.100678
H19   H     H_    0.110083 0.997391 0.817882 0.115307
H20   H     H_    0.174426 0.931598 0.407280 0.115842
H21   H     H_    0.677091 0.549434 0.669938 0.148792
H22   H     H_    0.678711 0.445447 0.169589 0.186786
H23   H     H_    0.142990 0.023297 0.660799 0.148636
H24   H     H_    0.202000 0.929460 0.229525 0.159163
Ba1   Ba    Ba6+2 0.000400 0.534870 0.845190 1.695596
Ba2   Ba    Ba6+2 0.000400 0.465130 0.345190 1.710446
Ba3   Ba    Ba6+2 0.500400 0.034870 0.845190 1.689398
Ba4   Ba    Ba6+2 0.500400 0.965130 0.345190 1.688745
C21   C     C_3   0.273587 0.485724 0.138830 0.547038
C22   C     C_3   0.283299 0.510416 0.642908 0.512187
C23   C     C_3   0.774118 0.984511 0.156200 0.485051
C24   C     C_3   0.793325 0.999122 0.628836 0.466998
H25   H     H_    0.239806 0.488319 0.013140 0.089133
H26   H     H_    0.253629 0.505381 0.515445 0.035318
H27   H     H_    0.748818 0.986511 0.025895 0.077536
H28   H     H_    0.773234 0.983374 0.508966 0.092733
C25   C     C_3   0.361376 0.487729 0.152678 0.547983
C26   C     C_3   0.370461 0.500169 0.674887 0.585224
C27   C     C_3   0.863218 0.981486 0.197378 0.530975
C28   C     C_3   0.872634 0.978679 0.719670 0.544022
H29   H     H_    0.391270 0.490051 0.281882 0.091311
H30   H     H_    0.393687 0.496855 0.805859 0.089756
H31   H     H_    0.883709 0.984219 0.329540 0.106785
H32   H     H_    0.871190 0.974459 0.844773 0.098496
O45   O     O_3   0.904940 0.476110 0.001150 -0.457484
O46   O     O_3   0.904940 0.523890 0.501150 -0.446730
O47   O     O_3   0.404940 0.976110 0.001150 -0.469283
O48   O     O_3   0.404940 0.023890 0.501150 -0.431982
P13   P     P_3+3 0.100635 0.345613 0.163748 0.598009
P14   P     P_3+3 0.103160 0.654298 0.674626 0.542197
P15   P     P_3+3 0.604311 0.847286 0.169832 0.576104
P16   P     P_3+3 0.603246 0.154434 0.673660 0.540577
C29   C     C_3   0.983551 0.700079 0.669814 0.459297
C30   C     C_3   0.973055 0.299606 0.106165 0.416809
C31   C     C_3   0.480958 0.200556 0.651538 0.436419
C32   C     C_3   0.482441 0.797150 0.092699 0.380078
H33   H     H_    0.960205 0.680599 0.556224 0.146017
H34   H     H_    0.955699 0.327385 0.016876 0.042497
H35   H     H_    0.457312 0.179992 0.540777 0.142705
H36   H     H_    0.471746 0.810314 0.970671 0.080198
H37   H     H_    0.967168 0.772943 0.605906 0.171020
H38   H     H_    0.914168 0.260786 0.895802 0.142965
H39   H     H_    0.463159 0.272557 0.576089 0.179737
H40   H     H_    0.462068 0.725269 0.012531 0.188065
C33   C     C_2   0.860541 0.381959 0.790794 -0.592638
C34   C     C_2   0.864929 0.621772 0.307276 -0.415412
C35   C     C_2   0.361033 0.866286 0.830593 -0.607986
C36   C     C_2   0.356959 0.116456 0.287341 -0.429926
C37   C     C_R   0.140554 0.614971 0.404911 0.250526
C38   C     C_R   0.144173 0.387272 0.905635 0.190579
C39   C     C_R   0.642541 0.115785 0.403085 0.257592
C40   C     C_R   0.655295 0.891390 0.923621 0.237397
C41   C     C_2   0.745054 0.364742 0.880121 0.577326
C42   C     C_2   0.739059 0.630297 0.369939 0.504249
C43   C     C_2   0.232104 0.866885 0.866079 0.623270
C44   C     C_2   0.236442 0.129031 0.365973 0.478083
C45   C     C_2   0.813895 0.390870 0.905370 0.102503
C46   C     C_2   0.812737 0.608960 0.408042 0.092542
C47   C     C_2   0.305819 0.887773 0.910047 0.161985
C48   C     C_2   0.308582 0.106337 0.397282 0.130421
C49   C     C_2   0.850720 0.343304 0.696113 0.236880
C50   C     C_2   0.844181 0.654840 0.193078 0.217933
C51   C     C_2   0.338642 0.841811 0.689564 0.238772
C52   C     C_2   0.337766 0.150683 0.177814 0.255260
C53   C     C_3   0.794649 0.307896 0.717868 -0.209664
C54   C     C_3   0.780340 0.687175 0.199091 -0.094564
C55   C     C_3   0.259300 0.823330 0.641104 -0.112431
C56   C     C_3   0.279516 0.185699 0.194222 -0.073896
C57   C     C_3   0.727650 0.328172 0.759275 -0.058587
C58   C     C_3   0.717100 0.664746 0.247212 -0.064535
C59   C     C_3   0.220609 0.824143 0.769319 -0.075533
C60   C     C_3   0.216534 0.166155 0.251530 -0.104568
C61   C     C_2   0.766758 0.269337 0.591592 0.356687
C62   C     C_2   0.748553 0.723943 0.067193 0.383605
C63   C     C_2   0.246791 0.777140 0.540868 0.404310
C64   C     C_2   0.249090 0.223005 0.063573 0.398764
C65   C     C_2   0.224314 0.735343 0.592805 -0.025200
C66   C     C_2   0.224910 0.266696 0.097043 -0.159660
C67   C     C_2   0.747561 0.225885 0.633508 -0.060162
C68   C     C_2   0.726278 0.768107 0.101179 -0.188742
C69   C     C_R   0.267729 0.673648 0.412348 0.259031
C70   C     C_R   0.241355 0.315155 0.858093 -0.028571
C71   C     C_R   0.771212 0.172946 0.412304 0.347397
C72   C     C_R   0.744796 0.816587 0.860725 0.005026
C73   C     C_R   0.215375 0.688315 0.507577 -0.205442
C74   C     C_R   0.202481 0.307745 0.983588 -0.079883
C75   C     C_R   0.723767 0.185068 0.520315 -0.247570
C76   C     C_R   0.706805 0.809780 0.989610 -0.028135
C77   C     C_R   0.250482 0.632946 0.301618 0.315300
C78   C     C_R   0.232461 0.358402 0.760135 0.344245
C79   C     C_R   0.753306 0.133505 0.298441 0.303364
C80   C     C_R   0.735404 0.860201 0.763465 0.359403
C81   C     C_R   0.186319 0.607157 0.287466 0.060125
C82   C     C_R   0.181833 0.391131 0.775488 0.157960
C83   C     C_R   0.687794 0.108024 0.283533 0.031989
C84   C     C_R   0.690731 0.894544 0.790707 0.158716
C85   C     C_R   0.156711 0.652220 0.518407 0.228692
C86   C     C_R   0.155288 0.348583 0.010891 0.206789
C87   C     C_R   0.661647 0.150764 0.524181 0.194923
C88   C     C_R   0.662122 0.851276 0.022054 0.161284
H41   H     H_    0.889671 0.411591 0.759509 0.156481
H42   H     H_    0.913170 0.598972 0.308539 0.209770
H43   H     H_    0.416481 0.878592 0.876207 0.122344
H44   H     H_    0.403586 0.092722 0.284903 0.196398
H45   H     H_    0.208339 0.735701 0.703115 0.189780
H46   H     H_    0.221698 0.273383 0.216290 0.189615
H47   H     H_    0.752351 0.219470 0.757714 0.161766
H48   H     H_    0.726163 0.775586 0.222224 0.176487
O49   O     O_3   0.635116 0.481929 0.655626 -0.645753
C89   C     C_3   0.575024 0.496729 0.524866 -0.269633
H49   H     H_    0.597689 0.518545 0.443689 0.210822
H50   H     H_    0.532215 0.518195 0.562002 0.199596
H51   H     H_    0.544370 0.465862 0.460194 0.192969
O50   O     O_3   0.637307 0.513452 0.159105 -0.622497
C90   C     C_3   0.575799 0.498533 0.029893 -0.274976
H52   H     H_    0.531627 0.478233 0.067496 0.198696
H53   H     H_    0.597036 0.476398 0.946376 0.185718
H54   H     H_    0.547097 0.529434 0.967216 0.201233
O51   O     O_3   0.162633 0.952618 0.691952 -0.664947
C91   C     C_3   0.090099 0.938811 0.593629 -0.025605
H55   H     H_    0.070653 0.962248 0.490775 0.191437
H56   H     H_    0.046684 0.938214 0.660103 0.163181
H57   H     H_    0.094253 0.902805 0.549577 0.165562
O52   O     O_3   0.127939 0.984907 0.252580 -0.628763
C92   C     C_3   0.077826 0.964803 0.116147 -0.228498
H58   H     H_    0.048677 0.933797 0.146715 0.235806
H59   H     H_    0.108809 0.955426 0.027036 0.186780
H60   H     H_    0.033298 0.990366 0.060654 0.207499
N1    N     N_R   0.252393 0.443082 0.205974 0.180224
O53   O     O_R   0.182550 0.440166 0.218790 -0.316152
O54   O     O_R   0.303765 0.414181 0.285347 -0.412476
N2    N     N_R   0.275173 0.558523 0.693208 0.166382
O55   O     O_R   0.291041 0.592845 0.612409 -0.419776
O56   O     O_R   0.271110 0.567297 0.836251 -0.326597
N3    N     N_R   0.741453 0.945148 0.220662 0.183414
O57   O     O_R   0.669302 0.947118 0.217961 -0.306183
O58   O     O_R   0.784056 0.912886 0.304188 -0.400448
N4    N     N_R   0.800535 0.049439 0.611273 0.195750
O59   O     O_R   0.836758 0.065021 0.512543 -0.329267
O60   O     O_R   0.787026 0.078031 0.716847 -0.424213
O61   O     O_3   0.376955 0.526404 0.067164 -0.603428
C93   C     C_3   0.442033 0.551802 0.154917 -0.122953
H61   H     H_    0.462922 0.574424 0.073151 0.181667
H62   H     H_    0.490025 0.529276 0.218522 0.114230
H63   H     H_    0.426050 0.574545 0.242436 0.216400
O62   O     O_3   0.381056 0.458751 0.594727 -0.580711
C94   C     C_3   0.451242 0.437539 0.675421 -0.235296
H64   H     H_    0.446149 0.421229 0.785689 0.168161
H65   H     H_    0.499544 0.462633 0.710601 0.138299
H66   H     H_    0.466376 0.410614 0.597334 0.179375
O63   O     O_3   0.892352 0.017606 0.120209 -0.661994
C95   C     C_3   0.953107 0.041826 0.228223 -0.110809
H67   H     H_    0.979994 0.066391 0.161570 0.173411
H68   H     H_    0.998605 0.017821 0.293687 0.179910
H69   H     H_    0.931004 0.062219 0.314701 0.233948
O64   O     O_3   0.883070 0.935447 0.649929 -0.599621
C96   C     C_3   0.935922 0.907804 0.759923 -0.127087
H70   H     H_    0.906654 0.888401 0.834766 0.224886
H71   H     H_    0.983587 0.928407 0.838631 0.080819
H72   H     H_    0.960415 0.881705 0.693270 0.126039
N5    N     N_R   0.388421 0.445572 0.091145 0.189382
O65   O     O_R   0.350535 0.427680 0.955950 -0.479588
O66   O     O_R   0.451184 0.425583 0.172695 -0.466616
N6    N     N_R   0.411009 0.538782 0.624243 0.205375
O67   O     O_R   0.392198 0.551231 0.477039 -0.399841
O68   O     O_R   0.458574 0.564832 0.729013 -0.425885
N7    N     N_R   0.888566 0.936801 0.150588 0.208124
O69   O     O_R   0.847239 0.915573 0.024681 -0.541020
O70   O     O_R   0.940000 0.913433 0.254004 -0.424874
N8    N     N_R   0.937435 0.010055 0.719980 0.220802
O71   O     O_R   0.965652 0.011644 0.598145 -0.444434
O72   O     O_R   0.960280 0.040797 0.833218 -0.398686
N9    N     N_R   0.861428 0.735712 0.558698 0.235583
O73   O     O_R   0.838029 0.755995 0.423276 -0.502368
O74   O     O_R   0.821532 0.701183 0.590323 -0.407294
N10   N     N_R   0.856608 0.252388 0.071711 0.250158
O75   O     O_R   0.809372 0.287126 0.057852 -0.382915
O76   O     O_R   0.843425 0.215408 0.143334 -0.364342
N11   N     N_R   0.356420 0.237650 0.551193 0.260705
O77   O     O_R   0.319266 0.268394 0.452670 -0.455096
O78   O     O_R   0.320668 0.200235 0.575273 -0.404693
N12   N     N_R   0.357393 0.758256 0.020823 0.245827
O79   O     O_R   0.322987 0.792178 0.073275 -0.362148
O80   O     O_R   0.315927 0.727240 0.926732 -0.411217
N13   N     N_R   0.054632 0.805150 0.224147 0.221414
O81   O     O_R   0.080989 0.785745 0.361323 -0.432552
O82   O     O_R   0.063863 0.849871 0.217163 -0.396268
N14   N     N_R   0.943991 0.187456 0.580122 0.253346
O83   O     O_R   0.944595 0.142190 0.575245 -0.307787
O84   O     O_R   0.904756 0.207660 0.666284 -0.455365
N15   N     N_R   0.544308 0.306124 0.208122 0.208204
O85   O     O_R   0.552049 0.294866 0.355185 -0.407027
O86   O     O_R   0.570711 0.346415 0.179638 -0.354094
N16   N     N_R   0.426523 0.707889 0.673548 0.242374
O87   O     O_R   0.414246 0.666321 0.719420 -0.279549
O88   O     O_R   0.394384 0.743256 0.722777 -0.459603
O89   O     O_3   0.692899 0.377037 0.965821 -0.567136
C97   C     C_3   0.615860 0.373017 0.871237 -0.140499
H73   H     H_    0.597650 0.335859 0.854480 0.148638
H74   H     H_    0.607845 0.390248 0.754626 0.118156
H75   H     H_    0.577480 0.390953 0.932728 0.180064
O90   O     O_3   0.680314 0.610629 0.422422 -0.648936
C98   C     C_3   0.678299 0.633685 0.563304 -0.082257
H76   H     H_    0.677109 0.671889 0.550480 0.158356
H77   H     H_    0.728031 0.623929 0.660769 0.230455
H78   H     H_    0.626146 0.622640 0.597891 0.131395
O91   O     O_3   0.174041 0.887189 0.921424 -0.617884
C99   C     C_3   0.111753 0.856301 0.907622 -0.166701
H79   H     H_    0.132083 0.824543 0.976716 0.186008
H80   H     H_    0.082972 0.847448 0.781665 0.106554
H81   H     H_    0.068512 0.873185 0.957367 0.180374
O92   O     O_3   0.176716 0.108005 0.412131 -0.663736
C100  C     C_3   0.172518 0.128032 0.556561 -0.007581
H82   H     H_    0.172835 0.166718 0.553707 0.149415
H83   H     H_    0.220028 0.115731 0.655008 0.235678
H84   H     H_    0.118292 0.116303 0.582147 0.151989
O93   O     O_3   0.306038 0.616853 0.231988 -0.563756
C101  C     C_3   0.320119 0.650394 0.128134 0.062388
H85   H     H_    0.267788 0.657549 0.034791 0.184222
H86   H     H_    0.362501 0.636834 0.067713 0.164697
H87   H     H_    0.342125 0.683277 0.190179 0.176727
O94   O     O_3   0.273403 0.365328 0.648361 -0.539934
C102  C     C_3   0.346027 0.343816 0.694713 0.075609
H88   H     H_    0.339573 0.306319 0.710874 0.163632
H89   H     H_    0.381855 0.358549 0.807775 0.150933
H90   H     H_    0.376184 0.348709 0.601015 0.147546
O95   O     O_3   0.815992 0.115401 0.253457 -0.576469
C103  C     C_3   0.809943 0.121197 0.091313 0.191876
H91   H     H_    0.768761 0.148330 0.035769 0.131600
H92   H     H_    0.796703 0.087592 0.027332 0.186851
H93   H     H_    0.867130 0.131425 0.077648 0.124920
O96   O     O_3   0.770803 0.867930 0.643557 -0.577600
C104  C     C_3   0.811978 0.829482 0.614490 0.090189
H94   H     H_    0.771863 0.800087 0.573562 0.151613
H95   H     H_    0.857923 0.820014 0.721592 0.095732
H96   H     H_    0.839681 0.838612 0.519772 0.191247
O97   O     O_3   0.076767 0.587434 0.393531 -0.613881
C105  C     C_3   0.097399 0.551635 0.503709 0.109323
H97   H     H_    0.132797 0.562827 0.622309 0.109609
H98   H     H_    0.128447 0.523850 0.460224 0.093213
H99   H     H_    0.043193 0.537964 0.521465 0.208540
O98   O     O_3   0.110252 0.427117 0.939853 -0.616844
C106  C     C_3   0.030305 0.423379 0.881714 0.117667
H100  H     H_    0.007525 0.388045 0.884487 0.087232
H101  H     H_    0.006763 0.436646 0.762094 0.135724
H102  H     H_    0.008469 0.445665 0.959394 0.198749
O99   O     O_3   0.579585 0.087862 0.394150 -0.620591
C107  C     C_3   0.602556 0.052194 0.504800 0.142338
H103  H     H_    0.638692 0.063774 0.622962 0.121844
H104  H     H_    0.635366 0.025108 0.461357 0.109027
H105  H     H_    0.548980 0.037665 0.523282 0.200881
O100  O     O_3   0.611448 0.928921 0.942498 -0.596938
C108  C     C_3   0.533775 0.918717 0.872304 0.110642
H106  H     H_    0.522322 0.880997 0.856187 0.046623
H107  H     H_    0.510076 0.935076 0.758966 0.138226
H108  H     H_    0.501121 0.935335 0.945204 0.169853
N17   N     N_R   0.744218 0.282158 0.428396 0.235117
O101  O     O_R   0.700800 0.318165 0.384597 -0.334375
O102  O     O_R   0.775716 0.262601 0.327714 -0.319514
N18   N     N_R   0.724314 0.707826 0.907441 0.241065
O103  O     O_R   0.756405 0.724267 0.803375 -0.383769
O104  O     O_R   0.663998 0.680802 0.862733 -0.466902
N19   N     N_R   0.246003 0.781810 0.377270 0.241371
O105  O     O_R   0.211838 0.817213 0.297405 -0.333282
O106  O     O_R   0.289148 0.755905 0.314790 -0.381260
N20   N     N_R   0.229200 0.207713 0.902734 0.240010
O107  O     O_R   0.266027 0.223786 0.805884 -0.359796
O108  O     O_R   0.174056 0.177314 0.853357 -0.441855
O109  O     O_3   0.050414 0.701815 0.041244 -0.657243
C109  C     C_3   0.126526 0.716827 0.111692 -0.157854
H109  H     H_    0.165628 0.689490 0.092861 0.169280
H110  H     H_    0.137607 0.722295 0.240214 0.140299
H111  H     H_    0.140958 0.748213 0.053108 0.170032
O110  O     O_3   0.055121 0.292181 0.494210 -0.636437
C110  C     C_3   0.128808 0.270966 0.534852 -0.125929
H112  H     H_    0.143213 0.255086 0.653192 0.159964
H113  H     H_    0.174065 0.296995 0.539624 0.228836
H114  H     H_    0.133007 0.245186 0.442716 0.152863
O111  O     O_3   0.549307 0.204529 0.047008 -0.668566
C111  C     C_3   0.622704 0.223028 0.124093 -0.117733
H115  H     H_    0.667066 0.198508 0.106778 0.178587
H116  H     H_    0.630707 0.227389 0.253221 0.157088
H117  H     H_    0.633349 0.256205 0.069379 0.183784
O112  O     O_3   0.540690 0.770884 0.441334 -0.653710
C112  C     C_3   0.619801 0.761586 0.507976 -0.113786
H118  H     H_    0.631114 0.738482 0.610992 0.141156
H119  H     H_    0.649917 0.794703 0.546451 0.210980
H120  H     H_    0.644285 0.745733 0.416248 0.170587
N21   N     N_R   0.999078 0.712007 0.262270 0.186468
O113  O     O_R   0.962670 0.735210 0.346129 -0.466798
O114  O     O_R   0.019967 0.670329 0.306560 -0.451042
N22   N     N_R   0.019875 0.274288 0.728830 0.155618
O115  O     O_R   0.026809 0.315898 0.787592 -0.536290
O116  O     O_R   0.047049 0.240222 0.824449 -0.424413
N23   N     N_R   0.486840 0.214506 0.253150 0.187927
O117  O     O_R   0.433150 0.231406 0.310207 -0.489172
O118  O     O_R   0.522548 0.177670 0.317368 -0.454422
N24   N     N_R   0.533458 0.789726 0.702047 0.141551
O119  O     O_R   0.568705 0.828808 0.698341 -0.517078
O120  O     O_R   0.553385 0.765589 0.831433 -0.474970
O121  O     O_3   0.930081 0.804507 0.037894 -0.666939
C113  C     C_3   0.895660 0.811163 0.163092 0.140206
H121  H     H_    0.935187 0.823416 0.276615 0.193744
H122  H     H_    0.867834 0.778708 0.180505 0.144376
H123  H     H_    0.850472 0.837775 0.130280 0.169095
O122  O     O_3   0.977661 0.207487 0.347695 -0.601570
C114  C     C_3   0.016537 0.169133 0.302748 -0.102874
H124  H     H_    0.014706 0.137694 0.373759 0.159032
H125  H     H_    0.076571 0.179122 0.307710 0.136794
H126  H     H_    0.988389 0.159051 0.178624 0.154074
O123  O     O_3   0.413337 0.301213 0.037385 -0.676575
C115  C     C_3   0.391546 0.324277 0.162583 0.126350
H127  H     H_    0.346153 0.349701 0.110089 0.155771
H128  H     H_    0.437101 0.344865 0.245508 0.199622
H129  H     H_    0.365628 0.299838 0.229140 0.169988
O124  O     O_3   0.445082 0.692638 0.425748 -0.626355
C116  C     C_3   0.496709 0.661286 0.383736 -0.190374
H130  H     H_    0.502010 0.629351 0.456064 0.202223
H131  H     H_    0.553167 0.677941 0.391256 0.134347
H132  H     H_    0.474417 0.651137 0.257986 0.136372
O125  O     O_3   0.778604 0.555142 0.934326 -0.632432
C117  C     C_3   0.735329 0.575622 0.028884 -0.155919
H133  H     H_    0.673071 0.569685 0.996923 0.157317
H134  H     H_    0.737020 0.613093 0.012975 0.170146
H135  H     H_    0.758786 0.564347 0.151473 0.135182
O126  O     O_3   0.779019 0.442529 0.439985 -0.631052
C118  C     C_3   0.733787 0.422661 0.531646 -0.076701
H136  H     H_    0.670925 0.422867 0.485517 0.142282
H137  H     H_    0.750261 0.437440 0.651586 0.114723
H138  H     H_    0.743368 0.385644 0.534177 0.184012
O127  O     O_3   0.236595 0.058888 0.915561 -0.653325
C119  C     C_3   0.178490 0.071030 0.989712 -0.234527
H139  H     H_    0.120159 0.070578 0.904812 0.181366
H140  H     H_    0.188350 0.107289 0.029801 0.201468
H141  H     H_    0.180515 0.049573 0.095338 0.186594
O128  O     O_3   0.322929 0.951839 0.462538 -0.613537
C120  C     C_3   0.334812 0.947302 0.625215 -0.030435
H142  H     H_    0.354591 0.978897 0.694419 0.146986
H143  H     H_    0.386806 0.927342 0.665963 0.095015
H144  H     H_    0.283701 0.931363 0.649999 0.090379

loop_
_geom_bond_atom_site_label_1
_geom_bond_atom_site_label_2
_geom_bond_distance
_ccdc_geom_bond_type
O127  C119  1.411775 S    
C23   N3    1.458656 S    
C34   H42   1.084963 S    
C91   H57   1.109492 S    
P5    O37   1.777800 S    
Ba3   O47   2.989914 S    
P7    O39   1.749636 S    
Ba4   O47   3.060196 S    
C62   C68   1.384167 D    
O97   C105  1.398656 S    
P8    O40   1.767364 S    
C63   C65   1.384760 D    
P9    O33   1.535762 D    
C42   O90   1.380228 S    
N14   O83   1.300223 A    
C114  H125  1.103830 S    
O37   C14   1.414101 S    
P5    C46   1.902717 S    
O14   P13   1.542708 D    
O10   Ba2   2.889453 S    
C65   H45   1.079203 S    
P4    C84   1.887186 S    
C19   O51   1.406734 S    
C3    H39   1.111658 S    
O12   Ba4   2.889453 S    
C99   H81   1.098680 S    
C17   O49   1.402670 S    
C44   C48   1.412429 A    
C1    H37   1.112165 S    
C103  H91   1.099266 S    
C6    C10   1.589022 S    
N15   O86   1.300707 A    
C74   C86   1.503001 S    
C43   C47   1.405656 A    
C36   C52   1.359841 D    
C39   O99   1.368262 S    
O22   C30   1.412145 S    
C111  H117  1.109760 S    
C116  H131  1.104939 S    
C3    N11   1.456495 S    
C2    N10   1.454278 S    
C30   H34   1.108438 S    
C33   H41   1.073243 S    
C34   C50   1.364806 D    
P5    O25   1.589514 D    
N2    O55   1.294098 A    
N17   O102  1.293200 A    
C95   H68   1.109527 S    
C118  H138  1.076778 S    
C93   H62   1.106334 S    
O95   C103  1.406674 S    
P2    C82   1.897526 S    
C56   C60   1.467164 A    
C89   H49   1.107681 S    
H2    C30   1.110210 S    
C101  H85   1.088627 S    
C16   O128  1.412616 S    
C78   C82   1.339973 D    
O21   P14   1.744500 S    
O23   P16   1.746969 S    
O91   C99   1.403899 S    
C36   H44   1.085495 S    
O44   C8    1.428587 S    
C120  H144  1.097832 S    
O19   C23   1.387039 S    
C9    O121  1.419663 S    
C6    O110  1.425846 S    
O4    Ba4   3.026779 S    
C70   C74   1.468663 S    
C29   H33   1.114127 S    
C33   C49   1.360817 D    
O128  C120  1.390509 S    
O38   C13   1.412161 S    
C115  H128  1.102157 S    
N9    O74   1.296541 A    
C112  H118  1.100203 S    
O90   C98   1.403331 S    
P7    C48   1.895293 S    
P1    Ba1   3.560876 S    
C67   C75   1.511338 S    
P3    Ba3   3.560876 S    
C68   C76   1.533805 S    
C5    O109  1.424514 S    
C16   H16   1.109317 S    
P7    Ba3   3.573517 S    
O111  C111  1.408681 S    
C100  H82   1.111459 S    
C15   C19   1.543337 S    
P8    O47   1.696001 S    
Ba1   O46   3.052615 S    
O1    Ba1   3.012940 S    
O39   C16   1.400393 S    
O109  C109  1.404063 S    
C105  H99   1.098007 S    
O42   C6    1.429450 S    
C103  H93   1.104355 S    
C43   C59   1.466248 A    
P4    Ba4   3.571945 S    
O100  C108  1.393290 S    
C63   N19   1.436928 S    
O2    Ba2   3.026779 S    
P3    O7    1.680595 S    
N24   O119  1.291683 A    
P11   O35   1.534658 D    
C70   C78   1.501273 S    
N5    O66   1.299654 A    
N19   O105  1.298871 A    
C9    H9    1.102370 S    
O11   Ba3   2.913834 S    
C101  H86   1.106561 S    
C53   C57   1.466777 A    
C110  H112  1.102638 S    
O112  C112  1.410316 S    
N21   O114  1.287506 A    
C102  H89   1.104821 S    
C108  H106  1.102376 S    
P14   C85   1.872387 S    
C116  H130  1.109806 S    
C66   C74   1.533435 S    
O110  C110  1.415639 S    
C41   O89   1.392469 S    
C92   H58   1.102628 S    
C21   C25   1.548692 S    
O124  C116  1.409329 S    
C38   O98   1.365560 S    
C91   H56   1.091247 S    
C28   N8    1.468722 S    
C4    C32   1.512044 S    
C96   H70   1.098798 S    
N20   O107  1.295227 A    
P2    Ba2   3.571945 S    
C42   C58   1.444435 A    
C20   H20   1.097038 S    
N5    O65   1.296576 A    
C14   O126  1.409097 S    
C49   C53   1.477966 A    
P4    O4    1.588206 D    
C41   C45   1.408278 A    
C13   O125  1.405485 S    
C10   O122  1.413948 S    
H1    C29   1.109731 S    
C39   C83   1.503218 S    
N22   O115  1.288337 A    
C112  H120  1.108732 S    
C21   N1    1.456920 S    
Ba2   O45   3.060196 S    
P6    O38   1.770836 S    
C12   N16   1.457827 S    
O24   P15   1.750887 S    
C53   C61   1.540581 S    
P8    O28   1.599329 D    
C99   H80   1.111643 S    
P9    O29   1.808975 S    
O3    Ba3   3.012940 S    
O61   C93   1.410011 S    
P10   O34   1.545206 D    
C104  H95   1.106837 S    
O52   C92   1.405459 S    
C64   C66   1.382865 D    
C117  H134  1.087778 S    
C100  H83   1.099400 S    
C24   N4    1.463646 S    
C41   C57   1.455234 A    
O16   P15   1.543909 D    
C105  H97   1.106009 S    
N10   O75   1.296551 A    
C79   O95   1.389034 S    
C2    H38   1.103838 S    
C28   H32   1.110917 S    
O24   C32   1.402951 S    
P5    O46   1.697174 S    
C36   C48   1.489951 S    
P2    O18   1.760153 S    
O89   C97   1.411970 S    
C117  H135  1.095543 S    
C98   H77   1.096009 S    
C35   C47   1.487603 S    
C32   H36   1.104910 S    
C110  H114  1.107000 S    
N18   O104  1.299520 A    
C34   C46   1.497186 S    
C109  H111  1.105652 S    
C4    N12   1.456797 S    
N8    O72   1.300797 A    
P6    O26   1.599329 D    
C25   H29   1.115785 S    
C26   O62   1.413941 S    
C108  H108  1.084225 S    
C27   H31   1.118304 S    
P9    O41   1.773376 S    
O126  C118  1.409529 S    
C113  H122  1.087426 S    
C56   C64   1.564842 S    
P4    O8    1.681833 S    
C73   C85   1.497229 S    
C119  H139  1.109469 S    
O122  C114  1.413564 S    
C9    N13   1.481874 S    
N23   O118  1.291854 A    
C21   H25   1.108382 S    
C94   H66   1.108792 S    
C106  H101  1.092194 S    
C23   H27   1.111387 S    
C12   H12   1.114360 S    
O96   C104  1.389329 S    
C96   H72   1.107515 S    
C77   C81   1.344188 D    
Ba4   O48   2.979434 S    
C62   N18   1.421070 S    
N13   O82   1.298510 A    
C80   C84   1.332378 D    
N14   O84   1.296610 A    
O121  C113  1.407656 S    
C7    N23   1.458030 S    
C33   C45   1.490473 S    
C11   H11   1.106636 S    
C69   C73   1.474068 S    
N1    O54   1.301789 A    
C51   C55   1.468493 A    
C17   H17   1.094533 S    
C98   H78   1.105318 S    
C61   N17   1.429567 S    
C10   N14   1.468603 S    
C72   C76   1.481732 S    
C106  H102  1.077885 S    
C43   O91   1.389517 S    
C107  H103  1.110504 S    
N10   O76   1.292097 A    
C11   N15   1.474801 S    
N12   O79   1.299272 A    
O64   C96   1.409889 S    
C16   C20   1.518251 S    
C19   H23   1.113883 S    
C13   H13   1.105245 S    
P6    O45   1.696001 S    
P1    C81   1.890113 S    
C40   C84   1.472502 S    
C15   H15   1.087243 S    
Ba1   Ba2   4.796516 S    
C64   N20   1.421527 S    
C68   H48   1.080116 S    
N11   O77   1.295823 A    
P16   C87   1.886846 S    
N2    O56   1.296620 A    
N17   O101  1.294652 A    
N7    O69   1.296791 A    
C118  H137  1.092763 S    
O92   C100  1.404635 S    
C93   H63   1.097880 S    
N4    O60   1.301452 A    
P1    O1    1.598039 D    
C52   C56   1.486344 A    
P10   O42   1.787301 S    
C92   H60   1.102827 S    
P3    O3    1.598039 D    
O25   Ba1   3.030037 S    
C97   H73   1.111628 S    
P4    O20   1.761647 S    
C89   H50   1.099705 S    
O13   P14   1.532593 D    
C71   C79   1.477317 S    
O27   Ba3   3.030037 S    
C94   H64   1.103295 S    
O15   P16   1.536659 D    
C66   H46   1.076744 S    
C69   C77   1.488350 S    
N16   O87   1.300326 A    
C109  H109  1.094974 S    
C72   C80   1.506355 S    
C54   C58   1.462855 A    
O29   Ba1   2.894262 S    
O5    Ba2   2.995522 S    
C120  H143  1.074969 S    
C44   O92   1.382726 S    
C75   C87   1.493186 S    
C5    C9    1.597723 S    
O7    Ba4   2.995522 S    
O20   C24   1.405281 S    
C55   C63   1.564686 S    
C37   C85   1.427353 A    
C119  H141  1.109484 S    
C8    C12   1.574175 S    
C13   C17   1.558043 S    
C101  H87   1.102085 S    
C65   C73   1.523074 S    
N9    O73   1.292608 A    
C25   N5    1.456718 S    
Ba3   O48   3.052615 S    
C44   C60   1.449530 A    
C18   H18   1.092683 S    
C27   O63   1.416923 S    
C114  H126  1.103825 S    
P1    O5    1.680595 S    
O32   Ba4   2.918906 S    
C97   H75   1.107174 S    
C5    N21   1.463941 S    
N6    O67   1.296416 A    
C14   H14   1.106128 S    
Ba1   O45   2.989914 S    
C24   H28   1.105670 S    
O22   P13   1.754313 S    
C3    H7    1.094879 S    
C98   H76   1.103631 S    
O40   C15   1.412708 S    
C90   H52   1.103996 S    
C54   C62   1.565211 S    
C107  H105  1.099132 S    
P10   O30   1.794205 S    
O62   C94   1.411778 S    
C61   C67   1.373123 D    
N3    O58   1.302372 A    
P12   O44   1.775874 S    
N24   O120  1.301089 A    
O8    Ba3   2.984882 S    
O9    P14   1.766109 S    
O26   Ba2   3.015827 S    
C116  H132  1.101789 S    
O11   P16   1.770897 S    
C22   N2    1.465134 S    
N4    O59   1.296000 A    
C3    C31   1.510861 S    
C95   H67   1.108829 S    
N21   O113  1.288803 A    
C1    C29   1.505763 S    
C93   H61   1.108255 S    
O28   Ba4   3.015827 S    
C37   C81   1.494708 S    
O30   Ba2   2.918906 S    
O6    Ba1   2.984882 S    
C11   O123  1.427756 S    
C15   O127  1.417021 S    
C35   C51   1.376457 D    
C14   C18   1.558374 S    
C38   C86   1.431100 A    
C24   C28   1.552651 S    
C37   O97   1.370438 S    
C67   H47   1.085795 S    
C76   C88   1.505038 S    
P15   C88   1.868202 S    
C8    O112  1.420038 S    
P7    O27   1.589514 D    
O93   C101  1.399849 S    
N20   O108  1.298423 A    
P13   C86   1.862938 S    
O41   C5    1.417098 S    
P5    Ba1   3.573517 S    
O43   C7    1.417468 S    
C1    H5    1.097232 S    
C102  H88   1.097319 S    
C115  H127  1.103473 S    
N22   O116  1.302610 A    
C10   H10   1.110657 S    
Ba3   Ba4   4.796516 S    
C112  H119  1.096579 S    
Ba2   O46   2.979434 S    
C26   N6    1.461207 S    
O17   C21   1.394269 S    
C7    C11   1.584604 S    
O99   C107  1.402473 S    
P1    O17   1.758450 S    
O23   C31   1.402365 S    
C104  H94   1.100417 S    
P3    O19   1.751638 S    
C114  H124  1.107053 S    
O51   C91   1.407658 S    
O21   C29   1.399602 S    
C6    N22   1.473068 S    
O125  C117  1.404905 S    
P8    Ba4   3.561771 S    
N23   O117  1.292621 A    
O49   C89   1.416004 S    
O10   P13   1.754716 S    
C22   C26   1.543511 S    
N11   O78   1.297745 A    
C31   H35   1.111415 S    
C78   O94   1.388631 S    
C105  H98   1.096655 S    
O31   Ba3   2.894262 S    
C20   O52   1.412445 S    
C40   C88   1.431793 A    
C106  H100  1.095756 S    
C110  H113  1.094535 S    
H3    C31   1.111430 S    
O123  C115  1.418136 S    
C39   C87   1.425352 A    
C79   C83   1.358647 D    
C95   H69   1.108016 S    
C7    O111  1.427931 S    
C25   O61   1.414499 S    
C102  H90   1.107784 S    
C108  H107  1.082213 S    
C40   O100  1.370994 S    
C113  H123  1.098913 S    
P2    O2    1.588206 D    
P6    Ba2   3.561771 S    
P11   O43   1.774267 S    
O12   P15   1.763515 S    
C119  H140  1.093829 S    
P12   O36   1.540370 D    
C71   C75   1.472989 S    
P11   C52   1.893456 S    
P12   C51   1.939130 S    
C80   O96   1.385288 S    
C4    H8    1.092098 S    
P6    C45   1.898886 S    
C91   H55   1.109735 S    
N6    O68   1.300569 A    
C118  H136  1.091724 S    
C18   O50   1.400449 S    
C28   O64   1.412890 S    
C94   H65   1.101882 S    
N13   O81   1.299276 A    
O18   C22   1.400802 S    
P10   C49   1.910203 S    
C19   H19   1.108562 S    
C17   H21   1.102691 S    
C111  H116  1.106872 S    
C55   C59   1.470738 A    
O94   C102  1.404199 S    
P3    C83   1.891475 S    
C96   H71   1.108539 S    
C115  H129  1.096031 S    
C90   H54   1.102342 S    
N1    O53   1.291103 A    
N19   O106  1.294406 A    
C4    H40   1.110153 S    
C23   C27   1.545178 S    
C26   H30   1.115529 S    
C27   N7    1.454022 S    
C103  H92   1.103362 S    
C99   H79   1.107232 S    
C90   H53   1.107282 S    
C107  H104  1.101650 S    
C120  H142  1.089700 S    
N15   O85   1.302276 A    
C104  H96   1.109036 S    
N12   O80   1.295159 A    
O9    Ba1   2.913834 S    
P2    O6    1.681833 S    
H4    C32   1.112437 S    
C111  H115  1.104079 S    
C20   H24   1.114371 S    
P11   O31   1.799414 S    
C117  H133  1.089175 S    
C22   H26   1.107975 S    
C100  H84   1.108271 S    
P12   O32   1.797847 S    
C1    N9    1.450185 S    
C2    H6    1.101316 S    
P8    C47   1.956012 S    
P9    C50   1.900537 S    
O63   C95   1.412615 S    
C35   H43   1.027882 S    
C77   O93   1.379870 S    
C8    N24   1.471175 S    
C92   H59   1.104967 S    
N7    O70   1.300092 A    
C97   H74   1.113930 S    
C89   H51   1.108296 S    
N18   O103  1.294347 A    
C12   O124  1.412371 S    
N16   O88   1.295462 A    
O50   C90   1.413869 S    
C109  H110  1.098751 S    
N8    O71   1.299608 A    
C50   C54   1.488689 A    
C2    C30   1.520019 S    
O98   C106  1.391356 S    
C42   C46   1.417080 A    
N3    O57   1.290554 A    
C113  H121  1.108163 S    
C38   C82   1.478296 S    
P7    O48   1.697174 S    
C18   H22   1.113469 S    
