data_mof_unit_47951.cif
_audit_creation_date              2012-10-26T19:52:23-0400
_audit_creation_method            fapswitch 2.2
_symmetry_space_group_name_H-M    P1
_symmetry_Int_Tables_number       1
_space_group_crystal_system       triclinic
_cell_length_a                    9.631726
_cell_length_b                    10.8338
_cell_length_c                    13.517659
_cell_angle_alpha                 92.784823
_cell_angle_beta                  73.869389
_cell_angle_gamma                 91.782508
_cell_volume                      1353.1833067

loop_
_atom_site_label
_atom_site_type_symbol
_atom_type_description
_atom_site_fract_x
_atom_site_fract_y
_atom_site_fract_z
_atom_type_partial_charge
C1    C     C_R   0.500296 0.737058 0.503070 0.596045
C2    C     C_R   0.378708 0.497909 0.812812 0.033768
C3    C     C_R   0.436704 0.931722 0.444613 -0.119785
C4    C     C_R   0.423067 0.503046 0.699507 0.546731
C5    C     C_R   0.500180 0.869993 0.507312 -0.001007
C6    C     C_R   0.551644 0.941768 0.580158 0.452631
C7    C     C_R   0.551305 0.072071 0.580077 0.258220
C8    C     C_R   0.490968 0.130903 0.510577 -0.031588
C9    C     C_R   0.428481 0.055914 0.448141 -0.019669
C10   C     C_3   0.349013 0.053727 0.367986 0.754788
C11   C     C_3   0.361467 0.912215 0.362662 0.385414
C12   C     C_R   0.441354 0.505712 0.976697 0.087250
C13   C     C_R   0.939542 0.402550 0.456342 0.191393
C14   C     C_R   0.910680 0.589025 0.552733 0.339713
C15   C     C_R   0.055513 0.584409 0.558122 0.386538
C16   C     C_R   0.497169 0.263177 0.502576 0.595174
C17   C     C_R   0.087523 0.404595 0.453501 0.104283
C18   C     C_3   0.129860 0.364810 0.342187 -0.189444
C19   C     C_3   0.970969 0.356251 0.347241 0.252709
C20   C     C_R   0.576918 0.507799 0.301056 0.590742
C21   C     C_R   0.792453 0.592322 0.031331 0.254762
C22   C     C_R   0.618501 0.528921 0.189375 -0.005822
C23   C     C_R   0.471841 0.538977 0.873044 0.019465
C24   C     C_R   0.249121 0.435319 0.859668 -0.055681
C25   C     C_R   0.217147 0.404871 0.962256 -0.065432
C26   C     C_R   0.313970 0.435711 0.019395 -0.012539
C27   C     C_R   0.544251 0.536698 0.031978 0.010180
C28   C     C_R   0.683062 0.582975 0.980034 -0.058681
C29   C     C_R   0.704743 0.625963 0.880960 -0.055335
C30   C     C_R   0.595670 0.611765 0.832038 -0.066603
C31   C     C_R   0.510070 0.529003 0.138530 0.295823
C32   C     C_R   0.761434 0.559067 0.134219 0.359301
Cl1   Cl    Cl    0.617171 0.157779 0.672427 -0.427355
Cl2   Cl    Cl    0.816756 0.721176 0.607850 -0.396119
Cl3   Cl    Cl    0.112385 0.688418 0.644440 -0.401814
Cl4   Cl    Cl    0.969092 0.644987 0.969499 -0.457831
Cu1   Cu    Cu3+1 0.359330 0.500020 0.500010 1.143979
Cu2   Cu    Cu3+1 0.640670 0.499980 0.499990 1.149927
F1    F     F_    0.868272 0.567355 0.181956 -0.579422
F2    F     F_    0.208435 0.093082 0.407344 -0.521352
F3    F     F_    0.425141 0.109907 0.278769 -0.618425
F4    F     F_    0.229489 0.851692 0.398581 -0.505320
F5    F     F_    0.922611 0.235381 0.340092 -0.541185
F6    F     F_    0.371151 0.545604 0.193457 -0.630884
F7    F     F_    0.590041 0.886980 0.656232 -0.531722
H1    H     H_    0.431645 0.872241 0.289130 0.130551
H2    H     H_    0.184143 0.439931 0.293405 0.194279
H3    H     H_    0.185626 0.275485 0.325190 0.260442
H4    H     H_    0.938674 0.419148 0.295677 0.200498
H5    H     H_    0.803216 0.674481 0.842120 0.230787
H6    H     H_    0.175872 0.403562 0.815402 0.166899
H7    H     H_    0.289921 0.399242 0.095333 0.186373
H8    H     H_    0.119674 0.352143 0.996423 0.168980
H9    H     H_    0.608034 0.657814 0.761757 0.225750
N1    N     N_R   0.852320 0.499070 0.499340 -0.295402
N2    N     N_R   0.148230 0.499110 0.499340 -0.269755
O1    O     O_R   0.381190 0.680360 0.500000 -0.433028
O2    O     O_R   0.618780 0.680320 0.499990 -0.440205
O3    O     O_R   0.323230 0.500000 0.650990 -0.481080
O4    O     O_R   0.560820 0.499960 0.650980 -0.500903
O5    O     O_R   0.381220 0.319680 0.500010 -0.489868
O6    O     O_R   0.618810 0.319640 0.500000 -0.443127
O7    O     O_R   0.439180 0.500040 0.349020 -0.450855
O8    O     O_R   0.676770 0.500000 0.349010 -0.476157

loop_
_geom_bond_atom_site_label_1
_geom_bond_atom_site_label_2
_ccdc_geom_bond_type
C20   O8    A    
Cu1   O5    S    
C14   Cl2   S    
C29   C30   A    
C3    C9    A    
C6    F7    S    
C26   H7    S    
C18   H3    S    
C30   H9    S    
C9    C10   S    
C19   H4    S    
C2    C4    S    
C12   C23   A    
C16   O6    A    
C13   C17   A    
C10   C11   S    
C18   H2    S    
C4    O4    A    
C24   H6    S    
C17   C18   S    
C7    C8    A    
C8    C16   S    
C21   Cl4   S    
C1    O2    A    
C15   N2    A    
C10   F3    S    
C7    Cl1   S    
C17   N2    A    
Cu1   O3    S    
C22   C32   A    
C20   O7    A    
C1    C5    S    
C4    O3    A    
C15   Cl3   S    
C28   C29   A    
Cu1   O7    S    
Cu1   Cu2   S    
C25   H8    S    
C14   N1    A    
C6    C7    A    
Cu2   O8    S    
C29   H5    S    
C2    C24   A    
C5    C6    A    
C21   C32   A    
Cu2   O4    S    
C31   F6    S    
C3    C11   S    
C16   O5    A    
C20   C22   S    
C12   C27   A    
C27   C31   A    
C23   C30   A    
C3    C5    A    
C2    C23   A    
C24   C25   A    
C11   F4    S    
C10   F2    S    
C18   C19   S    
C22   C31   A    
C32   F1    S    
C12   C26   A    
C27   C28   A    
C13   C19   S    
C14   C15   A    
C11   H1    S    
Cu2   O6    S    
C25   C26   A    
Cu2   O2    S    
Cu1   N2    S    
C21   C28   A    
Cu1   O1    S    
Cu2   N1    S    
C19   F5    S    
C8    C9    A    
C13   N1    A    
C1    O1    A    
