data_mof_unit_33210.cif
_audit_creation_date              2013-03-05T16:32:58-0500
_audit_creation_method            fapswitch 2.2
_symmetry_space_group_name_H-M    P1
_symmetry_Int_Tables_number       1
_space_group_crystal_system       triclinic
_cell_length_a                    15.897198
_cell_length_b                    15.894341
_cell_length_c                    51.765402
_cell_angle_alpha                 90.008342
_cell_angle_beta                  89.999918
_cell_angle_gamma                 89.97482
_cell_volume                      13079.8467043

loop_
_atom_site_label
_atom_site_type_symbol
_atom_site_description
_atom_site_fract_x
_atom_site_fract_y
_atom_site_fract_z
_atom_type_partial_charge
Zn1   Zn    Zn3+2 0.900880 0.500000 0.727850 1.030898
Zn2   Zn    Zn3+2 0.099120 0.500000 0.272150 1.038624
Zn3   Zn    Zn3+2 0.500000 0.900880 0.727850 1.030341
Zn4   Zn    Zn3+2 0.500000 0.099120 0.272150 1.037117
Zn5   Zn    Zn3+2 0.099120 0.500000 0.727850 1.025924
Zn6   Zn    Zn3+2 0.900880 0.500000 0.272150 1.033467
Zn7   Zn    Zn3+2 0.500000 0.099120 0.727850 1.027375
Zn8   Zn    Zn3+2 0.500000 0.900880 0.272150 1.037182
Zn9   Zn    Zn3+2 0.400880 1.000000 0.227850 1.037579
Zn10  Zn    Zn3+2 0.599120 1.000000 0.772150 1.030772
Zn11  Zn    Zn3+2 1.000000 0.400880 0.227850 1.033760
Zn12  Zn    Zn3+2 0.000000 0.599120 0.772150 1.030511
Zn13  Zn    Zn3+2 0.599120 1.000000 0.227850 1.037103
Zn14  Zn    Zn3+2 0.400880 1.000000 0.772150 1.027271
Zn15  Zn    Zn3+2 1.000000 0.599120 0.227850 1.032662
Zn16  Zn    Zn3+2 1.000000 0.400880 0.772150 1.025574
C1    C     C_R   0.924952 0.517743 0.636260 -0.135471
C2    C     C_R   0.934049 0.459656 0.363113 -0.133012
C3    C     C_R   0.489316 0.923541 0.636166 -0.132098
C4    C     C_R   0.540699 0.934358 0.363100 -0.132939
C5    C     C_R   0.075237 0.482128 0.636311 -0.132721
C6    C     C_R   0.065984 0.540038 0.363136 -0.132838
C7    C     C_R   0.510515 0.076542 0.636183 -0.131360
C8    C     C_R   0.459274 0.065754 0.363087 -0.132932
C9    C     C_R   0.433300 0.039350 0.136910 -0.134313
C10   C     C_R   0.424140 0.984127 0.863718 -0.133058
C11   C     C_R   0.966156 0.433193 0.136507 -0.111008
C12   C     C_R   0.012270 0.424248 0.863853 -0.134015
C13   C     C_R   0.565582 0.959397 0.136846 -0.133243
C14   C     C_R   0.575407 0.015158 0.863818 -0.134434
C15   C     C_R   0.040344 0.568454 0.137137 -0.129243
C16   C     C_R   0.986198 0.576512 0.863697 -0.133343
C17   C     C_R   0.924572 0.514096 0.608914 -0.055743
C18   C     C_R   0.932934 0.462175 0.390458 -0.043270
C19   C     C_R   0.492068 0.923587 0.608816 -0.059383
C20   C     C_R   0.538127 0.933272 0.390441 -0.043170
C21   C     C_R   0.075696 0.485447 0.608975 -0.057316
C22   C     C_R   0.067125 0.537345 0.390479 -0.043277
C23   C     C_R   0.507691 0.076554 0.608836 -0.057559
C24   C     C_R   0.461854 0.066932 0.390427 -0.042973
C25   C     C_R   0.431647 0.036114 0.109576 -0.043462
C26   C     C_R   0.423681 0.987383 0.891064 -0.058595
C27   C     C_R   0.965500 0.434915 0.109191 -0.043788
C28   C     C_R   0.009251 0.424487 0.891214 -0.061772
C29   C     C_R   0.566237 0.961569 0.109503 -0.045638
C30   C     C_R   0.575526 0.011608 0.891165 -0.058755
C31   C     C_R   0.035324 0.572106 0.109837 -0.045248
C32   C     C_R   0.989206 0.576977 0.891036 -0.057941
O1    O     O_3   0.000000 0.500000 0.750000 -0.505449
O2    O     O_3   0.000000 0.500000 0.250000 -0.507698
O3    O     O_3   0.500000 0.000000 0.750000 -0.506577
O4    O     O_3   0.500000 1.000000 0.250000 -0.508092
O5    O     O_R   0.000000 0.430630 0.807650 -0.622981
O6    O     O_R   0.000000 0.569370 0.192350 -0.625827
O7    O     O_R   0.569370 0.000000 0.807650 -0.622311
O8    O     O_R   0.430630 0.000000 0.192350 -0.625261
O9    O     O_R   1.000000 0.569370 0.807650 -0.623227
O10   O     O_R   0.000000 0.430630 0.192350 -0.615928
O11   O     O_R   0.430630 0.000000 0.807650 -0.623314
O12   O     O_R   0.569370 0.000000 0.192350 -0.624670
O13   O     O_R   0.500000 0.930630 0.307650 -0.624929
O14   O     O_R   0.500000 0.069370 0.692350 -0.622916
O15   O     O_R   0.069370 0.500000 0.307650 -0.624880
O16   O     O_R   0.930630 0.500000 0.692350 -0.622783
O17   O     O_R   0.500000 0.069370 0.307650 -0.624951
O18   O     O_R   0.500000 0.930630 0.692350 -0.622221
O19   O     O_R   0.930630 0.500000 0.307650 -0.624193
O20   O     O_R   0.069370 0.500000 0.692350 -0.624154
C33   C     C_R   0.000166 0.499719 0.595344 0.164752
C34   C     C_R   0.000039 0.499704 0.404009 0.164344
C35   C     C_R   0.499872 0.000085 0.595269 0.171050
C36   C     C_R   0.499991 0.000124 0.403970 0.164195
C37   C     C_R   0.498648 0.998432 0.096004 0.164980
C38   C     C_R   0.499514 0.999413 0.904697 0.169010
C39   C     C_R   0.997712 0.505661 0.095982 0.163994
C40   C     C_R   0.999143 0.500911 0.904694 0.171413
O21   O     O_R   0.902350 0.666510 0.764820 -0.623616
O22   O     O_R   0.097650 0.333490 0.235180 -0.624723
O23   O     O_R   0.333490 0.902350 0.764820 -0.624061
O24   O     O_R   0.666510 0.097650 0.235180 -0.633068
O25   O     O_R   0.097650 0.333490 0.764820 -0.630197
O26   O     O_R   0.902350 0.666510 0.235180 -0.633469
O27   O     O_R   0.666510 0.097650 0.764820 -0.622692
O28   O     O_R   0.333490 0.902350 0.235180 -0.632727
O29   O     O_R   0.902350 0.333490 0.235180 -0.636083
O30   O     O_R   0.097650 0.666510 0.764820 -0.632459
O31   O     O_R   0.333490 0.097650 0.235180 -0.625897
O32   O     O_R   0.666510 0.902350 0.764820 -0.631812
O33   O     O_R   0.097650 0.666510 0.235180 -0.625077
O34   O     O_R   0.902350 0.333490 0.764820 -0.628847
O35   O     O_R   0.666510 0.902350 0.235180 -0.626214
O36   O     O_R   0.333490 0.097650 0.764820 -0.633535
O37   O     O_R   0.402350 0.166510 0.264820 -0.627087
O38   O     O_R   0.597650 0.833490 0.735180 -0.631952
O39   O     O_R   0.833490 0.402350 0.264820 -0.624735
O40   O     O_R   0.166510 0.597650 0.735180 -0.628762
O41   O     O_R   0.597650 0.833490 0.264820 -0.626781
O42   O     O_R   0.402350 0.166510 0.735180 -0.633550
O43   O     O_R   0.166510 0.597650 0.264820 -0.626489
O44   O     O_R   0.833490 0.402350 0.735180 -0.632304
O45   O     O_R   0.402350 0.833490 0.735180 -0.622472
O46   O     O_R   0.597650 0.166510 0.264820 -0.632906
O47   O     O_R   0.833490 0.597650 0.735180 -0.624149
O48   O     O_R   0.166510 0.402350 0.264820 -0.633959
O49   O     O_R   0.597650 0.166510 0.735180 -0.623574
O50   O     O_R   0.402350 0.833490 0.264820 -0.633112
O51   O     O_R   0.166510 0.402350 0.735180 -0.630998
O52   O     O_R   0.833490 0.597650 0.264820 -0.633458
O53   O     O_2   0.526076 0.143681 0.932118 -0.550007
O54   O     O_2   0.455430 0.858463 0.069041 -0.536708
O55   O     O_2   0.855088 0.530585 0.931818 -0.548805
O56   O     O_2   0.133883 0.451001 0.069488 -0.540629
O57   O     O_2   0.472477 0.854909 0.931961 -0.551008
O58   O     O_2   0.540982 0.138644 0.069254 -0.540092
O59   O     O_2   0.142628 0.471624 0.932157 -0.549095
O60   O     O_2   0.864669 0.565736 0.069092 -0.510963
O61   O     O_2   0.956276 0.639502 0.430875 -0.536094
O62   O     O_2   0.024679 0.354843 0.567931 -0.548704
O63   O     O_2   0.360738 0.954856 0.430787 -0.535610
O64   O     O_2   0.643347 0.030731 0.568077 -0.547565
O65   O     O_2   0.043703 0.359808 0.430849 -0.536277
O66   O     O_2   0.975957 0.644605 0.567930 -0.553541
O67   O     O_2   0.639162 0.045573 0.430802 -0.535086
O68   O     O_2   0.356407 0.969527 0.568054 -0.548526
C41   C     C_R   0.999892 0.500035 0.820422 0.832823
C42   C     C_R   0.000789 0.499960 0.179724 0.838125
C43   C     C_R   0.499981 0.999951 0.820418 0.829661
C44   C     C_R   0.499961 0.999954 0.179741 0.864847
C45   C     C_R   0.499998 0.000007 0.320252 0.866532
C46   C     C_R   0.499990 0.000000 0.679567 0.824194
C47   C     C_R   0.000001 0.499983 0.320259 0.865964
C48   C     C_R   0.000006 0.499979 0.679593 0.838470
C49   C     C_R   0.839727 0.660281 0.750000 0.867237
C50   C     C_R   0.160276 0.339719 0.249999 0.863351
C51   C     C_R   0.339721 0.839713 0.750000 0.866418
C52   C     C_R   0.660283 0.160286 0.250002 0.861121
C53   C     C_R   0.160272 0.339721 0.749999 0.866886
C54   C     C_R   0.839724 0.660279 0.250000 0.858364
C55   C     C_R   0.660280 0.160283 0.750000 0.866311
C56   C     C_R   0.339717 0.839716 0.250000 0.861149
C57   C     C_R   0.839724 0.339711 0.250001 0.871260
C58   C     C_R   0.160282 0.660286 0.750002 0.856634
C59   C     C_R   0.339726 0.160279 0.250001 0.881446
C60   C     C_R   0.660276 0.839720 0.749998 0.855724
C61   C     C_R   0.160281 0.660281 0.249999 0.883029
C62   C     C_R   0.839718 0.339717 0.750000 0.856670
C63   C     C_R   0.660275 0.839725 0.250000 0.881540
C64   C     C_R   0.339721 0.160277 0.749999 0.855951
C65   C     C_R   0.000057 0.499938 0.650401 -0.185875
C66   C     C_R   0.000008 0.499897 0.349205 -0.183958
C67   C     C_R   0.499947 0.000023 0.650336 -0.188232
C68   C     C_R   0.499987 0.000035 0.349184 -0.183431
C69   C     C_R   0.499687 0.999629 0.150798 -0.183098
C70   C     C_R   0.499857 0.999750 0.849630 -0.187518
C71   C     C_R   0.003234 0.500061 0.150762 -0.182574
C72   C     C_R   0.999476 0.500240 0.849636 -0.184750
C73   C     C_1   0.776603 0.276603 0.750001 -0.120992
C74   C     C_1   0.223392 0.723393 0.249999 -0.119997
C75   C     C_1   0.723391 0.776604 0.749997 -0.122713
C76   C     C_1   0.276614 0.223392 0.250001 -0.118633
C77   C     C_1   0.223395 0.723399 0.750003 -0.121553
C78   C     C_1   0.776615 0.276598 0.250001 -0.121945
C79   C     C_1   0.276603 0.223392 0.749997 -0.129822
C80   C     C_1   0.723388 0.776611 0.250001 -0.120103
C81   C     C_1   0.776607 0.723397 0.250000 -0.123923
C82   C     C_1   0.223384 0.276606 0.749998 -0.133864
C83   C     C_1   0.723399 0.223398 0.250003 -0.124761
C84   C     C_1   0.276611 0.776600 0.750000 -0.116258
C85   C     C_1   0.223391 0.276601 0.249998 -0.122842
C86   C     C_1   0.776614 0.723396 0.750000 -0.116967
C87   C     C_1   0.276602 0.776600 0.250000 -0.123791
C88   C     C_1   0.723392 0.223397 0.750000 -0.115952
C89   C     C_R   0.517027 0.071855 0.945703 0.575171
C90   C     C_R   0.474408 0.927664 0.055155 0.576788
C91   C     C_R   0.926590 0.521058 0.945533 0.573822
C92   C     C_R   0.067421 0.476640 0.055348 0.507422
C93   C     C_R   0.481215 0.926652 0.945613 0.574991
C94   C     C_R   0.522351 0.069563 0.055257 0.576567
C95   C     C_R   0.071007 0.482388 0.945727 0.576607
C96   C     C_R   0.930327 0.537240 0.055112 0.662572
C97   C     C_R   0.975766 0.570553 0.444821 0.579228
C98   C     C_R   0.017133 0.426867 0.554353 0.575751
C99   C     C_R   0.429404 0.975081 0.444757 0.578616
C100  C     C_R   0.572049 0.019711 0.554372 0.578152
C101  C     C_R   0.024270 0.428759 0.444807 0.578774
C102  C     C_R   0.983429 0.572553 0.554356 0.562466
C103  C     C_R   0.570520 0.025248 0.444766 0.578811
C104  C     C_R   0.427725 0.980548 0.554360 0.577596
N1    N     N_R   0.499301 0.999290 0.932697 -0.317914
N2    N     N_R   0.498526 0.998487 0.068050 -0.329431
N3    N     N_R   0.998892 0.501350 0.932682 -0.317921
N4    N     N_R   0.998609 0.506827 0.068037 -0.332630
N5    N     N_R   0.000018 0.499665 0.431970 -0.329258
N6    N     N_R   0.000289 0.499717 0.567334 -0.320645
N7    N     N_R   0.499970 0.000157 0.431925 -0.329721
N8    N     N_R   0.499880 0.000116 0.567291 -0.318337
C105  C     C_R   0.472622 0.926637 0.972856 -0.070472
C106  C     C_R   0.527002 0.070686 0.027885 -0.073385
C107  C     C_R   0.070574 0.474976 0.973005 -0.071206
C108  C     C_R   0.928325 0.537853 0.027692 -0.079829
C109  C     C_R   0.524918 0.071706 0.972966 -0.070810
C110  C     C_R   0.469741 0.926979 0.027775 -0.074431
C111  C     C_R   0.926767 0.530643 0.972755 -0.069747
C112  C     C_R   0.069100 0.473044 0.027956 -0.066603
C113  C     C_R   0.028601 0.427710 0.472189 -0.072572
C114  C     C_R   0.974689 0.572420 0.527118 -0.067762
C115  C     C_R   0.571489 0.029589 0.472151 -0.072921
C116  C     C_R   0.427760 0.972865 0.527083 -0.070717
C117  C     C_R   0.971512 0.571597 0.472203 -0.072910
C118  C     C_R   0.025701 0.426949 0.527109 -0.068737
C119  C     C_R   0.428425 0.970680 0.472139 -0.072973
C120  C     C_R   0.572054 0.027411 0.527097 -0.070956
C121  C     C_R   0.498676 0.999085 0.986680 -0.029661
C122  C     C_R   0.498486 0.998909 0.014105 -0.040301
C123  C     C_R   0.998696 0.503536 0.986664 -0.027629
C124  C     C_R   0.998719 0.504853 0.014104 -0.037251
C125  C     C_R   0.000088 0.499659 0.485914 -0.039627
C126  C     C_R   0.000156 0.499674 0.513339 -0.028791
C127  C     C_R   0.499944 0.000139 0.485877 -0.039716
C128  C     C_R   0.499919 0.000138 0.513317 -0.029050
C129  C     C_R   0.438107 0.857279 0.986482 -0.063290
C130  C     C_R   0.560167 0.140455 0.014005 -0.061496
C131  C     C_R   0.138984 0.439431 0.986815 -0.066460
C132  C     C_R   0.858834 0.570600 0.013527 -0.063638
C133  C     C_R   0.558812 0.141102 0.986725 -0.063977
C134  C     C_R   0.436306 0.857576 0.013767 -0.062043
C135  C     C_R   0.857901 0.566523 0.986282 -0.062202
C136  C     C_R   0.137934 0.437655 0.014086 -0.059144
C137  C     C_R   0.061496 0.357914 0.486154 -0.061620
C138  C     C_R   0.940620 0.641928 0.513463 -0.062564
C139  C     C_R   0.640853 0.063286 0.486110 -0.061833
C140  C     C_R   0.358658 0.938251 0.513356 -0.064216
C141  C     C_R   0.938644 0.641388 0.486181 -0.062308
C142  C     C_R   0.059651 0.357404 0.513437 -0.062888
C143  C     C_R   0.359070 0.936910 0.486081 -0.061536
C144  C     C_R   0.641189 0.061997 0.513385 -0.064566
C145  C     C_R   0.394119 0.788297 0.972561 0.184725
C146  C     C_R   0.433140 0.709861 0.969178 -0.109291
C147  C     C_R   0.391072 0.645132 0.956248 -0.160800
C148  C     C_R   0.309847 0.658276 0.946700 -0.074990
C149  C     C_R   0.270647 0.736274 0.950024 -0.070678
C150  C     C_R   0.312602 0.801236 0.962899 -0.122222
H1    H     H_    0.495884 0.699132 0.976571 0.116750
H2    H     H_    0.421374 0.584768 0.953658 0.122552
H3    H     H_    0.277278 0.608033 0.936743 0.184792
H4    H     H_    0.207776 0.746387 0.942625 0.174255
H5    H     H_    0.281749 0.861463 0.965398 0.125423
C151  C     C_R   0.604473 0.209869 0.027522 0.191220
C152  C     C_R   0.687494 0.198285 0.035998 -0.110647
C153  C     C_R   0.729087 0.262825 0.049115 -0.079448
C154  C     C_R   0.688175 0.339246 0.053760 -0.060911
C155  C     C_R   0.605708 0.351371 0.045139 -0.162431
C156  C     C_R   0.563851 0.286878 0.032044 -0.115848
H6    H     H_    0.719543 0.139168 0.032580 0.135475
H7    H     H_    0.792875 0.253247 0.055739 0.172008
H8    H     H_    0.720297 0.389084 0.064026 0.188412
H9    H     H_    0.574187 0.410623 0.048660 0.122816
H10   H     H_    0.500003 0.296605 0.025470 0.112166
C157  C     C_R   0.208162 0.395042 0.973088 0.184386
C158  C     C_R   0.286591 0.434029 0.969729 -0.107994
C159  C     C_R   0.351417 0.391784 0.956891 -0.158992
C160  C     C_R   0.338419 0.310398 0.947441 -0.077040
C161  C     C_R   0.260482 0.271187 0.950786 -0.072511
C162  C     C_R   0.195390 0.313335 0.963552 -0.119650
H11   H     H_    0.297218 0.496917 0.977041 0.116574
H12   H     H_    0.411735 0.422091 0.954288 0.121915
H13   H     H_    0.388732 0.277706 0.937546 0.183871
H14   H     H_    0.250510 0.208176 0.943473 0.172612
H15   H     H_    0.135175 0.282524 0.966043 0.125913
C163  C     C_R   0.787789 0.613853 0.026582 0.185477
C164  C     C_R   0.792531 0.700390 0.031705 -0.108170
C165  C     C_R   0.725476 0.741411 0.043793 -0.078768
C166  C     C_R   0.653692 0.696331 0.050924 -0.059119
C167  C     C_R   0.648276 0.610243 0.045609 -0.154517
C168  C     C_R   0.715008 0.569057 0.033364 -0.107628
H16   H     H_    0.847998 0.735808 0.026302 0.127937
H17   H     H_    0.729205 0.808108 0.047618 0.140757
H18   H     H_    0.602124 0.728240 0.060441 0.181681
H19   H     H_    0.592332 0.575551 0.050919 0.126976
H20   H     H_    0.710238 0.502605 0.029109 0.118829
C169  C     C_R   0.602598 0.210588 0.972981 0.184634
C170  C     C_R   0.563072 0.288784 0.969613 -0.108265
C171  C     C_R   0.605122 0.354132 0.956979 -0.157905
C172  C     C_R   0.686782 0.341820 0.947680 -0.076237
C173  C     C_R   0.726447 0.264037 0.950962 -0.070173
C174  C     C_R   0.684546 0.198481 0.963564 -0.119586
H21   H     H_    0.499992 0.298893 0.976819 0.115744
H22   H     H_    0.574464 0.414326 0.954426 0.121844
H23   H     H_    0.719328 0.392535 0.937947 0.183147
H24   H     H_    0.789661 0.254572 0.943757 0.172985
H25   H     H_    0.715800 0.138461 0.966058 0.125513
C175  C     C_R   0.391249 0.788245 0.027109 0.189554
C176  C     C_R   0.307664 0.799705 0.035074 -0.102892
C177  C     C_R   0.264965 0.734705 0.047646 -0.079041
C178  C     C_R   0.305453 0.658189 0.052406 -0.061387
C179  C     C_R   0.388574 0.646269 0.044355 -0.153877
C180  C     C_R   0.431321 0.710964 0.031636 -0.121107
H26   H     H_    0.275859 0.858880 0.031547 0.134100
H27   H     H_    0.200574 0.743789 0.053719 0.150738
H28   H     H_    0.272315 0.608087 0.062248 0.179826
H29   H     H_    0.419823 0.586903 0.047921 0.123978
H30   H     H_    0.495333 0.701052 0.025267 0.112232
C181  C     C_R   0.787584 0.607956 0.972244 0.183401
C182  C     C_R   0.709581 0.567448 0.969734 -0.110212
C183  C     C_R   0.643634 0.606956 0.956621 -0.161618
C184  C     C_R   0.655044 0.687136 0.946077 -0.077589
C185  C     C_R   0.732509 0.727898 0.948604 -0.070672
C186  C     C_R   0.798735 0.688484 0.961633 -0.118700
H31   H     H_    0.700135 0.505495 0.977912 0.117877
H32   H     H_    0.583658 0.575487 0.954664 0.121319
H33   H     H_    0.603854 0.717702 0.935972 0.185115
H34   H     H_    0.741241 0.789987 0.940453 0.177492
H35   H     H_    0.858574 0.720482 0.963491 0.127168
C187  C     C_R   0.207115 0.392507 0.027494 0.197651
C188  C     C_R   0.196744 0.308017 0.034659 -0.117349
C189  C     C_R   0.262187 0.264962 0.046921 -0.079274
C190  C     C_R   0.338135 0.305913 0.052095 -0.058437
C191  C     C_R   0.348943 0.389957 0.044851 -0.154164
C192  C     C_R   0.283728 0.433147 0.032503 -0.117820
H36   H     H_    0.138162 0.275732 0.030695 0.125993
H37   H     H_    0.253956 0.199884 0.052387 0.146914
H38   H     H_    0.388680 0.272428 0.061619 0.181783
H39   H     H_    0.407910 0.421505 0.048720 0.124328
H40   H     H_    0.292787 0.497834 0.026679 0.112099
C193  C     C_R   0.105784 0.288130 0.472786 0.189423
C194  C     C_R   0.189748 0.298328 0.465062 -0.101546
C195  C     C_R   0.231751 0.232834 0.452494 -0.079682
C196  C     C_R   0.190247 0.157038 0.447533 -0.060920
C197  C     C_R   0.106741 0.146369 0.455350 -0.154268
C198  C     C_R   0.064601 0.211630 0.468018 -0.120906
H41   H     H_    0.222378 0.356910 0.468767 0.135306
H42   H     H_    0.296390 0.240989 0.446583 0.149751
H43   H     H_    0.222883 0.106523 0.437715 0.182174
H44   H     H_    0.074755 0.087536 0.451629 0.123729
H45   H     H_    0.000205 0.202810 0.474167 0.113474
C199  C     C_R   0.897047 0.711248 0.527373 0.184322
C200  C     C_R   0.936160 0.789716 0.530513 -0.109640
C201  C     C_R   0.894504 0.854671 0.543480 -0.161084
C202  C     C_R   0.813623 0.841717 0.553317 -0.076014
C203  C     C_R   0.774326 0.763706 0.550225 -0.067751
C204  C     C_R   0.815848 0.698533 0.537304 -0.121239
H46   H     H_    0.998668 0.800302 0.522918 0.116961
H47   H     H_    0.924868 0.915054 0.545882 0.121437
H48   H     H_    0.781390 0.892119 0.563316 0.183004
H49   H     H_    0.711723 0.753737 0.557846 0.174189
H50   H     H_    0.784922 0.638292 0.534993 0.125167
C205  C     C_R   0.710693 0.107337 0.472724 0.190010
C206  C     C_R   0.700785 0.191398 0.465042 -0.103246
C207  C     C_R   0.766351 0.233126 0.452452 -0.079596
C208  C     C_R   0.841905 0.191232 0.447415 -0.060613
C209  C     C_R   0.852291 0.107633 0.455199 -0.154390
C210  C     C_R   0.786997 0.065791 0.467915 -0.119845
H51   H     H_    0.642377 0.224315 0.468803 0.133678
H52   H     H_    0.758435 0.297852 0.446577 0.149837
H53   H     H_    0.892465 0.223647 0.437569 0.182775
H54   H     H_    0.910939 0.075343 0.451419 0.124051
H55   H     H_    0.795619 0.001329 0.474057 0.113452
C211  C     C_R   0.289287 0.894467 0.527141 0.183022
C212  C     C_R   0.211338 0.934277 0.530700 -0.107858
C213  C     C_R   0.146367 0.892620 0.543627 -0.157446
C214  C     C_R   0.158734 0.811000 0.552962 -0.082349
C215  C     C_R   0.236174 0.770946 0.549404 -0.071835
C216  C     C_R   0.301418 0.812508 0.536552 -0.118818
H56   H     H_    0.201207 0.997352 0.523479 0.116409
H57   H     H_    0.086425 0.923556 0.546391 0.122152
H58   H     H_    0.108312 0.778781 0.562932 0.184626
H59   H     H_    0.245644 0.707740 0.556624 0.179942
H60   H     H_    0.361260 0.781059 0.533903 0.128455
C217  C     C_R   0.894240 0.711120 0.472827 0.189621
C218  C     C_R   0.810217 0.700885 0.465167 -0.103398
C219  C     C_R   0.768124 0.766309 0.452599 -0.079517
C220  C     C_R   0.809593 0.842078 0.447578 -0.061071
C221  C     C_R   0.893161 0.852783 0.455328 -0.154282
C222  C     C_R   0.935401 0.787582 0.467988 -0.119609
H61   H     H_    0.777614 0.642322 0.468920 0.133878
H62   H     H_    0.703443 0.758121 0.446731 0.149216
H63   H     H_    0.776888 0.892541 0.437761 0.181950
H64   H     H_    0.925123 0.911590 0.451556 0.123689
H65   H     H_    0.999863 0.796412 0.474073 0.113544
C223  C     C_R   0.103205 0.288054 0.527330 0.191536
C224  C     C_R   0.063874 0.209750 0.530581 -0.109219
C225  C     C_R   0.105412 0.144840 0.543598 -0.160404
C226  C     C_R   0.186407 0.157662 0.553364 -0.062107
C227  C     C_R   0.225949 0.235486 0.550142 -0.088414
C228  C     C_R   0.184536 0.300621 0.537176 -0.134985
H66   H     H_    0.001269 0.199279 0.523046 0.115799
H67   H     H_    0.074859 0.084600 0.546099 0.120242
H68   H     H_    0.218540 0.107302 0.563407 0.181531
H69   H     H_    0.288633 0.245363 0.557710 0.166067
H70   H     H_    0.215627 0.360740 0.534783 0.132596
C229  C     C_R   0.289402 0.892627 0.472676 0.189510
C230  C     C_R   0.299765 0.808733 0.464874 -0.102321
C231  C     C_R   0.234370 0.766781 0.452264 -0.078389
C232  C     C_R   0.158516 0.808274 0.447340 -0.060750
C233  C     C_R   0.147692 0.891713 0.455234 -0.154890
C234  C     C_R   0.212832 0.933786 0.467957 -0.120127
H71   H     H_    0.358401 0.776127 0.468547 0.134475
H72   H     H_    0.242654 0.702195 0.446290 0.150630
H73   H     H_    0.108070 0.775683 0.437492 0.182881
H74   H     H_    0.088829 0.923698 0.451536 0.123977
H75   H     H_    0.203874 0.998123 0.474177 0.113596
C235  C     C_R   0.710551 0.105770 0.527182 0.184526
C236  C     C_R   0.788477 0.065932 0.530756 -0.107559
C237  C     C_R   0.853434 0.107580 0.543696 -0.158966
C238  C     C_R   0.841091 0.189233 0.553016 -0.076871
C239  C     C_R   0.763680 0.229321 0.549438 -0.074895
C240  C     C_R   0.698440 0.187756 0.536581 -0.121078
H76   H     H_    0.798596 0.002836 0.523541 0.116440
H77   H     H_    0.913348 0.076608 0.546479 0.122307
H78   H     H_    0.891509 0.221452 0.562993 0.185873
H79   H     H_    0.754225 0.292550 0.556647 0.173771
H80   H     H_    0.638618 0.219228 0.533918 0.126828
C241  C     C_2   0.845137 0.525687 0.594020 0.974668
O69   O     O_2   0.798229 0.584653 0.598837 -0.588399
O70   O     O_R   0.825066 0.469723 0.574105 -0.818955
H81   H     H_    0.770404 0.484724 0.565129 0.333458
C242  C     C_2   0.862192 0.424906 0.405362 0.959953
O71   O     O_2   0.837930 0.353556 0.400629 -0.611128
O72   O     O_R   0.823551 0.471847 0.424887 -0.799587
H82   H     H_    0.775391 0.440797 0.433432 0.330014
C243  C     C_2   0.486458 0.843536 0.593890 0.966057
O73   O     O_2   0.431923 0.791837 0.598949 -0.585132
O74   O     O_R   0.542920 0.828212 0.573712 -0.820414
H83   H     H_    0.532111 0.772513 0.564765 0.334271
C244  C     C_2   0.576016 0.862871 0.405367 0.960176
O75   O     O_2   0.647617 0.839252 0.400672 -0.611141
O76   O     O_R   0.529373 0.823818 0.424868 -0.799335
H84   H     H_    0.560864 0.775962 0.433438 0.330044
C245  C     C_2   0.155253 0.472724 0.594267 0.965144
O77   O     O_2   0.175027 0.522266 0.577241 -0.646452
O78   O     O_R   0.206699 0.403503 0.599626 -0.756586
H85   H     H_    0.258432 0.401456 0.588190 0.345260
C246  C     C_2   0.137819 0.574636 0.405407 0.959929
O79   O     O_2   0.162117 0.645968 0.400671 -0.611759
O80   O     O_R   0.176348 0.527761 0.424963 -0.799286
H86   H     H_    0.224407 0.558873 0.433543 0.330398
C247  C     C_2   0.513240 0.156639 0.593931 0.962807
O81   O     O_2   0.567778 0.208340 0.598989 -0.587424
O82   O     O_R   0.456713 0.171993 0.573774 -0.822613
H87   H     H_    0.467472 0.227722 0.564843 0.331667
C248  C     C_2   0.423974 0.137384 0.405337 0.960146
O83   O     O_2   0.352371 0.160986 0.400638 -0.611203
O84   O     O_R   0.470628 0.176509 0.424826 -0.798965
H88   H     H_    0.439156 0.224419 0.433378 0.330112
C249  C     C_2   0.360714 0.073219 0.094688 0.961987
O85   O     O_2   0.336446 0.144638 0.099355 -0.609005
O86   O     O_R   0.322036 0.026139 0.075211 -0.799918
H89   H     H_    0.273996 0.057267 0.066611 0.329665
C250  C     C_2   0.343867 0.977779 0.905900 0.971039
O87   O     O_2   0.295446 0.920184 0.900981 -0.587136
O88   O     O_R   0.325138 0.034014 0.925871 -0.819612
H90   H     H_    0.270049 0.020381 0.934800 0.333627
C251  C     C_2   0.933303 0.361313 0.094307 0.924851
O89   O     O_2   0.889729 0.371935 0.075151 -0.673739
O90   O     O_R   0.953545 0.279581 0.102140 -0.756370
H91   H     H_    0.928094 0.235055 0.090495 0.344913
C252  C     C_2   0.017171 0.344807 0.906213 0.967231
O91   O     O_2   0.073502 0.294858 0.901310 -0.585725
O92   O     O_R   0.960849 0.327920 0.926306 -0.820143
H92   H     H_    0.973321 0.272711 0.935334 0.334108
C253  C     C_2   0.637328 0.925165 0.094560 0.958904
O93   O     O_2   0.661644 0.853599 0.098979 -0.603634
O94   O     O_R   0.676447 0.973344 0.075429 -0.803385
H93   H     H_    0.725487 0.943202 0.067036 0.331050
C254  C     C_2   0.655136 0.021126 0.906109 0.971398
O95   O     O_2   0.703686 0.078673 0.901262 -0.585900
O96   O     O_R   0.673522 0.964875 0.926100 -0.821320
H94   H     H_    0.728499 0.978448 0.935103 0.333808
C255  C     C_2   0.072315 0.643747 0.095266 0.957484
O97   O     O_2   0.144372 0.666504 0.099669 -0.613636
O98   O     O_R   0.024509 0.684967 0.076464 -0.791164
H95   H     H_    0.055831 0.733224 0.068053 0.331043
C256  C     C_2   0.981636 0.657111 0.905840 0.967585
O99   O     O_2   0.925434 0.707113 0.900855 -0.588706
O100  O     O_R   0.038170 0.674367 0.925848 -0.820797
H96   H     H_    0.025949 0.729864 0.934746 0.333346
C257  C     C_2   0.845615 0.540041 0.649668 1.023800
O101  O     O_2   0.840078 0.606886 0.661250 -0.584379
O102  O     O_R   0.776983 0.485234 0.648547 -0.765485
H97   H     H_    0.726312 0.507535 0.658275 0.358916
C258  C     C_2   0.866043 0.414152 0.349265 1.014439
O103  O     O_2   0.883511 0.355784 0.334826 -0.607722
O104  O     O_R   0.782177 0.437757 0.352961 -0.761042
H98   H     H_    0.741692 0.401961 0.342564 0.359876
C259  C     C_2   0.476468 0.842059 0.649487 1.024454
O105  O     O_2   0.409508 0.827392 0.660215 -0.573826
O106  O     O_R   0.540324 0.781612 0.649153 -0.768561
H99   H     H_    0.524041 0.728388 0.658715 0.359686
C260  C     C_2   0.586742 0.866638 0.349261 1.013707
O107  O     O_2   0.644805 0.884512 0.334767 -0.608737
O108  O     O_R   0.563983 0.782578 0.353026 -0.760952
H100  H     H_    0.600078 0.742328 0.342627 0.359856
C261  C     C_2   0.154327 0.459472 0.649823 1.034139
O109  O     O_2   0.215146 0.506412 0.648691 -0.588148
O110  O     O_R   0.159160 0.383887 0.663555 -0.762878
H101  H     H_    0.216141 0.375305 0.671951 0.354971
C262  C     C_2   0.133984 0.585616 0.349311 1.014355
O111  O     O_2   0.116512 0.644070 0.334912 -0.608234
O112  O     O_R   0.217850 0.561977 0.352985 -0.761127
H102  H     H_    0.258331 0.597830 0.342608 0.359781
C263  C     C_2   0.523351 0.158013 0.649520 1.023773
O113  O     O_2   0.590351 0.172728 0.660219 -0.574236
O114  O     O_R   0.459431 0.218397 0.649233 -0.776017
H103  H     H_    0.475708 0.271619 0.658802 0.357453
C264  C     C_2   0.413212 0.133422 0.349236 1.013735
O115  O     O_2   0.355141 0.115489 0.334749 -0.608927
O116  O     O_R   0.435963 0.217498 0.352978 -0.760875
H104  H     H_    0.399855 0.257707 0.342572 0.359813
C265  C     C_2   0.365435 0.085122 0.150762 1.015428
O117  O     O_2   0.383040 0.143802 0.165059 -0.607316
O118  O     O_R   0.281545 0.061406 0.147232 -0.759940
H105  H     H_    0.241168 0.097408 0.157613 0.362323
C266  C     C_2   0.344131 0.964736 0.850281 1.024403
O119  O     O_2   0.335935 0.897733 0.838939 -0.580641
O120  O     O_R   0.277836 0.022451 0.851135 -0.771211
H106  H     H_    0.226392 0.001979 0.841421 0.357899
C267  C     C_2   0.922248 0.363691 0.149958 0.997487
O121  O     O_2   0.845729 0.365570 0.152206 -0.620231
O122  O     O_R   0.968413 0.295698 0.159574 -0.716108
H107  H     H_    0.931444 0.252178 0.168288 0.353414
C268  C     C_2   0.028685 0.343416 0.850482 1.028035
O123  O     O_2   0.976060 0.287361 0.851100 -0.586361
O124  O     O_R   0.104923 0.331367 0.837534 -0.760165
H108  H     H_    0.108921 0.273824 0.829170 0.356007
C269  C     C_2   0.634000 0.914281 0.150635 1.012637
O125  O     O_2   0.617005 0.856021 0.165156 -0.608563
O126  O     O_R   0.717710 0.938100 0.146785 -0.762012
H109  H     H_    0.758507 0.902547 0.157154 0.360207
C270  C     C_2   0.655571 0.034573 0.850476 1.025334
O127  O     O_2   0.663923 0.101617 0.839174 -0.578908
O128  O     O_R   0.721838 0.976835 0.851379 -0.766577
H110  H     H_    0.773402 0.997327 0.841731 0.361051
C271  C     C_2   0.085288 0.636375 0.151226 1.017515
O129  O     O_2   0.143728 0.618852 0.165625 -0.605381
O130  O     O_R   0.061062 0.720212 0.147820 -0.762235
H111  H     H_    0.096513 0.760591 0.158368 0.359607
C272  C     C_2   0.969748 0.657186 0.850260 1.024199
O131  O     O_2   0.902707 0.668245 0.839177 -0.579206
O132  O     O_R   0.030272 0.720902 0.850855 -0.767248
H112  H     H_    0.011658 0.773139 0.841178 0.358510

loop_
_geom_bond_atom_site_label_1
_geom_bond_atom_site_label_2
_geom_bond_distance
_ccdc_geom_bond_type
O57   C93   1.348676 S    
O76   H84   1.012785 S    
C6    C66   1.423942 A    
C162  H15   1.083148 S    
C21   C33   1.410990 A    
C244  O75   1.222792 D    
O128  H110  1.013787 S    
O92   H92   1.013775 S    
C111  C135  1.418933 A    
Zn12  O1    1.948385 S    
C62   C73   1.419122 S    
C247  O81   1.223152 D    
C109  C133  1.419344 A    
Zn14  O11   1.897555 S    
C170  C171  1.397949 A    
C241  O69   1.223097 D    
C145  C150  1.404125 A    
C54   C81   1.418561 S    
C111  C123  1.418184 A    
C172  C173  1.397957 A    
C63   C80   1.418479 S    
C213  H57   1.081596 S    
O53   C89   1.348683 S    
O112  H102  1.013826 S    
C164  C165  1.397242 A    
C6    C22   1.416232 A    
C220  C221  1.398199 A    
C89   C109  1.416852 A    
C167  C168  1.398199 A    
C252  O91   1.223098 D    
C142  C223  1.487001 S    
C137  C142  1.412634 A    
C258  O104  1.398009 S    
C29   C253  1.486490 S    
C242  O72   1.398166 S    
C146  C147  1.397897 A    
C156  H10   1.081587 S    
O102  H97   1.013792 S    
C165  C166  1.397394 A    
C250  O88   1.398502 S    
C50   C85   1.418534 S    
Zn4   O46   1.924236 S    
C180  H30   1.081171 S    
C139  C144  1.412073 A    
C98   N6    1.365082 A    
C17   C33   1.410509 A    
O54   C90   1.348333 S    
C19   C35   1.409224 A    
C241  O70   1.398507 S    
Zn13  O35   1.923373 S    
Zn5   O1    1.948750 S    
C175  C180  1.403182 A    
C185  C186  1.398334 A    
Zn9   O4    1.948754 S    
Zn10  O3    1.948750 S    
C141  C217  1.484629 S    
C53   C82   1.418482 S    
C200  C201  1.397901 A    
C262  O111  1.223097 D    
O62   C98   1.348707 S    
C27   C39   1.412403 A    
O94   H93   1.012761 S    
Zn15  O6    1.897466 S    
O12   C44   1.281999 A    
C203  C204  1.398331 A    
C45   C68   1.497635 S    
C27   C251  1.491439 S    
C4    C260  1.485463 S    
C9    C25   1.416111 A    
C265  O118  1.398023 S    
C209  H54   1.081888 S    
C120  C128  1.418499 A    
C187  C188  1.403027 A    
C255  O97   1.222835 D    
C12   C28   1.417149 A    
C13   C29   1.415870 A    
C189  C190  1.397762 A    
C136  C187  1.485129 S    
C49   C86   1.418480 S    
C246  O79   1.222781 D    
Zn7   O14   1.897466 S    
C196  H43   1.082418 S    
C3    C259  1.481556 S    
C15   C71   1.424075 A    
C181  C182  1.403482 A    
Zn2   O48   1.923283 S    
C204  H50   1.083142 S    
C184  C185  1.397886 A    
C271  O130  1.398101 S    
C110  C122  1.420316 A    
O22   C50   1.260744 A    
C20   C244  1.487124 S    
C116  C140  1.419424 A    
C191  H39   1.081975 S    
C179  C180  1.397665 A    
C51   C84   1.419066 S    
O60   C96   1.348241 S    
C148  H3    1.082454 S    
C226  C227  1.397777 A    
C11   C267  1.480968 S    
O100  H96   1.013771 S    
Zn5   O51   1.923373 S    
C169  C174  1.404126 A    
C95   C107  1.416981 A    
C171  H22   1.081649 S    
C199  C200  1.403269 A    
C231  C232  1.397628 A    
C166  H18   1.082370 S    
Zn12  O30   1.924236 S    
C117  C125  1.420326 A    
C168  H20   1.081599 S    
C256  O99   1.223086 D    
O38   C60   1.260738 A    
C159  H12   1.081703 S    
O26   C54   1.260807 A    
C3    C19   1.416419 A    
C238  C239  1.397879 A    
C131  C157  1.487029 S    
C154  H8    1.082061 S    
C265  O117  1.223101 D    
C138  C199  1.487047 S    
C34   N5    1.447392 S    
C206  C207  1.397077 A    
C119  C143  1.423077 A    
C222  H65   1.081271 S    
O8    C44   1.280920 A    
C249  O85   1.222836 D    
C186  H35   1.083157 S    
Zn7   O3    1.948658 S    
C217  C222  1.403085 A    
C14   C70   1.428995 A    
C95   N3    1.364143 A    
O110  H101  1.013856 S    
C257  O102  1.397659 S    
C219  H62   1.080097 S    
C103  C115  1.419337 A    
C212  C213  1.397753 A    
C23   C35   1.409175 A    
C143  C229  1.484620 S    
C262  O112  1.398011 S    
C2    C66   1.423943 A    
C12   C268  1.482332 S    
C183  H32   1.081634 S    
C155  C156  1.397664 A    
C7    C263  1.481580 S    
C214  H58   1.082391 S    
C243  O73   1.223153 D    
C75   C86   1.196034 T    
C216  H60   1.083165 S    
O14   C46   1.285813 A    
C113  C137  1.423550 A    
O72   H82   1.012810 S    
C221  H64   1.081864 S    
C58   C77   1.419098 S    
O35   C63   1.260759 A    
C218  C219  1.397142 A    
C59   C76   1.418459 S    
C245  O77   1.223171 D    
O33   C61   1.260772 A    
Zn10  O32   1.923283 S    
C188  H36   1.083104 S    
C176  C177  1.397298 A    
O48   C50   1.260683 A    
C107  C123  1.418157 A    
C105  C129  1.419375 A    
O9    C41   1.285229 A    
C159  C160  1.398335 A    
O66   C102  1.348712 S    
C215  C216  1.398403 A    
O11   C43   1.285424 A    
C16   C272  1.482020 S    
C98   C118  1.416901 A    
C251  O90   1.398325 S    
C185  H34   1.082324 S    
C176  H26   1.083169 S    
C28   C40   1.409894 A    
C226  H68   1.082473 S    
Zn2   O2    1.948750 S    
C229  C230  1.402844 A    
C205  C210  1.403103 A    
C16   C72   1.429545 A    
C224  H66   1.081873 S    
O104  H98   1.013826 S    
O58   C94   1.348449 S    
C254  O95   1.223087 D    
C3    C67   1.429802 A    
C212  H56   1.082000 S    
C5    C65   1.428358 A    
Zn11  O10   1.897600 S    
Zn1   O47   1.923283 S    
C37   N2    1.447062 S    
O13   C45   1.281151 A    
Zn3   O45   1.924236 S    
C202  H48   1.082492 S    
O43   C61   1.260758 A    
C170  H21   1.081847 S    
C93   C105  1.416851 A    
C145  C146  1.403197 A    
O41   C63   1.260777 A    
C208  C209  1.398282 A    
C211  C212  1.403259 A    
C31   C255  1.487335 S    
C43   C70   1.512176 S    
C213  C214  1.398235 A    
C19   C243  1.491217 S    
C270  O127  1.223013 D    
Zn15  O26   1.923415 S    
O45   C51   1.260735 A    
C164  H16   1.083109 S    
C264  O116  1.398019 S    
C220  H63   1.082432 S    
C102  C114  1.416812 A    
C167  H19   1.082150 S    
C135  C181  1.486883 S    
C237  C238  1.398294 A    
C14   C270  1.482109 S    
C232  C233  1.398238 A    
O29   C57   1.260721 A    
C160  H13   1.082444 S    
O68   C104  1.348646 S    
C151  C156  1.403279 A    
C130  C133  1.412379 A    
C125  C126  1.419620 A    
C146  H1    1.081807 S    
C139  C205  1.484544 S    
C266  O120  1.397611 S    
C259  O105  1.223157 D    
C96   C108  1.419783 A    
Zn15  O33   1.924175 S    
O64   C100  1.348629 S    
C233  H74   1.081841 S    
O78   H85   1.013831 S    
C197  H44   1.081866 S    
C18   C242  1.487143 S    
Zn12  O21   1.923477 S    
C258  O103  1.223099 D    
Zn9   O8    1.897553 S    
O63   C99   1.348366 S    
Zn14  O23   1.924043 S    
Zn6   O2    1.948748 S    
Zn10  O7    1.897553 S    
C260  O108  1.398020 S    
C194  C195  1.397119 A    
O5    C41   1.286004 A    
Zn12  O9    1.897600 S    
Zn6   O19   1.897555 S    
O56   C92   1.348296 S    
O7    C43   1.285945 A    
Zn2   O43   1.924132 S    
O10   C42   1.281344 A    
C56   C87   1.419146 S    
C133  C169  1.487055 S    
C198  H45   1.081258 S    
C263  O113  1.223155 D    
C203  H49   1.082269 S    
O118  H105  1.013829 S    
Zn1   O16   1.897553 S    
Zn2   O15   1.897553 S    
C10   C26   1.416513 A    
C174  H25   1.083159 S    
C235  C236  1.403263 A    
C187  C192  1.403037 A    
C127  C128  1.420412 A    
O98   H95   1.013053 S    
C8    C264  1.485481 S    
C24   C36   1.409325 A    
C163  C164  1.402798 A    
C163  C168  1.403467 A    
C14   C30   1.416793 A    
C158  C159  1.397802 A    
O124  H108  1.013836 S    
C160  C161  1.397922 A    
C52   C83   1.419119 S    
C256  O100  1.398469 S    
C230  H71   1.083161 S    
C119  C127  1.420560 A    
C112  C124  1.421706 A    
C184  H33   1.082393 S    
C171  C172  1.398217 A    
C269  O126  1.398007 S    
C236  H76   1.082054 S    
C31   C39   1.409828 A    
C177  H27   1.080461 S    
C227  H69   1.082254 S    
Zn9   O31   1.923283 S    
C225  H67   1.081609 S    
Zn11  O29   1.924236 S    
Zn16  O25   1.923415 S    
C108  C124  1.421820 A    
C25   C37   1.409294 A    
O88   H90   1.013774 S    
C229  C234  1.403099 A    
O90   H91   1.013930 S    
Zn6   O39   1.924043 S    
O132  H112  1.013784 S    
C223  C224  1.403209 A    
C24   C248  1.487085 S    
C271  O129  1.223150 D    
C207  H52   1.080140 S    
O120  H106  1.013787 S    
C231  H72   1.080091 S    
C22   C34   1.409438 A    
Zn16  O34   1.924175 S    
C225  C226  1.398277 A    
O36   C64   1.260792 A    
C16   C32   1.415994 A    
C92   C112  1.419331 A    
C147  C148  1.398244 A    
C259  O106  1.397506 S    
O27   C55   1.260761 A    
C161  C162  1.398408 A    
C110  C134  1.423178 A    
C191  C192  1.397904 A    
C121  C122  1.419673 A    
O25   C53   1.260792 A    
O6    C42   1.282269 A    
C23   C247  1.491241 S    
C80   C81   1.196048 T    
C2    C258  1.485362 S    
C232  H73   1.082427 S    
C177  C178  1.397666 A    
C94   N2    1.363405 A    
C137  C193  1.484582 S    
C248  O84   1.398140 S    
C219  C220  1.397585 A    
Zn10  O27   1.924132 S    
C90   C110  1.419323 A    
O20   C48   1.285288 A    
C32   C40   1.409483 A    
Zn4   O17   1.897600 S    
C104  N8    1.364120 A    
C7    C67   1.429888 A    
C8    C68   1.423803 A    
C130  C151  1.484386 S    
O16   C48   1.285463 A    
C246  O80   1.398164 S    
C99   N7    1.363470 A    
C76   C85   1.196036 T    
Zn7   O49   1.924175 S    
O15   C47   1.281467 A    
C97   N5    1.363850 A    
C18   C34   1.409380 A    
C218  H61   1.083170 S    
C41   C72   1.512297 S    
C267  O121  1.222335 D    
C42   C71   1.499755 S    
C255  O98   1.397816 S    
Zn13  O24   1.924043 S    
C188  C189  1.397518 A    
C15   C31   1.416633 A    
C261  O109  1.222915 D    
C48   C65   1.511151 S    
C244  O76   1.398134 S    
C182  H31   1.082437 S    
C1    C17   1.416763 A    
Zn5   O20   1.897555 S    
Zn1   O44   1.924132 S    
C102  N6    1.365061 A    
C155  H9    1.082025 S    
C215  H59   1.082392 S    
C247  O82   1.398464 S    
C207  C208  1.397584 A    
C11   C71   1.421909 A    
C161  H14   1.082365 S    
C15   C271  1.486049 S    
O19   C47   1.281489 A    
C26   C38   1.409984 A    
C1    C257  1.482432 S    
C21   C245  1.489900 S    
O86   H89   1.012889 S    
O122  H107  1.013803 S    
C79   C82   1.196046 T    
C154  C155  1.398156 A    
C157  C162  1.404109 A    
C152  H6    1.083203 S    
C178  C179  1.398356 A    
Zn3   O3    1.948389 S    
C196  C197  1.398204 A    
C153  C154  1.398369 A    
C253  O93   1.222836 D    
C9    C69   1.424350 A    
C129  C134  1.412716 A    
C149  H4    1.082288 S    
O51   C53   1.260752 A    
O82   H87   1.013803 S    
C173  C174  1.398486 A    
O49   C55   1.260785 A    
C38   N1    1.449473 S    
C140  C211  1.486766 S    
C202  C203  1.397838 A    
O114  H103  1.013892 S    
C113  C125  1.420334 A    
C152  C153  1.396768 A    
C193  C198  1.403069 A    
Zn16  O1    1.948656 S    
C60   C75   1.418514 S    
C109  C121  1.418093 A    
C181  C186  1.404192 A    
C44   C69   1.498286 S    
C90   N2    1.363786 A    
C172  H23   1.082483 S    
O39   C57   1.260650 A    
C239  H79   1.082410 S    
Zn3   O18   1.897600 S    
C107  C131  1.418635 A    
C237  H77   1.081614 S    
C132  C135  1.411952 A    
C205  C206  1.402869 A    
Zn5   O40   1.924043 S    
C105  C121  1.417680 A    
C151  C152  1.402891 A    
O30   C58   1.260733 A    
C267  O122  1.397773 S    
C192  H40   1.081176 S    
C104  C116  1.417248 A    
C230  C231  1.397114 A    
Zn8   O50   1.924175 S    
C234  H75   1.081390 S    
O17   C45   1.281110 A    
C233  C234  1.397774 A    
C178  H28   1.082453 S    
O23   C51   1.260649 A    
O24   C52   1.260674 A    
C91   C111  1.417361 A    
C195  C196  1.397585 A    
Zn11  O2    1.948389 S    
C100  N8    1.364130 A    
C272  O132  1.397558 S    
O52   C54   1.260785 A    
C61   C74   1.419064 S    
C28   C252  1.490908 S    
O42   C64   1.260800 A    
C33   N6    1.449950 S    
C120  C144  1.419382 A    
C32   C256  1.491184 S    
C118  C142  1.418873 A    
C193  C194  1.402848 A    
O46   C52   1.260744 A    
C4    C68   1.423795 A    
Zn9   O28   1.924132 S    
C235  C240  1.404116 A    
C4    C20   1.416011 A    
C11   C27   1.414362 A    
C5    C21   1.416053 A    
O34   C62   1.260795 A    
C183  C184  1.398339 A    
C129  C145  1.486925 S    
C46   C67   1.513170 S    
C40   N3    1.448842 S    
C9    C265  1.485447 S    
C239  C240  1.398390 A    
C47   C66   1.498402 S    
C158  H11   1.082118 S    
C201  H47   1.081644 S    
C116  C128  1.418510 A    
C26   C250  1.491043 S    
C165  H17   1.080063 S    
Zn7   O42   1.923415 S    
C114  C138  1.418876 A    
C197  C198  1.397850 A    
C236  C237  1.397751 A    
C123  C124  1.420573 A    
C227  C228  1.398307 A    
C36   N7    1.447097 S    
C242  O71   1.222787 D    
C35   N8    1.448318 S    
O116  H104  1.013838 S    
C114  C126  1.417370 A    
C264  O115  1.223098 D    
C257  O101  1.223022 D    
Zn4   O4    1.948385 S    
O55   C91   1.348672 S    
C208  H53   1.082445 S    
C97   C117  1.419157 A    
C175  C176  1.403054 A    
C106  C130  1.422932 A    
C149  C150  1.398418 A    
C144  C235  1.486781 S    
C73   C88   1.196391 T    
C91   N3    1.364332 A    
C195  H42   1.080044 S    
O61   C97   1.348359 S    
C74   C87   1.196392 T    
C92   N4    1.363005 A    
C99   C119  1.419271 A    
O126  H109  1.013826 S    
Zn13  O4    1.948750 S    
C78   C83   1.196378 T    
C138  C141  1.412638 A    
C29   C37   1.409136 A    
C266  O119  1.223014 D    
Zn15  O2    1.948658 S    
C252  O92   1.398493 S    
C249  O86   1.398132 S    
Zn16  O5    1.897466 S    
C148  C149  1.397909 A    
C254  O96   1.398482 S    
O50   C56   1.260805 A    
Zn14  O3    1.948748 S    
Zn13  O12   1.897555 S    
C134  C175  1.485026 S    
O130  H111  1.013827 S    
C147  H2    1.081713 S    
C112  C136  1.424307 A    
C268  O123  1.222847 D    
O37   C59   1.260728 A    
C25   C249  1.487580 S    
Zn8   O13   1.897466 S    
C13   C269  1.485319 S    
C94   C106  1.418940 A    
C243  O74   1.398474 S    
C210  H55   1.081498 S    
C190  C191  1.398191 A    
O21   C49   1.260734 A    
C190  H38   1.082440 S    
C206  H51   1.083202 S    
C100  C120  1.417209 A    
C253  O94   1.398046 S    
C179  H29   1.082065 S    
C93   N1    1.364974 A    
C245  O78   1.398445 S    
C108  C132  1.424278 A    
O96   H94   1.013772 S    
C101  C113  1.419221 A    
C55   C88   1.419089 S    
O106  H99   1.013897 S    
C96   N4    1.363547 A    
O44   C62   1.260778 A    
O74   H83   1.013809 S    
C131  C136  1.412110 A    
C169  C170  1.403324 A    
O40   C58   1.260673 A    
C173  H24   1.082329 S    
C6    C262  1.485369 S    
Zn4   O37   1.923477 S    
O65   C101  1.348352 S    
C5    C261  1.483049 S    
Zn8   O41   1.923415 S    
C199  C204  1.404168 A    
Zn11  O22   1.923477 S    
C140  C143  1.412090 A    
O70   H81   1.013766 S    
O108  H100  1.013831 S    
C272  O131  1.223012 D    
C166  C167  1.398350 A    
C211  C216  1.404094 A    
C10   C266  1.482193 S    
C240  H80   1.083173 S    
C2    C18   1.416191 A    
Zn14  O36   1.923373 S    
C182  C183  1.397765 A    
C250  O87   1.223093 D    
C263  O114  1.397516 S    
C10   C70   1.429242 A    
C157  C158  1.403372 A    
C30   C254  1.491014 S    
C30   C38   1.410184 A    
C13   C69   1.423771 A    
C217  C218  1.402869 A    
C260  O107  1.223089 D    
C153  H7    1.081171 S    
Zn8   O4    1.948656 S    
C103  N7    1.363493 A    
C64   C79   1.418555 S    
C1    C65   1.428724 A    
C200  H46   1.081895 S    
C101  N5    1.363892 A    
C189  H37   1.080430 S    
C214  C215  1.397872 A    
C115  C127  1.420616 A    
C150  H5    1.083156 S    
C118  C126  1.417391 A    
C228  H70   1.083131 S    
C238  H78   1.082421 S    
C261  O110  1.398107 S    
C39   N4    1.446750 S    
O47   C49   1.260655 A    
O84   H88   1.012799 S    
C268  O124  1.398034 S    
C22   C246  1.487239 S    
C221  C222  1.397856 A    
C209  C210  1.397770 A    
C115  C139  1.423121 A    
C248  O83   1.222794 D    
C224  C225  1.397889 A    
C7    C23   1.416361 A    
C89   N1    1.364919 A    
C270  O128  1.397605 S    
C17   C241  1.490902 S    
C223  C228  1.404129 A    
Zn3   O38   1.923477 S    
O67   C103  1.348345 S    
C251  O89   1.221310 D    
C117  C141  1.423498 A    
C8    C24   1.415982 A    
C77   C84   1.196376 T    
C132  C163  1.484601 S    
O80   H86   1.012813 S    
C20   C36   1.409354 A    
C57   C78   1.419043 S    
O28   C56   1.260785 A    
C201  C202  1.398265 A    
C194  H41   1.083167 S    
C12   C72   1.428971 A    
Zn6   O52   1.923373 S    
O31   C59   1.260649 A    
C269  O125  1.223087 D    
Zn1   O1    1.948754 S    
O32   C60   1.260678 A    
O59   C95   1.348664 S    
O18   C46   1.285987 A    
C106  C122  1.419890 A    
