data_mof_unit_54600.cif
_audit_creation_date              2012-12-11T14:39:32-0500
_audit_creation_method            fapswitch 2.2
_symmetry_space_group_name_H-M    P1
_symmetry_Int_Tables_number       1
_space_group_crystal_system       triclinic
_cell_length_a                    7.215372
_cell_length_b                    14.066953
_cell_length_c                    16.306264
_cell_angle_alpha                 90.000834
_cell_angle_beta                  97.31813
_cell_angle_gamma                 89.999937
_cell_volume                      1641.57626073

loop_
_atom_site_label
_atom_site_type_symbol
_atom_type_description
_atom_site_fract_x
_atom_site_fract_y
_atom_site_fract_z
_atom_type_partial_charge
O1    O     O_R   0.525340 0.338340 0.164530 -0.542181
O2    O     O_R   0.474660 0.661660 0.835470 -0.542180
O3    O     O_R   0.974660 0.838340 0.835470 -0.542179
O4    O     O_R   0.025340 0.161660 0.164530 -0.542179
O5    O     O_R   0.253520 0.352000 0.336710 -0.543316
O6    O     O_R   0.746480 0.648000 0.663290 -0.543316
O7    O     O_R   0.246480 0.852000 0.663290 -0.543311
O8    O     O_R   0.753520 0.148000 0.336710 -0.543311
O9    O     O_R   0.083330 0.168380 0.337300 -0.533717
O10   O     O_R   0.916670 0.831620 0.662700 -0.533717
O11   O     O_R   0.416670 0.668380 0.662700 -0.533704
O12   O     O_R   0.583330 0.331620 0.337300 -0.533704
C1    C     C_R   0.432256 0.368865 0.363579 0.683978
C2    C     C_R   0.567744 0.631135 0.636421 0.683978
C3    C     C_R   0.067744 0.868865 0.636420 0.683979
C4    C     C_R   0.932256 0.131135 0.363580 0.683979
O13   O     O_R   0.195840 0.349670 0.165140 -0.538888
O14   O     O_R   0.804160 0.650330 0.834860 -0.538888
O15   O     O_R   0.304160 0.849670 0.834860 -0.538886
O16   O     O_R   0.695840 0.150330 0.165140 -0.538886
C5    C     C_R   0.357212 0.372041 0.137718 0.743097
C6    C     C_R   0.642788 0.627959 0.862282 0.743097
C7    C     C_R   0.142790 0.872038 0.862286 0.743109
C8    C     C_R   0.857209 0.127962 0.137714 0.743109
O17   O     O_3   0.387830 0.193120 0.250910 -0.375137
O18   O     O_3   0.612170 0.806880 0.749090 -0.375137
O19   O     O_3   0.112170 0.693120 0.749090 -0.375136
O20   O     O_3   0.887830 0.306880 0.250910 -0.375136
V1    V     V_3+5 0.113010 0.264540 0.250910 1.440007
V2    V     V_3+5 0.886990 0.735460 0.749090 1.440007
V3    V     V_3+5 0.386990 0.764540 0.749090 1.440027
V4    V     V_3+5 0.613010 0.235460 0.250910 1.440027
C9    C     C_R   0.068846 0.196471 0.527330 -0.170506
C10   C     C_R   0.931154 0.803528 0.472670 -0.170506
C11   C     C_R   0.431437 0.696491 0.472651 -0.170534
C12   C     C_R   0.568563 0.303509 0.527349 -0.170534
C13   C     C_R   0.134785 0.230287 0.605881 -0.171392
C14   C     C_R   0.865215 0.769713 0.394119 -0.171392
C15   C     C_R   0.365577 0.730310 0.394093 -0.171418
C16   C     C_R   0.634423 0.269690 0.605906 -0.171418
C17   C     C_R   0.168341 0.167871 0.672771 0.034674
C18   C     C_R   0.831659 0.832128 0.327229 0.034674
C19   C     C_R   0.332016 0.667890 0.327203 0.034799
C20   C     C_R   0.667984 0.332110 0.672797 0.034799
C21   C     C_R   0.134051 0.070438 0.659654 -0.163327
C22   C     C_R   0.865949 0.929562 0.340346 -0.163327
C23   C     C_R   0.366232 0.570453 0.340326 -0.163282
C24   C     C_R   0.633768 0.429547 0.659674 -0.163282
C25   C     C_R   0.068422 0.034355 0.580105 0.039338
C26   C     C_R   0.931578 0.965645 0.419895 0.039337
C27   C     C_R   0.431735 0.534363 0.419884 0.039300
C28   C     C_R   0.568264 0.465637 0.580116 0.039300
C29   C     C_R   0.035491 0.098420 0.512811 0.062707
C30   C     C_R   0.964509 0.901580 0.487189 0.062707
C31   C     C_R   0.464665 0.598431 0.487179 0.062671
C32   C     C_R   0.535335 0.401569 0.512821 0.062672
C33   C     C_R   0.032618 0.936095 0.567052 -0.155452
C34   C     C_R   0.967382 0.063904 0.432948 -0.155452
C35   C     C_R   0.467381 0.436094 0.432948 -0.155412
C36   C     C_R   0.532619 0.563906 0.567052 -0.155412
H1    H     H_    0.043454 0.248491 0.478330 0.127008
H2    H     H_    0.956545 0.751509 0.521670 0.127008
H3    H     H_    0.456847 0.748515 0.521650 0.126996
H4    H     H_    0.543153 0.251485 0.478350 0.126996
H5    H     H_    0.158993 0.305873 0.614098 0.164489
H6    H     H_    0.841007 0.694127 0.385902 0.164489
H7    H     H_    0.341442 0.805900 0.385870 0.164465
H8    H     H_    0.658558 0.194100 0.614130 0.164465
H9    H     H_    0.158055 0.023200 0.712284 0.134437
H10   H     H_    0.841945 0.976800 0.287716 0.134437
H11   H     H_    0.342237 0.523213 0.287693 0.134394
H12   H     H_    0.657763 0.476787 0.712307 0.134394
H13   H     H_    0.138086 0.066441 0.056423 0.161794
H14   H     H_    0.861914 0.933559 0.943577 0.161794
H15   H     H_    0.361993 0.566600 0.943697 0.161778
H16   H     H_    0.638007 0.433400 0.056303 0.161778
C37   C     C_2   0.149941 0.942175 0.930509 -0.276698
C38   C     C_2   0.850059 0.057825 0.069491 -0.276698
C39   C     C_2   0.350079 0.442209 0.069519 -0.276693
C40   C     C_2   0.649921 0.557791 0.930481 -0.276693
C41   C     C_2   0.996123 0.965621 0.965520 -0.116316
C42   C     C_2   0.003877 0.034379 0.034480 -0.116316
C43   C     C_2   0.503859 0.465583 0.034452 -0.116279
C44   C     C_2   0.496141 0.534417 0.965548 -0.116279
H17   H     H_    0.716261 0.025785 0.046773 0.146735
H18   H     H_    0.283739 0.974214 0.953227 0.146735
H19   H     H_    0.783671 0.525647 0.953118 0.146796
H20   H     H_    0.216329 0.474352 0.046882 0.146796
C45   C     C_2   0.761840 0.795132 0.243703 0.772870
O21   O     O_2   0.729121 0.849637 0.185186 -0.566214
O22   O     O_R   0.733279 0.697504 0.231584 -0.667684
H21   H     H_    0.684824 0.681101 0.172159 0.309650
C46   C     C_2   0.238160 0.204868 0.756297 0.772869
O23   O     O_2   0.270879 0.150363 0.814814 -0.566214
O24   O     O_R   0.266721 0.302496 0.768416 -0.667684
H22   H     H_    0.315176 0.318899 0.827841 0.309650
C47   C     C_2   0.737747 0.295113 0.756329 0.772866
O25   O     O_2   0.770414 0.349619 0.814849 -0.566285
O26   O     O_R   0.766302 0.197486 0.768449 -0.667643
H23   H     H_    0.814692 0.181083 0.827881 0.309628
C48   C     C_2   0.262253 0.704886 0.243671 0.772866
O27   O     O_2   0.229586 0.650381 0.185151 -0.566285
O28   O     O_R   0.233698 0.802514 0.231551 -0.667643
H24   H     H_    0.185308 0.818917 0.172119 0.309628

loop_
_geom_bond_atom_site_label_1
_geom_bond_atom_site_label_2
_ccdc_geom_bond_type
O1    C5    A    
C48   O27   D    
O13   V1    S    
O3    C7    A    
O24   H22   S    
C40   C44   D    
O15   V3    S    
C41   C42   S    
C46   O23   D    
O20   V1    S    
O9    C4    A    
C14   C18   A    
C40   H19   S    
O10   C3    A    
O4    C8    A    
O11   C2    A    
H15   C44   S    
C10   H2    S    
C25   C33   A    
C18   C22   A    
O10   V2    S    
C28   C36   A    
C17   C46   S    
C14   H6    S    
C13   H5    S    
O2    C6    A    
O14   V2    S    
C37   C41   D    
C45   O22   S    
O5    C1    A    
O4    V1    S    
O9    V1    S    
O17   V4    S    
O7    C3    A    
O11   V3    S    
O18   V3    S    
C48   O28   S    
C10   C14   A    
C31   C36   A    
O12   V4    S    
O19   V2    S    
C3    C33   S    
C24   H12   S    
H16   C43   S    
C39   H20   S    
C47   O26   S    
C47   O25   D    
O5    V1    S    
C9    C29   A    
O7    V3    S    
C21   H9    S    
C26   C34   A    
O16   C8    A    
C12   C16   A    
C24   C28   A    
O22   H21   S    
O15   C7    A    
C15   C19   A    
C11   C31   A    
O1    V4    S    
O13   C5    A    
O2    V3    S    
O8    V4    S    
O3    V2    S    
C11   C15   A    
C19   C48   S    
C12   C32   A    
O6    C2    A    
C20   C47   S    
C38   C42   D    
C43   C44   S    
C21   C25   A    
C5    C39   S    
C4    C34   S    
C7    C37   S    
C23   H11   S    
C38   H17   S    
C8    C38   S    
O6    V2    S    
C37   H18   S    
C10   C30   A    
C27   C35   A    
H14   C41   S    
H13   C42   S    
O16   V4    S    
O8    C4    A    
O14   C6    A    
C15   H7    S    
C23   C27   A    
C29   C34   A    
C1    C35   S    
C2    C36   S    
C22   C26   A    
C32   C35   A    
C18   C45   S    
C6    C40   S    
C26   C30   A    
O26   H23   S    
C39   C43   D    
C9    H1    S    
C25   C29   A    
C27   C31   A    
C13   C17   A    
C9    C13   A    
C22   H10   S    
C28   C32   A    
C16   C20   A    
O12   C1    A    
C46   O24   S    
C16   H8    S    
O28   H24   S    
C17   C21   A    
C11   H3    S    
C45   O21   D    
C12   H4    S    
C19   C23   A    
C20   C24   A    
C30   C33   A    
