data_mof_unit_51863.cif
_audit_creation_date              2012-10-26T19:50:39-0400
_audit_creation_method            fapswitch 2.2
_symmetry_space_group_name_H-M    P1
_symmetry_Int_Tables_number       1
_space_group_crystal_system       triclinic
_cell_length_a                    13.813276
_cell_length_b                    15.13326
_cell_length_c                    15.765833
_cell_angle_alpha                 90.25635
_cell_angle_beta                  68.722486
_cell_angle_gamma                 91.516915
_cell_volume                      3069.91046747

loop_
_atom_site_label
_atom_site_type_symbol
_atom_type_description
_atom_site_fract_x
_atom_site_fract_y
_atom_site_fract_z
_atom_type_partial_charge
C1    C     C_R   0.502710 0.671017 0.497734 0.543190
C2    C     C_R   0.506774 0.186053 0.560660 -0.140942
C3    C     C_R   0.508089 0.769180 0.492595 -0.002853
C4    C     C_R   0.498088 0.234648 0.489026 0.011402
C5    C     C_R   0.602019 0.821458 0.474168 -0.013319
C6    C     C_R   0.485681 0.191858 0.412967 -0.012871
C7    C     C_R   0.597634 0.914757 0.468234 0.104568
C8    C     C_R   0.484763 0.098017 0.410364 0.098870
C9    C     C_R   0.501790 0.954157 0.482515 0.020039
C10   C     C_R   0.494318 0.050666 0.483949 0.003496
C11   C     C_R   0.916419 0.445247 0.434871 -0.004557
C12   C     C_R   0.499920 0.330334 0.496459 0.550686
C13   C     C_R   0.122329 0.575714 0.468492 -0.008676
C14   C     C_R   0.812939 0.449176 0.437833 0.048624
C15   C     C_R   0.224395 0.572553 0.469052 0.048394
C16   C     C_R   0.435647 0.502035 0.673741 0.544168
C17   C     C_R   0.564259 0.500463 0.326322 0.535641
C18   C     C_R   0.767812 0.546263 0.562972 0.028211
C19   C     C_R   0.194051 0.427895 0.530065 0.006463
C20   C     C_R   0.869779 0.546359 0.562088 -0.169716
C21   C     C_R   0.092926 0.426403 0.528570 -0.170700
C22   C     C_R   0.946468 0.497142 0.497054 0.038863
C23   C     C_R   0.376652 0.495150 0.101982 -0.142585
C24   C     C_R   0.055529 0.499912 0.496932 0.036856
C25   C     C_R   0.393119 0.504999 0.775336 -0.022643
C26   C     C_R   0.606053 0.497787 0.224993 -0.015918
C27   C     C_R   0.255774 0.521825 0.926463 0.038688
C28   C     C_R   0.744602 0.494036 0.074544 0.034798
C29   C     C_R   0.288359 0.525682 0.829401 0.015272
C30   C     C_R   0.712852 0.511771 0.169496 0.028577
C31   C     C_R   0.463025 0.488073 0.818263 -0.163809
C32   C     C_R   0.534269 0.479174 0.183377 -0.161850
C33   C     C_R   0.436592 0.496349 0.912363 0.011149
C34   C     C_R   0.620616 0.501733 0.899888 -0.137654
C35   C     C_R   0.560892 0.486487 0.089051 0.014344
C36   C     C_R   0.330842 0.507374 0.967358 0.050166
C37   C     C_R   0.667922 0.492530 0.033704 0.043891
C38   C     C_R   0.513760 0.493384 0.952766 0.039152
C39   C     C_R   0.483355 0.489521 0.048910 0.041094
C40   C     C_3   0.990008 0.383302 0.367433 -0.282854
C41   C     C_3   0.069609 0.432386 0.286827 -0.451642
C42   C     C_3   0.087161 0.661428 0.440693 -0.285476
C43   C     C_3   0.077919 0.655962 0.347264 -0.438651
C44   C     C_3   0.791015 0.550893 0.208432 -0.260978
C45   C     C_R   0.303070 0.505070 0.062378 -0.139489
C46   C     C_3   0.766730 0.646611 0.238010 -0.415676
C47   C     C_3   0.213554 0.556915 0.785033 -0.251109
C48   C     C_3   0.153384 0.479750 0.761983 -0.411975
C49   C     C_3   0.141966 0.534563 0.986468 -0.281776
C50   C     C_3   0.123294 0.628464 0.024170 -0.446385
C51   C     C_3   0.857881 0.473087 0.019108 -0.284690
C52   C     C_3   0.893848 0.392713 0.057440 -0.440338
C53   C     C_3   0.706512 0.780878 0.460364 -0.242418
C54   C     C_3   0.719006 0.765880 0.551565 -0.403647
C55   C     C_3   0.485946 0.245653 0.331246 -0.243563
C56   C     C_R   0.695269 0.502380 0.939339 -0.134191
C57   C     C_3   0.376296 0.268702 0.337668 -0.400829
C58   C     C_2   0.692554 0.972626 0.445772 0.558999
C59   C     C_2   0.479537 0.049064 0.329930 0.563671
C60   C     C_R   0.411629 0.902767 0.500163 -0.133324
C61   C     C_R   0.504038 0.094843 0.558503 -0.132119
C62   C     C_R   0.414761 0.811693 0.504735 -0.147802
Cu1   Cu    Cu3+1 0.403570 0.500010 0.500000 0.898924
Cu2   Cu    Cu3+1 0.596430 0.499990 0.500000 0.910316
H1    H     H_    0.224160 0.512251 0.108850 0.108307
H2    H     H_    0.539326 0.466743 0.776444 0.129936
H3    H     H_    0.346810 0.497351 0.175224 0.101564
H4    H     H_    0.649249 0.514439 0.827581 0.100611
H5    H     H_    0.338112 0.933619 0.511377 0.121734
H6    H     H_    0.511817 0.058127 0.614461 0.131146
H7    H     H_    0.342540 0.774388 0.518924 0.124950
H8    H     H_    0.515384 0.219093 0.618769 0.121141
H9    H     H_    0.030116 0.476520 0.254186 0.135622
H10   H     H_    0.125269 0.471354 0.308859 0.164900
H11   H     H_    0.114521 0.383869 0.235511 0.140712
H12   H     H_    0.774010 0.516827 0.894236 0.099221
H13   H     H_    0.030469 0.342416 0.401809 0.151771
H14   H     H_    0.945630 0.336139 0.340104 0.136261
H15   H     H_    0.151479 0.632869 0.295573 0.145530
H16   H     H_    0.012441 0.611114 0.349217 0.163076
H17   H     H_    0.062200 0.722542 0.326711 0.142366
H18   H     H_    0.011876 0.680791 0.492365 0.145691
H19   H     H_    0.143447 0.716169 0.438248 0.130026
H20   H     H_    0.771275 0.687812 0.178476 0.155670
H21   H     H_    0.688088 0.652137 0.290824 0.170745
H22   H     H_    0.824849 0.672920 0.265862 0.121839
H23   H     H_    0.788953 0.410420 0.390693 0.117770
H24   H     H_    0.795699 0.509729 0.264475 0.159115
H25   H     H_    0.871414 0.553120 0.158602 0.128063
H26   H     H_    0.108071 0.504771 0.722023 0.137566
H27   H     H_    0.206391 0.428551 0.721669 0.177822
H28   H     H_    0.098423 0.447460 0.824490 0.123404
H29   H     H_    0.157571 0.604355 0.828762 0.124176
H30   H     H_    0.254886 0.597765 0.723757 0.166884
H31   H     H_    0.170619 0.644370 0.066224 0.155423
H32   H     H_    0.143356 0.677317 0.967707 0.152245
H33   H     H_    0.040054 0.634977 0.067304 0.129857
H34   H     H_    0.276430 0.629044 0.444452 0.129468
H35   H     H_    0.089064 0.520655 0.949734 0.141826
H36   H     H_    0.115582 0.485226 0.042576 0.128388
H37   H     H_    0.894365 0.404780 0.126627 0.143291
H38   H     H_    0.841971 0.334585 0.060091 0.166712
H39   H     H_    0.974056 0.376558 0.012392 0.130681
H40   H     H_    0.870933 0.454922 0.948009 0.134994
H41   H     H_    0.908926 0.531847 0.014964 0.129836
H42   H     H_    0.719016 0.829528 0.586601 0.197280
H43   H     H_    0.794016 0.733782 0.540022 0.123690
H44   H     H_    0.654247 0.723869 0.597167 0.156765
H45   H     H_    0.709672 0.583076 0.614734 0.118670
H46   H     H_    0.718340 0.719454 0.420335 0.160583
H47   H     H_    0.772469 0.823517 0.417476 0.160397
H48   H     H_    0.322720 0.210190 0.356708 0.198363
H49   H     H_    0.343880 0.320783 0.388782 0.174266
H50   H     H_    0.379125 0.294124 0.270821 0.132473
H51   H     H_    0.533315 0.307558 0.323690 0.136429
H52   H     H_    0.524808 0.209295 0.267025 0.171212
H53   H     H_    0.811512 0.017427 0.480893 0.338510
H54   H     H_    0.405674 0.028143 0.242033 0.340532
H55   H     H_    0.220518 0.370800 0.555536 0.123508
H56   H     H_    0.888640 0.584416 0.612630 0.089092
H57   H     H_    0.043466 0.368146 0.553056 0.099052
H58   H     H_    0.456202 0.461049 0.226720 0.126839
N1    N     N_R   0.741310 0.499980 0.500000 -0.226972
N2    N     N_R   0.258690 0.500020 0.500000 -0.231201
O1    O     O_R   0.418570 0.628550 0.499990 -0.514604
O2    O     O_R   0.749207 0.975118 0.503339 -0.736039
O3    O     O_2   0.544012 0.993567 0.293083 -0.488328
O4    O     O_R   0.400690 0.065683 0.296808 -0.733273
O5    O     O_R   0.581430 0.371450 0.500010 -0.491957
O6    O     O_R   0.581440 0.628540 0.499990 -0.504703
O7    O     O_R   0.418560 0.371460 0.500010 -0.513064
O8    O     O_R   0.372890 0.500010 0.629830 -0.495373
O9    O     O_R   0.627110 0.499990 0.370170 -0.509539
O10   O     O_R   0.535760 0.500000 0.629840 -0.503918
O11   O     O_R   0.464240 0.500000 0.370160 -0.499997
O12   O     O_2   0.719600 0.019410 0.377668 -0.490518

loop_
_geom_bond_atom_site_label_1
_geom_bond_atom_site_label_2
_ccdc_geom_bond_type
C61   H6    S    
C25   C31   A    
C31   H2    S    
C52   H39   S    
C34   C56   A    
C56   H12   S    
C12   O7    A    
C27   C29   A    
C2    C4    A    
C28   C51   S    
C42   H18   S    
C18   H45   S    
C6    C55   S    
C16   O10   A    
Cu1   N2    S    
C53   C54   S    
C26   C32   A    
C52   H38   S    
C54   H43   S    
C29   C47   S    
C23   C45   A    
C17   C26   S    
C28   C37   A    
C5    C53   S    
C35   C37   A    
C1    O1    A    
C14   H23   S    
C8    C59   S    
C38   C39   A    
C11   C14   A    
C50   H31   S    
C57   H48   S    
C49   H35   S    
C55   H52   S    
C43   H15   S    
C33   C36   A    
C60   C62   A    
C23   H3    S    
C41   H10   S    
C37   C56   A    
C53   H46   S    
C48   H27   S    
C17   O11   A    
C31   C33   A    
Cu1   O7    S    
C4    C12   S    
H53   O2    S    
C7    C58   S    
C18   C20   A    
C2    C61   A    
C18   N1    A    
C46   H21   S    
C53   H47   S    
C19   H55   S    
C48   H26   S    
C30   C44   S    
H54   O4    S    
C2    H8    S    
C13   C42   S    
C44   C46   S    
C25   C29   A    
C52   H37   S    
Cu2   O10   S    
C19   N2    A    
C15   N2    A    
C54   H42   S    
C51   C52   S    
C32   C35   A    
C32   H58   S    
C4    C6    A    
C1    O6    A    
C12   O5    A    
C34   H4    S    
C5    C7    A    
C57   H49   S    
C58   O12   D    
C59   O4    S    
C13   C24   A    
C1    C3    S    
Cu1   O11   S    
C35   C39   A    
C41   H11   S    
C47   C48   S    
C51   H41   S    
C47   H29   S    
C36   C45   A    
Cu1   O8    S    
Cu1   O1    S    
C46   H20   S    
C40   C41   S    
Cu2   O6    S    
C26   C30   A    
C55   C57   S    
C17   O9    A    
C43   H17   S    
C22   C24   S    
C10   C61   A    
C42   C43   S    
C15   H34   S    
C20   H56   S    
C9    C10   S    
C3    C62   A    
C16   C25   S    
C7    C9    A    
Cu2   O9    S    
C50   H33   S    
C14   N1    A    
C19   C21   A    
C34   C38   A    
C42   H19   S    
C20   C22   A    
C3    C5    A    
C6    C8    A    
C58   O2    S    
C57   H50   S    
C27   C36   A    
Cu2   N1    S    
C11   C22   A    
C33   C38   A    
C54   H44   S    
C9    C60   A    
C13   C15   A    
C51   H40   S    
C49   H36   S    
C45   H1    S    
C50   H32   S    
C55   H51   S    
C60   H5    S    
C23   C39   A    
C28   C30   A    
C43   H16   S    
C47   H30   S    
C62   H7    S    
C40   H14   S    
C21   H57   S    
C11   C40   S    
C16   O8    A    
C41   H9    S    
Cu1   Cu2   S    
Cu2   O5    S    
C8    C10   A    
C49   C50   S    
C48   H28   S    
C21   C24   A    
C40   H13   S    
C44   H24   S    
C59   O3    D    
C44   H25   S    
C27   C49   S    
C46   H22   S    
