data_mof_unit_52845.cif
_audit_creation_date              2012-12-11T15:20:38-0500
_audit_creation_method            fapswitch 2.2
_symmetry_space_group_name_H-M    P1
_symmetry_Int_Tables_number       1
_space_group_crystal_system       triclinic
_cell_length_a                    12.926177
_cell_length_b                    13.024916
_cell_length_c                    15.256522
_cell_angle_alpha                 117.124621
_cell_angle_beta                  63.347346
_cell_angle_gamma                 97.507531
_cell_volume                      2034.37355248

loop_
_atom_site_label
_atom_site_type_symbol
_atom_type_description
_atom_site_fract_x
_atom_site_fract_y
_atom_site_fract_z
_atom_type_partial_charge
C1    C     C_R   0.000419 0.833618 0.055618 -0.120948
C2    C     C_R   0.299270 0.596445 0.791048 -0.139252
C3    C     C_R   0.259726 0.414382 0.044962 -0.152621
C4    C     C_R   0.678047 0.478551 0.219493 -0.122404
C5    C     C_R   0.062695 0.278738 0.684168 -0.133175
C6    C     C_R   0.363196 0.431040 0.970038 0.151778
C7    C     C_R   0.060277 0.168273 0.676901 0.057135
C8    C     C_R   0.294345 0.571786 0.694850 0.051406
C9    C     C_R   0.003981 0.153445 0.047936 0.058190
C10   C     C_R   0.176589 0.964130 0.380737 -0.220546
C11   C     C_R   0.184204 0.054536 0.472675 0.317632
C12   C     C_R   0.668515 0.554737 0.323287 0.040653
C13   C     C_R   0.112254 0.058381 0.576816 0.098280
C14   C     C_R   0.066216 0.956469 0.581621 -0.220476
C15   C     C_R   0.062237 0.865822 0.489974 -0.170618
C16   C     C_R   0.756714 0.518218 0.891248 -0.166828
C17   C     C_R   0.106552 0.874988 0.391882 0.093108
C18   C     C_R   0.564286 0.661177 0.525794 -0.167002
C19   C     C_R   0.470674 0.663578 0.619077 -0.172025
C20   C     C_R   0.372596 0.607784 0.611186 0.141124
C21   C     C_R   0.360158 0.570948 0.514823 -0.167312
C22   C     C_R   0.453817 0.568624 0.421589 -0.162961
C23   C     C_R   0.664168 0.455819 0.921702 0.159301
C24   C     C_R   0.560343 0.601907 0.424362 0.143688
C25   C     C_2   0.477643 0.386885 0.938997 -0.196597
C26   C     C_2   0.571186 0.432094 0.888951 -0.202013
C27   C     C_2   0.831578 0.958871 0.094969 -0.216508
C28   C     C_R   0.012691 0.700915 0.304924 -0.141373
C29   C     C_2   0.819744 0.043731 0.191962 -0.136624
C30   C     C_R   0.677236 0.419164 0.987682 -0.128426
C31   C     C_R   0.094616 0.801466 0.210390 -0.149477
C32   C     C_R   0.780257 0.564002 0.315791 -0.124031
C33   C     C_R   0.900028 0.748350 0.957975 -0.147402
C34   C     C_R   0.070385 0.798033 0.307104 0.073374
C35   C     C_R   0.911989 0.853484 0.035155 0.139857
C36   C     C_3   0.269911 0.141679 0.455684 -1.066915
C37   C     C_R   0.339283 0.513954 0.947440 -0.113901
C38   C     C_R   0.982965 0.178978 0.780636 -0.124474
C39   C     C_R   0.197992 0.511456 0.695491 -0.137589
C40   C     C_R   0.049906 0.256635 0.090159 -0.132139
C41   C     C_R   0.947872 0.172758 0.996941 -0.116662
H1    H     H_    0.029797 0.895879 0.114226 0.094884
H2    H     H_    0.020542 0.950215 0.657809 0.122522
H3    H     H_    0.609030 0.449908 0.194925 0.091695
H4    H     H_    0.013955 0.794793 0.500520 0.112666
H5    H     H_    0.642754 0.695194 0.532292 0.107053
H6    H     H_    0.480774 0.699217 0.693788 0.105431
H7    H     H_    0.283098 0.533543 0.507333 0.105667
H8    H     H_    0.445204 0.529724 0.345970 0.107440
H9    H     H_    0.480740 0.339275 0.980492 0.122791
H10   H     H_    0.569503 0.475548 0.843559 0.125567
H11   H     H_    0.775476 0.965506 0.061707 0.133184
H12   H     H_    0.956220 0.110777 0.804910 0.089249
H13   H     H_    0.870570 0.041504 0.231638 0.127832
H14   H     H_    0.780673 0.546628 0.828702 0.091399
H15   H     H_    0.996585 0.660381 0.357247 0.083471
H16   H     H_    0.631082 0.355078 0.013479 0.082379
H17   H     H_    0.152093 0.856556 0.177866 0.087089
H18   H     H_    0.805940 0.614544 0.380451 0.091713
H19   H     H_    0.835636 0.731816 0.927434 0.100105
H20   H     H_    0.398719 0.551176 0.895450 0.089598
H21   H     H_    0.239830 0.197236 0.432392 0.246069
H22   H     H_    0.283968 0.195751 0.529775 0.262384
H23   H     H_    0.158229 0.492473 0.641457 0.084094
H24   H     H_    0.355680 0.095646 0.388377 0.263400
H25   H     H_    0.086609 0.277400 0.146807 0.088591
H26   H     H_    0.889560 0.115835 0.967982 0.087657
H27   H     H_    0.352755 0.656062 0.825163 0.083120
H28   H     H_    0.249155 0.359163 0.083221 0.094155
H29   H     H_    0.107337 0.304628 0.619697 0.120121
H30   H     H_    0.222213 0.965995 0.302260 0.124996
N1    N     N_R   0.037310 0.720000 0.995790 -0.044386
N2    N     N_R   0.824890 0.517960 0.936420 -0.038409
N3    N     N_R   0.003210 0.648190 0.211380 -0.037142
N4    N     N_R   0.774330 0.457010 0.995840 -0.043168
N5    N     N_R   0.053760 0.709140 0.151960 -0.037567
N6    N     N_R   0.853860 0.498840 0.211410 -0.039961
N7    N     N_R   0.974240 0.667310 0.936390 -0.040900
N8    N     N_R   0.225670 0.542990 0.004160 -0.045662
N9    N     N_R   0.946240 0.290860 0.848040 -0.040314
N10   N     N_R   0.146140 0.501160 0.788590 -0.037270
N11   N     N_R   0.025760 0.332690 0.063610 -0.038091
N12   N     N_R   0.962690 0.280000 0.004210 -0.041562
N13   N     N_R   0.209210 0.553840 0.847990 -0.037429
N14   N     N_R   0.175110 0.482040 0.063580 -0.040866
N15   N     N_R   0.996790 0.351810 0.788620 -0.041167
N16   N     N_R   0.790790 0.446160 0.152010 -0.040398
Ni1   Ni    Ni4+2 0.130310 0.630310 0.999970 0.209103
Ni2   Ni    Ni4+2 0.869690 0.369690 0.000030 0.212088
Ni3   Ni    Ni4+2 0.985640 0.509470 0.863740 0.209210
Ni4   Ni    Ni4+2 0.014360 0.490530 0.136260 0.212342

loop_
_geom_bond_atom_site_label_1
_geom_bond_atom_site_label_2
_ccdc_geom_bond_type
C3    N14   A    
C2    N13   A    
C19   C20   A    
C3    C6    A    
C28   N3    A    
C28   H15   S    
C41   H26   S    
C4    N16   A    
N7    Ni3   S    
C39   H23   S    
C37   N8    A    
C8    C20   S    
N3    N5    A    
C18   C24   A    
C31   H17   S    
C11   C36   S    
C3    H28   S    
N2    Ni3   S    
C2    H27   S    
C19   H6    S    
C33   N7    A    
C6    C25   S    
C27   C29   D    
C29   H13   S    
C10   C17   A    
C41   N12   A    
C30   H16   S    
C18   C19   A    
C23   C26   S    
N9    Ni2   S    
C25   H9    S    
N1    N7    A    
C32   N6    A    
N9    N15   A    
C8    C39   A    
C4    C12   A    
C36   H22   S    
N5    Ni1   S    
C21   H7    S    
C10   H30   S    
C28   C34   A    
C40   H25   S    
C13   C14   A    
C12   C32   A    
N2    N4    A    
C36   H21   S    
C18   H5    S    
N8    Ni1   S    
N1    Ni1   S    
N14   Ni4   S    
N12   Ni2   S    
C31   C34   A    
C1    N1    A    
C16   N2    A    
C23   C30   A    
C40   N11   A    
C39   N10   A    
N15   Ni3   S    
C5    C7    A    
C36   H24   S    
C4    H3    S    
C27   C35   S    
C25   C26   D    
C9    C40   A    
N11   Ni4   S    
N3    Ni4   S    
C5    H29   S    
C6    C37   A    
C22   H8    S    
N10   Ni3   S    
C16   C23   A    
N16   Ni2   S    
C22   C24   A    
C17   C34   S    
C5    N15   A    
N8    N14   A    
N10   N13   A    
C27   H11   S    
C1    C35   A    
C15   C17   A    
N6    Ni4   S    
C2    C8    A    
N13   Ni1   S    
C37   H20   S    
C33   H19   S    
C12   C24   S    
C9    C41   A    
C16   H14   S    
C26   H10   S    
C30   N4    A    
C11   C13   A    
C31   N5    A    
C38   H12   S    
C38   N9    A    
C33   C35   A    
C7    C38   A    
C10   C11   A    
N4    Ni2   S    
C1    H1    S    
C7    C13   S    
C20   C21   A    
N6    N16   A    
N11   N12   A    
C15   H4    S    
C14   C15   A    
C32   H18   S    
C21   C22   A    
C14   H2    S    
