data_mof_unit_31897.cif
_audit_creation_date              2012-12-11T14:34:09-0500
_audit_creation_method            fapswitch 2.2
_symmetry_space_group_name_H-M    P1
_symmetry_Int_Tables_number       1
_space_group_crystal_system       triclinic
_cell_length_a                    14.563059
_cell_length_b                    14.613879
_cell_length_c                    26.94619
_cell_angle_alpha                 90.583666
_cell_angle_beta                  89.749603
_cell_angle_gamma                 120.983672
_cell_volume                      4916.23529078

loop_
_atom_site_label
_atom_site_type_symbol
_atom_type_description
_atom_site_fract_x
_atom_site_fract_y
_atom_site_fract_z
_atom_type_partial_charge
C1    C     C_R   0.233628 0.789642 0.567252 0.548894
C2    C     C_1   0.656354 0.833535 0.871855 0.077429
C3    C     C_3   0.547798 0.549137 0.191416 -0.330628
C4    C     C_3   0.449560 0.999173 0.192233 -0.332897
C5    C     C_3   0.055203 0.498152 0.188446 -0.344498
C6    C     C_3   0.499343 0.530637 0.298859 -0.325275
C7    C     C_3   0.467440 0.953184 0.297324 -0.358017
C8    C     C_3   0.081091 0.542365 0.294465 -0.351654
C9    C     C_3   0.742211 0.028788 0.813691 -0.187125
C10   C     C_3   0.950850 0.724286 0.799562 -0.170986
C11   C     C_3   0.189481 0.175928 0.792262 -0.168962
C12   C     C_1   0.149732 0.837452 0.862892 0.108307
C13   C     C_1   0.182835 0.323398 0.869114 0.081156
C14   C     C_1   0.600350 0.787137 0.663547 0.173208
C15   C     C_1   0.183038 0.842778 0.652672 0.163171
C16   C     C_1   0.192872 0.396229 0.663718 0.150688
C17   C     C_1   0.584350 0.782617 0.619557 0.153889
C18   C     C_1   0.199428 0.820146 0.611514 0.141788
C19   C     C_1   0.200269 0.416579 0.620065 0.143096
C20   C     C_R   0.106266 0.219784 0.087911 0.575732
C21   C     C_R   0.214665 0.453525 0.569902 0.544910
C22   C     C_R   0.778931 0.884862 0.087254 0.571166
C23   C     C_R   0.114535 0.894045 0.087538 0.579288
C24   C     C_R   0.108484 0.221053 0.952869 0.574765
C25   C     C_R   0.777031 0.884309 0.953038 0.575641
C26   C     C_R   0.113763 0.892701 0.951723 0.572629
C27   C     C_R   0.659443 0.908054 0.365784 -0.045191
C28   C     C_R   0.091210 0.755182 0.368552 -0.051254
C29   C     C_R   0.240432 0.335687 0.367971 -0.045829
C30   C     C_R   0.695612 0.923542 0.315780 -0.019734
C31   C     C_R   0.073776 0.756628 0.316114 -0.027668
C32   C     C_R   0.548382 0.762731 0.569280 0.544867
C33   C     C_R   0.244562 0.321065 0.315367 -0.022459
C34   C     C_R   0.721110 0.945900 0.212191 -0.017274
C35   C     C_R   0.052342 0.763279 0.210988 -0.017455
C36   C     C_R   0.243142 0.295404 0.210091 -0.015158
C37   C     C_R   0.233363 0.788938 0.432506 0.526602
C38   C     C_R   0.210430 0.444946 0.432287 0.524026
C39   C     C_R   0.555200 0.766753 0.432321 0.535784
C40   C     C_R   0.772074 0.037301 0.243607 0.285140
C41   C     C_R   0.961044 0.704565 0.241329 0.293147
C42   C     C_R   0.294962 0.257912 0.240996 0.287522
C43   C     C_3   0.631499 0.714419 0.798524 0.136068
C44   C     C_R   0.763535 0.024884 0.295261 0.249291
C45   C     C_R   0.971732 0.695481 0.292571 0.236814
C46   C     C_R   0.301024 0.275680 0.292604 0.235221
C47   C     C_R   0.726939 0.953141 0.160179 0.241978
C48   C     C_R   0.045432 0.768314 0.158841 0.240389
C49   C     C_R   0.236363 0.280978 0.158058 0.241235
C50   C     C_R   0.716507 0.866411 0.132486 0.002913
C51   C     C_R   0.131822 0.851152 0.133059 0.003262
C52   C     C_R   0.154058 0.284343 0.132524 0.001669
C53   C     C_R   0.627476 0.728123 0.357940 0.219682
C54   C     C_3   0.263088 0.939911 0.789667 0.113844
C55   C     C_R   0.275658 0.896329 0.357300 0.224242
C56   C     C_R   0.111831 0.391362 0.353978 0.246059
C57   C     C_R   0.621171 0.731760 0.306529 0.047089
C58   C     C_R   0.267805 0.882808 0.306254 0.051896
C59   C     C_R   0.133261 0.401675 0.303625 0.060397
C60   C     C_R   0.662002 0.832545 0.285091 -0.044497
C61   C     C_R   0.165026 0.820076 0.285244 -0.049145
C62   C     C_R   0.191274 0.357135 0.283614 -0.037600
C63   C     C_R   0.575376 0.638396 0.276598 0.061789
C64   C     C_R   0.360796 0.928950 0.276160 0.073907
C65   C     C_3   0.135571 0.410695 0.804838 0.146066
C66   C     C_R   0.099875 0.457363 0.273059 0.055651
C67   C     C_R   0.589109 0.647755 0.224590 0.044274
C68   C     C_R   0.350786 0.938382 0.224908 0.046508
C69   C     C_R   0.095709 0.442075 0.221394 0.041917
C70   C     C_R   0.641206 0.750945 0.203465 0.037520
C71   C     C_R   0.246842 0.888449 0.204092 0.037163
C72   C     C_R   0.132518 0.376914 0.201693 0.048799
C73   C     C_3   0.502169 0.762054 0.744132 0.109917
C74   C     C_3   0.171678 0.749551 0.728402 0.083969
C75   C     C_3   0.306034 0.415608 0.737365 0.073663
C76   C     C_3   0.643878 0.716563 0.740310 0.368341
C77   C     C_R   0.673843 0.842988 0.233559 -0.037308
C78   C     C_R   0.154624 0.822843 0.233478 -0.042772
C79   C     C_R   0.190903 0.344834 0.231852 -0.033048
C80   C     C_R   0.667136 0.765282 0.153110 -0.133993
C81   C     C_R   0.232548 0.905366 0.154608 -0.129652
C82   C     C_R   0.106329 0.336348 0.153561 -0.121311
C83   C     C_R   0.621672 0.805686 0.386832 0.020165
C84   C     C_R   0.196300 0.817514 0.387289 0.013571
C85   C     C_R   0.181736 0.381509 0.385869 0.021499
C86   C     C_3   0.694367 0.914540 0.732608 0.423936
C87   C     C_3   0.267731 0.952975 0.731718 0.370903
C88   C     C_3   0.061206 0.835849 0.724006 0.432698
C89   C     C_3   0.116643 0.253035 0.728401 0.428862
C90   C     C_3   0.718844 0.921010 0.790060 0.195569
C91   C     C_3   0.053824 0.826821 0.783629 0.172565
C92   C     C_3   0.130372 0.235536 0.785680 0.177502
C93   C     C_1   0.704601 0.855955 0.911090 0.083756
C94   C     C_1   0.134533 0.855301 0.905360 0.102387
C95   C     C_1   0.154687 0.284337 0.909541 0.101969
C96   C     C_3   0.611261 0.795259 0.718469 -0.037319
C97   C     C_3   0.170728 0.848836 0.707441 -0.073300
C98   C     C_3   0.143175 0.436244 0.748019 0.401432
C99   C     C_3   0.188474 0.374686 0.717756 -0.060282
C100  C     C_3   0.515674 0.791392 0.801452 0.068297
C101  C     C_3   0.169294 0.743111 0.786612 0.068704
C102  C     C_3   0.308245 0.415904 0.795695 0.041580
C103  C     C_3   0.629898 0.817081 0.817653 -0.065055
C104  C     C_3   0.157660 0.835547 0.807322 -0.080166
C105  C     C_3   0.190556 0.345482 0.815314 -0.083981
C106  C     C_3   0.653778 0.995529 0.394170 -0.298444
C107  C     C_3   0.001732 0.701765 0.406141 -0.274332
C108  C     C_3   0.283873 0.292424 0.406193 -0.275012
Cl1   Cl    Cl    0.482106 0.888028 0.819594 -0.545696
Cl2   Cl    Cl    0.864274 0.166060 0.220660 -0.450986
Cl3   Cl    Cl    0.829686 0.655173 0.218370 -0.458668
Cl4   Cl    Cl    0.338285 0.172274 0.217959 -0.463740
Cl5   Cl    Cl    0.862036 0.128441 0.332953 -0.458520
Cl6   Cl    Cl    0.854253 0.596947 0.323037 -0.461655
Cl7   Cl    Cl    0.389457 0.247563 0.324909 -0.475692
Cl8   Cl    Cl    0.426983 0.798597 0.708020 -0.485414
Cl9   Cl    Cl    0.082267 0.629369 0.695419 -0.333376
Cl10  Cl    Cl    0.371945 0.353493 0.707861 -0.301359
Cl11  Cl    Cl    0.664099 0.640785 0.384697 -0.464224
Cl12  Cl    Cl    0.079423 0.615511 0.813489 -0.453037
Cl13  Cl    Cl    0.373289 0.022178 0.382701 -0.477787
Cl14  Cl    Cl    0.987554 0.372975 0.375616 -0.441233
Cl15  Cl    Cl    0.811907 0.966048 0.693932 -0.252291
Cl16  Cl    Cl    0.039260 0.936740 0.701064 -0.245859
Cl17  Cl    Cl    0.979686 0.200422 0.711399 -0.264574
Cl18  Cl    Cl    0.646653 0.002118 0.715222 -0.319320
Cl19  Cl    Cl    0.953570 0.725920 0.690155 -0.333172
Cl20  Cl    Cl    0.145919 0.179000 0.684145 -0.337702
Cl21  Cl    Cl    0.839089 0.922275 0.799735 -0.353895
Cl22  Cl    Cl    0.042097 0.929517 0.813477 -0.469231
Cl23  Cl    Cl    0.405709 0.390969 0.823161 -0.416147
Cl24  Cl    Cl    0.004926 0.150160 0.815334 -0.436018
Cl25  Cl    Cl    0.565445 0.585614 0.715452 -0.415894
Cl26  Cl    Cl    0.395078 0.982088 0.709602 -0.305987
Cl27  Cl    Cl    0.236113 0.574740 0.741825 -0.619538
Cl28  Cl    Cl    0.770222 0.747501 0.719533 -0.283886
Cl29  Cl    Cl    0.277765 0.072814 0.711724 -0.306774
Cl30  Cl    Cl    0.017509 0.413156 0.724309 -0.199057
Cl31  Cl    Cl    0.710454 0.675635 0.833272 -0.442703
Cl32  Cl    Cl    0.304034 0.058729 0.825460 -0.445836
Cl33  Cl    Cl    0.003769 0.356238 0.831951 -0.353211
Cl34  Cl    Cl    0.731394 0.061310 0.128686 -0.502178
Cl35  Cl    Cl    0.941257 0.663023 0.123654 -0.498163
Cl36  Cl    Cl    0.338258 0.277751 0.123155 -0.504631
Cr1   Cr    Cr6+3 0.164410 0.584450 0.499910 1.129153
Cr2   Cr    Cr6+3 0.415550 0.579960 0.499910 1.119336
Cr3   Cr    Cr6+3 0.420040 0.835590 0.499910 1.118710
Cr4   Cr    Cr6+3 0.155170 0.075460 0.019960 1.161628
Cr5   Cr    Cr6+3 0.924540 0.079710 0.019960 1.151979
Cr6   Cr    Cr6+3 0.920290 0.844830 0.019960 1.157757
H1    H     H_    0.451920 0.674305 0.742113 0.147056
H2    H     H_    0.551475 0.643775 0.806967 0.150948
H3    H     H_    0.329888 0.928714 0.799785 0.222576
H4    H     H_    0.181021 0.486742 0.826283 0.182273
H5    H     H_    0.679859 0.068343 0.372280 0.202218
H6    H     H_    0.570140 0.971141 0.403050 0.170542
H7    H     H_    0.702252 0.016641 0.428647 0.195056
H8    H     H_    0.965983 0.613915 0.404805 0.217165
H9    H     H_    0.029675 0.728982 0.444685 0.143956
H10   H     H_    0.941224 0.724970 0.399815 0.218859
H11   H     H_    0.372638 0.341332 0.407329 0.209463
H12   H     H_    0.247327 0.760228 0.717258 0.242326
H13   H     H_    0.254190 0.292770 0.444157 0.146952
H14   H     H_    0.254511 0.207041 0.398328 0.214649
H15   H     H_    0.508865 0.472481 0.211415 0.176091
H16   H     H_    0.488523 0.546104 0.164637 0.130446
H17   H     H_    0.615190 0.551684 0.170843 0.218494
H18   H     H_    0.526654 0.034480 0.212345 0.171394
H19   H     H_    0.449626 0.944890 0.163111 0.132013
H20   H     H_    0.449736 0.067421 0.174509 0.216414
H21   H     H_    0.101270 0.585440 0.195354 0.121412
H22   H     H_    0.065349 0.490541 0.148245 0.144157
H23   H     H_    0.357015 0.498804 0.725383 0.192982
H24   H     H_    0.969180 0.467097 0.196136 0.215667
H25   H     H_    0.424125 0.492296 0.277096 0.084485
H26   H     H_    0.535994 0.480252 0.298283 0.243022
H27   H     H_    0.474389 0.535540 0.337233 0.168465
H28   H     H_    0.503425 0.917900 0.273155 0.096254
H29   H     H_    0.523090 0.040709 0.300806 0.211818
H30   H     H_    0.457926 0.915288 0.333844 0.143274
H31   H     H_    0.132962 0.618490 0.275145 0.089895
H32   H     H_    0.995637 0.517341 0.290048 0.221090
H33   H     H_    0.104835 0.561467 0.333948 0.165529
H34   H     H_    0.455066 0.719398 0.821870 0.139239
H35   H     H_    0.773994 0.039813 0.852049 0.170713
H36   H     H_    0.803069 0.096224 0.791305 0.266339
H37   H     H_    0.672879 0.039424 0.815086 0.222320
H38   H     H_    0.946016 0.712109 0.840306 0.183366
H39   H     H_    0.883478 0.732077 0.788543 0.278617
H40   H     H_    0.938232 0.651519 0.780426 0.244329
H41   H     H_    0.147399 0.101715 0.770982 0.284027
H42   H     H_    0.271031 0.217755 0.777613 0.257394
H43   H     H_    0.192201 0.158151 0.831995 0.216265
H44   H     H_    0.247848 0.755730 0.798920 0.202667
H45   H     H_    0.339061 0.499640 0.808146 0.123649
H46   H     H_    0.654709 0.699386 0.129655 0.156990
H47   H     H_    0.298681 0.963537 0.132464 0.162396
H48   H     H_    0.044107 0.338856 0.132994 0.174772
O1    O     O_R   0.137150 0.468200 0.553200 -0.455882
O2    O     O_R   0.140110 0.470540 0.446010 -0.446578
O3    O     O_R   0.529460 0.669570 0.446010 -0.446408
O4    O     O_R   0.330430 0.859890 0.446010 -0.458964
O5    O     O_R   0.176710 0.690910 0.450560 -0.518826
O6    O     O_R   0.309090 0.485800 0.450560 -0.516982
O7    O     O_R   0.514200 0.823290 0.450560 -0.530549
O8    O     O_3   0.333333 0.666667 0.499990 -0.340713
O9    O     O_R   0.176750 0.985260 0.074180 -0.490852
O10   O     O_R   0.014740 0.191490 0.074180 -0.486147
O11   O     O_R   0.808510 0.823250 0.074180 -0.493896
O12   O     O_R   0.531800 0.668950 0.553200 -0.466305
O13   O     O_R   0.146100 0.172630 0.068980 -0.454204
O14   O     O_R   0.827370 0.973470 0.068980 -0.451750
O15   O     O_R   0.026530 0.853900 0.068980 -0.451617
O16   O     O_3   1.000000 0.000000 0.020040 -0.290078
O17   O     O_R   0.148270 0.170520 0.969620 -0.490386
O18   O     O_R   0.829480 0.977750 0.969620 -0.491395
O19   O     O_R   0.022250 0.851730 0.969620 -0.485433
O20   O     O_R   0.331050 0.862850 0.553200 -0.459589
O21   O     O_R   0.179100 0.982980 0.967000 -0.476375
O22   O     O_R   0.017020 0.196120 0.967000 -0.475578
O23   O     O_R   0.803880 0.820900 0.967000 -0.473394
O24   O     O_R   0.173970 0.688730 0.549930 -0.473768
O25   O     O_R   0.311270 0.485240 0.549930 -0.486537
O26   O     O_R   0.514760 0.826030 0.549930 -0.469417

loop_
_geom_bond_atom_site_label_1
_geom_bond_atom_site_label_2
_ccdc_geom_bond_type
C8    H31   S    
C26   C94   S    
C15   C18   T    
C55   Cl13  S    
C25   C93   S    
C86   Cl18  S    
C5    H24   S    
C31   C61   A    
C36   C42   A    
C87   Cl26  S    
Cr5   O14   S    
C91   C104  S    
Cr2   O8    S    
C12   C94   T    
C102  H45   S    
C107  H8    S    
C54   H3    S    
C107  H10   S    
C76   Cl28  S    
C3    H17   S    
C91   Cl22  S    
C89   Cl17  S    
C8    C66   S    
C108  H14   S    
C47   Cl34  S    
C3    H15   S    
C1    C18   S    
C10   H40   S    
C73   Cl8   S    
C4    H20   S    
C46   Cl7   S    
C89   C99   S    
C34   C40   A    
C64   C68   A    
C54   C104  S    
C19   C21   S    
C15   C97   S    
C65   C98   S    
C12   C104  S    
Cr2   O3    S    
C9    H35   S    
C16   C19   T    
C34   C77   A    
C81   H47   S    
C54   C87   S    
C24   O17   A    
Cr6   O15   S    
C66   C69   A    
C28   C84   A    
C6    H25   S    
C28   C107  S    
C49   Cl36  S    
C29   C33   A    
C32   O12   A    
C102  C105  S    
C11   H42   S    
C42   C46   A    
C20   O13   A    
C14   C96   S    
Cr3   O7    S    
Cr1   O1    S    
C42   Cl4   S    
Cr5   O16   S    
C5    C69   S    
Cr4   O9    S    
Cr2   O12   S    
C90   Cl21  S    
C45   Cl6   S    
Cr6   O19   S    
C48   C51   A    
C54   Cl32  S    
C33   C62   A    
C22   O14   A    
C75   C102  S    
Cr2   O6    S    
C37   O4    A    
C29   C108  S    
C25   O23   A    
C1    O20   A    
C47   C50   A    
C87   C97   S    
C51   C81   A    
C29   C85   A    
C88   C97   S    
C88   Cl16  S    
C22   C50   S    
C23   O9    A    
C58   C61   A    
C100  Cl1   S    
Cr3   O26   S    
C38   O6    A    
C73   H1    S    
C70   C77   A    
C33   C46   A    
C14   C17   T    
C30   C44   A    
C75   Cl10  S    
C21   O1    A    
C35   C41   A    
C35   C48   A    
C11   C92   S    
Cr5   O10   S    
C65   C105  S    
Cr1   O8    S    
C32   O26   A    
C57   C63   A    
C74   C97   S    
C75   H23   S    
Cr3   O4    S    
C58   C64   A    
C80   H46   S    
C108  H13   S    
C63   C67   A    
C60   C77   A    
C10   H39   S    
C4    H19   S    
C38   C85   S    
C70   C80   A    
Cr6   O11   S    
C62   C79   A    
C102  Cl23  S    
Cr1   O2    S    
C13   C105  S    
C9    H36   S    
C86   C90   S    
C73   C100  S    
C74   H12   S    
C27   C30   A    
C57   C60   A    
C40   Cl2   S    
Cr1   O24   S    
C27   C106  S    
C98   Cl27  S    
C100  C103  S    
C4    H18   S    
C7    H28   S    
C30   C60   A    
C1    O24   A    
C98   Cl30  S    
Cr5   O22   S    
C56   Cl14  S    
C6    C63   S    
Cr3   O8    S    
C28   C31   A    
C65   H4    S    
C65   Cl33  S    
C23   C51   S    
C88   C91   S    
C61   C78   A    
C49   C52   A    
C72   C79   A    
C75   C99   S    
C37   O5    A    
C7    H29   S    
C37   C84   S    
C89   C92   S    
C52   C82   A    
C86   C96   S    
C74   C101  S    
C24   O22   A    
C8    H33   S    
C13   C95   T    
C10   C91   S    
C98   C99   S    
C101  C104  S    
C106  H6    S    
C39   O3    A    
C6    H27   S    
C41   Cl3   S    
Cr6   O23   S    
C38   O2    A    
C22   O11   A    
C24   C95   S    
C20   O10   A    
Cr4   O17   S    
C69   C72   A    
C101  H44   S    
C5    H21   S    
C4    C68   S    
C23   O15   A    
C8    H32   S    
C43   C76   S    
C74   Cl9   S    
Cr4   O13   S    
C59   C62   A    
C53   C57   A    
C7    C64   S    
C21   O25   A    
C92   Cl24  S    
C26   O21   A    
C101  Cl12  S    
C2    C93   T    
C3    C67   S    
C11   H43   S    
C9    H37   S    
C36   C79   A    
C50   C80   A    
C9    C90   S    
C44   Cl5   S    
C107  H9    S    
C76   Cl25  S    
C53   Cl11  S    
C16   C99   S    
C82   H48   S    
C43   Cl31  S    
C88   Cl19  S    
C106  H7    S    
C108  H11   S    
C35   C78   A    
C56   C59   A    
C53   C83   A    
C67   C70   A    
C27   C83   A    
Cr5   O18   S    
C39   C83   S    
C59   C66   A    
Cr3   O20   S    
C76   C96   S    
Cr2   O25   S    
C56   C85   A    
C6    H26   S    
C2    C103  S    
C68   C71   A    
C39   O7    A    
C5    H22   S    
C7    H30   S    
C11   H41   S    
Cr6   O16   S    
C100  H34   S    
Cr4   O21   S    
C43   C103  S    
C90   C103  S    
C36   C49   A    
C25   O18   A    
C92   C105  S    
C40   C44   A    
C48   Cl35  S    
C20   C52   S    
C106  H5    S    
C31   C45   A    
C55   C58   A    
Cr1   O5    S    
C86   Cl15  S    
C17   C32   S    
C41   C45   A    
C34   C47   A    
C73   C96   S    
C71   C81   A    
C55   C84   A    
C87   Cl29  S    
Cr4   O16   S    
C10   H38   S    
C71   C78   A    
C72   C82   A    
C43   H2    S    
C3    H16   S    
C26   O19   A    
C89   Cl20  S    
