data_mof_unit_56304.cif
_audit_creation_date              2012-12-10T17:55:53-0500
_audit_creation_method            fapswitch 2.2
_symmetry_space_group_name_H-M    P1
_symmetry_Int_Tables_number       1
_space_group_crystal_system       triclinic
_cell_length_a                    11.051
_cell_length_b                    10.825432
_cell_length_c                    9.525825
_cell_angle_alpha                 89.781708
_cell_angle_beta                  102.492944
_cell_angle_gamma                 90.446867
_cell_volume                      1112.57307393

loop_
_atom_site_label
_atom_site_type_symbol
_atom_type_description
_atom_site_fract_x
_atom_site_fract_y
_atom_site_fract_z
_atom_type_partial_charge
C1    C     C_R   0.499172 0.262105 0.499956 0.787820
C2    C     C_R   0.499393 0.737904 0.499762 0.783690
C3    C     C_R   0.262796 0.501145 0.441856 0.863957
C4    C     C_R   0.737227 0.501299 0.558063 0.869999
C5    C     C_R   0.424079 0.421984 0.056200 -0.241667
C6    C     C_R   0.577536 0.576380 0.944256 -0.238519
C7    C     C_R   0.421718 0.422495 0.905306 0.575403
C8    C     C_R   0.576766 0.578819 0.094163 0.574241
C9    C     C_2   0.128009 0.503304 0.408792 -0.354148
C10   C     C_2   0.872032 0.505610 0.590620 -0.368998
C11   C     C_2   0.067141 0.513222 0.514844 -0.173003
C12   C     C_2   0.932639 0.509648 0.483685 -0.133491
C13   C     C_R   0.476402 0.064225 0.369145 -0.188172
C14   C     C_R   0.517885 0.935802 0.630289 -0.192332
C15   C     C_R   0.475903 0.936414 0.369017 -0.200425
C16   C     C_R   0.517445 0.063601 0.630416 -0.170103
C17   C     C_R   0.497856 0.871758 0.499579 -0.011167
C18   C     C_R   0.497660 0.128257 0.499884 -0.014413
Cu1   Cu    Cu3+1 0.500000 0.500020 0.640660 0.975936
Cu2   Cu    Cu3+1 0.500000 0.499980 0.359340 0.975075
H1    H     H_    0.882991 0.508563 0.371825 0.206244
H2    H     H_    0.116683 0.522251 0.626150 0.174375
H3    H     H_    0.367084 0.358319 0.101301 0.164369
H4    H     H_    0.640919 0.634137 0.901209 0.164305
H5    H     H_    0.922007 0.505890 0.702295 0.140957
H6    H     H_    0.078226 0.495662 0.297424 0.149155
H7    H     H_    0.459503 0.112655 0.267081 0.146398
H8    H     H_    0.534804 0.887415 0.732391 0.145208
H9    H     H_    0.457854 0.888466 0.266931 0.141013
H10   H     H_    0.533804 0.111526 0.732514 0.165897
N1    N     N_R   0.500030 0.500030 0.852080 -0.214868
N2    N     N_R   0.499970 0.499970 0.147920 -0.214223
O1    O     O_R   0.499990 0.319660 0.618740 -0.537716
O2    O     O_R   0.500010 0.680340 0.381260 -0.560962
O3    O     O_R   0.499990 0.319630 0.381170 -0.597721
O4    O     O_R   0.500010 0.680370 0.618830 -0.597831
O5    O     O_R   0.320690 0.500020 0.575130 -0.550874
O6    O     O_R   0.679310 0.499980 0.424870 -0.531461
O7    O     O_R   0.320680 0.499990 0.337560 -0.592271
O8    O     O_R   0.679320 0.500010 0.662440 -0.591803
O9    O     O_3   0.352387 0.337437 0.811246 -0.552236
C19   C     C_3   0.232874 0.314194 0.837220 0.037590
H11   H     H_    0.165620 0.318389 0.732349 0.179676
H12   H     H_    0.200877 0.383690 0.906948 0.105401
C20   C     C_3   0.226259 0.183848 0.896478 -0.834898
H13   H     H_    0.294471 0.172106 0.999591 0.230502
H14   H     H_    0.131860 0.165579 0.914708 0.212627
H15   H     H_    0.246456 0.115382 0.818221 0.257597
O10   O     O_3   0.661317 0.649322 0.191294 -0.556191
C21   C     C_3   0.675337 0.771304 0.142629 0.041091
H16   H     H_    0.666069 0.835397 0.230239 0.180040
H17   H     H_    0.603676 0.799903 0.046921 0.102183
C22   C     C_3   0.805165 0.789234 0.115032 -0.837206
H18   H     H_    0.821213 0.725352 0.030269 0.234894
H19   H     H_    0.816614 0.885724 0.079890 0.212098
H20   H     H_    0.875482 0.771039 0.215265 0.258959

loop_
_geom_bond_atom_site_label_1
_geom_bond_atom_site_label_2
_ccdc_geom_bond_type
C21   H17   S    
C11   C12   S    
C6    N1    A    
C3    C9    S    
C12   H1    S    
Cu2   O6    S    
O9    C19   S    
C11   H2    S    
Cu1   Cu2   S    
C5    H3    S    
C5    N2    A    
C6    H4    S    
Cu1   N1    S    
C2    O2    A    
C20   H14   S    
C21   H16   S    
C3    O7    A    
C22   H18   S    
C2    C17   S    
C9    C11   D    
C14   C17   A    
C3    O5    A    
C1    C18   S    
C19   H12   S    
C13   C18   A    
C10   C12   D    
C10   H5    S    
C7    O9    S    
C4    O6    A    
C9    H6    S    
C15   H9    S    
C5    C7    A    
Cu1   O4    S    
C13   C15   A    
Cu1   O1    S    
C14   C16   A    
C22   H20   S    
C21   C22   S    
C7    N1    A    
Cu1   O8    S    
C22   H19   S    
C1    O1    A    
Cu2   O2    S    
C8    N2    A    
C16   H10   S    
C1    O3    A    
C16   C18   A    
O10   C21   S    
Cu2   N2    S    
C20   H15   S    
C2    O4    A    
C15   C17   A    
Cu2   O7    S    
C13   H7    S    
C6    C8    A    
Cu1   O5    S    
C14   H8    S    
C20   H13   S    
Cu2   O3    S    
C4    C10   S    
C8    O10   S    
C4    O8    A    
C19   H11   S    
C19   C20   S    
