data_mof_unit_30538.cif
_audit_creation_date              2012-12-10T17:49:35-0500
_audit_creation_method            fapswitch 2.2
_symmetry_space_group_name_H-M    P1
_symmetry_Int_Tables_number       1
_space_group_crystal_system       triclinic
_cell_length_a                    14.744558
_cell_length_b                    14.610166
_cell_length_c                    15.878948
_cell_angle_alpha                 76.589305
_cell_angle_beta                  101.905949
_cell_angle_gamma                 114.842256
_cell_volume                      2996.43640389

loop_
_atom_site_label
_atom_site_type_symbol
_atom_type_description
_atom_site_fract_x
_atom_site_fract_y
_atom_site_fract_z
_atom_type_partial_charge
C1    C     C_R   0.880343 0.311905 0.515168 0.804853
C2    C     C_3   0.063946 0.426645 0.080236 -0.286534
C3    C     C_3   0.014462 0.502154 0.086314 0.153652
C4    C     C_3   0.075061 0.611852 0.038810 0.247359
C5    C     C_3   0.064425 0.611318 0.940071 -0.375669
C6    C     C_1   0.010156 0.502445 0.177660 -0.077541
C7    C     C_1   0.012557 0.506758 0.825865 -0.086198
C8    C     C_1   0.007065 0.508361 0.748912 -0.203143
C9    C     C_R   0.811704 0.203477 0.528068 -0.070994
C10   C     C_R   0.187644 0.797041 0.472428 -0.075803
C11   C     C_R   0.777758 0.025095 0.587862 -0.007631
C12   C     C_R   0.002059 0.503729 0.659198 0.828603
C13   C     C_R   0.845893 0.126800 0.570891 -0.258922
C14   C     C_R   0.709022 0.178225 0.500602 -0.275567
C15   C     C_R   0.637684 0.078289 0.519231 0.066954
C16   C     C_R   0.672989 0.000150 0.561877 0.112160
C17   C     C_R   0.532244 0.054206 0.496229 0.086821
C18   C     C_R   0.464389 0.950230 0.505970 0.069203
C19   C     C_R   0.501358 0.874557 0.548942 -0.220243
C20   C     C_R   0.603094 0.898912 0.576222 -0.243762
C21   C     C_R   0.491550 0.130319 0.468283 -0.243365
C22   C     C_R   0.388109 0.104527 0.456979 -0.203502
C23   C     C_R   0.119629 0.688136 0.483242 0.826706
C24   C     C_R   0.321627 0.002374 0.464295 0.125843
C25   C     C_R   0.359660 0.925100 0.479647 -0.020762
C26   C     C_R   0.217532 0.976115 0.456744 -0.205434
C27   C     C_R   0.151364 0.873572 0.465252 -0.287618
C28   C     C_R   0.290724 0.824698 0.469672 0.335358
C29   C     C_R   0.728046 0.684855 0.369024 0.274334
C30   C     C_R   0.805758 0.649351 0.388737 -0.034431
C31   C     C_R   0.707261 0.500471 0.476724 -0.011912
C32   C     C_R   0.629509 0.536275 0.469488 -0.084783
C33   C     C_R   0.642033 0.632378 0.414672 0.077128
C34   C     C_R   0.001262 0.500484 0.340751 0.825116
C35   C     C_R   0.539834 0.479416 0.513051 -0.035799
C36   C     C_R   0.460396 0.515753 0.492834 0.049125
C37   C     C_R   0.478544 0.613235 0.442434 -0.300936
C38   C     C_R   0.567892 0.672687 0.406277 0.009215
C39   C     C_R   0.527298 0.390219 0.578526 -0.087917
C40   C     C_R   0.433722 0.330182 0.609336 0.351012
C41   C     C_R   0.356829 0.367159 0.590168 0.042494
C42   C     C_R   0.368256 0.458757 0.530585 -0.070317
C43   C     C_R   0.271382 0.317599 0.635092 -0.295965
C44   C     C_R   0.196807 0.355720 0.617881 0.077666
C45   C     C_3   0.066659 0.423538 0.979606 0.020363
C46   C     C_R   0.285817 0.489642 0.511864 0.063149
C47   C     C_3   0.904795 0.461332 0.941096 -0.457038
C48   C     C_3   0.903409 0.459529 0.039038 -0.120483
C49   C     C_1   0.005352 0.501803 0.252091 -0.171012
C50   C     C_3   0.015414 0.500217 0.920203 0.167632
Cu1   Cu    Cu3+1 0.081750 0.475690 0.522550 0.955596
Cu2   Cu    Cu3+1 0.918250 0.524310 0.477450 0.935517
H1    H     H_    0.011052 0.353430 0.109983 0.130957
H2    H     H_    0.626227 0.836801 0.607789 0.161442
H3    H     H_    0.071828 0.854382 0.464441 0.165964
H4    H     H_    0.360097 0.164978 0.442158 0.136809
H5    H     H_    0.925506 0.146162 0.592491 0.155759
H6    H     H_    0.686437 0.238262 0.463049 0.153448
H7    H     H_    0.451550 0.795626 0.565911 0.195891
H8    H     H_    0.537225 0.211049 0.461084 0.130691
H9    H     H_    0.187735 0.034588 0.447423 0.143692
H10   H     H_    0.282399 0.551078 0.460414 0.157885
H11   H     H_    0.130674 0.316798 0.651689 0.119248
H12   H     H_    0.874658 0.691776 0.359122 0.132138
H13   H     H_    0.699620 0.424844 0.507976 0.151436
H14   H     H_    0.867395 0.510693 0.899640 0.154881
H15   H     H_    0.426100 0.648914 0.434633 0.160656
H16   H     H_    0.262099 0.250973 0.685029 0.157887
H17   H     H_    0.858023 0.384344 0.923782 0.181452
H18   H     H_    0.868974 0.377082 0.067024 0.106965
H19   H     H_    0.135412 0.657983 0.911306 0.133379
H20   H     H_    0.016211 0.653273 0.904548 0.188680
H21   H     H_    0.156057 0.636753 0.062774 0.075478
N1    N     N_R   0.795410 0.560790 0.443550 -0.193145
N2    N     N_R   0.204590 0.439170 0.556520 -0.181981
O1    O     O_R   0.977910 0.338120 0.529720 -0.593892
O2    O     O_R   0.839850 0.379180 0.491640 -0.587978
O3    O     O_R   0.069060 0.479460 0.639610 -0.583320
O4    O     O_R   0.931000 0.520530 0.601530 -0.561450
O5    O     O_R   0.160150 0.620820 0.508360 -0.526265
O6    O     O_R   0.022090 0.661880 0.470280 -0.608316
O7    O     O_R   0.069000 0.479470 0.398470 -0.576611
O8    O     O_R   0.930940 0.520540 0.360390 -0.570670
C51   C     C_R   0.179675 0.452579 0.965890 0.118649
C52   C     C_R   0.255977 0.551769 0.969215 -0.119682
C53   C     C_R   0.355518 0.575219 0.958397 -0.134074
C54   C     C_R   0.384111 0.499430 0.948503 -0.099733
C55   C     C_R   0.313974 0.399244 0.952859 -0.124578
C56   C     C_R   0.214522 0.375640 0.963757 -0.165568
H22   H     H_    0.243986 0.611525 0.986191 0.105933
H23   H     H_    0.411441 0.652201 0.960372 0.124618
H24   H     H_    0.461464 0.517609 0.941044 0.127646
H25   H     H_    0.337069 0.339006 0.949745 0.133599
H26   H     H_    0.166443 0.295319 0.973333 0.138175
C57   C     C_R   0.159128 0.427422 0.143838 0.135306
C58   C     C_R   0.180622 0.338836 0.160390 -0.128043
C59   C     C_R   0.263459 0.332041 0.218748 -0.138170
C60   C     C_R   0.325652 0.412693 0.263301 -0.104801
C61   C     C_R   0.304615 0.499842 0.249817 -0.126407
C62   C     C_R   0.222211 0.507451 0.191138 -0.129167
H27   H     H_    0.132369 0.274236 0.127934 0.120464
H28   H     H_    0.278849 0.263693 0.229954 0.126093
H29   H     H_    0.389385 0.407207 0.309091 0.127853
H30   H     H_    0.351573 0.561342 0.285823 0.127268
H31   H     H_    0.208277 0.575064 0.186445 0.107101
O9    O     O_3   0.042546 0.684511 0.052271 -0.734645
H32   H     H_    0.076466 0.704956 0.109787 0.323328
O10   O     O_3   0.320179 0.755769 0.448177 -0.770404
H33   H     H_    0.379601 0.794807 0.416050 0.318537
C63   C     C_R   0.818667 0.947081 0.633008 0.101431
C64   C     C_R   0.879195 0.923169 0.591213 -0.174338
C65   C     C_R   0.916020 0.847924 0.632904 -0.125000
C66   C     C_R   0.893688 0.797023 0.716882 -0.104085
C67   C     C_R   0.834948 0.821711 0.759468 -0.135518
C68   C     C_R   0.797740 0.896709 0.717892 -0.165470
H34   H     H_    0.896615 0.961778 0.526001 0.124055
H35   H     H_    0.961701 0.828938 0.600044 0.129976
H36   H     H_    0.922034 0.738630 0.749014 0.114668
H37   H     H_    0.818051 0.782551 0.824609 0.119145
H38   H     H_    0.752066 0.915030 0.751383 0.121073
C69   C     C_R   0.000008 0.314851 0.951041 0.086360
C70   C     C_R   0.010781 0.297024 0.869796 -0.174766
C71   C     C_R   0.953177 0.204699 0.839175 -0.159825
C72   C     C_R   0.880888 0.126960 0.887337 -0.106750
C73   C     C_R   0.865930 0.141673 0.966000 -0.126138
C74   C     C_R   0.923508 0.233786 0.997462 -0.176830
H39   H     H_    0.066579 0.354311 0.829964 0.154154
H40   H     H_    0.964444 0.193856 0.777511 0.131924
H41   H     H_    0.835746 0.055624 0.863304 0.121796
H42   H     H_    0.808141 0.081636 0.002565 0.130788
H43   H     H_    0.901645 0.238385 0.056162 0.109535
C75   C     C_R   0.583475 0.780380 0.367111 0.199717
C76   C     C_R   0.514182 0.802354 0.298935 -0.158545
C77   C     C_R   0.527326 0.903718 0.264650 -0.143130
C78   C     C_R   0.609870 0.983897 0.297672 -0.109619
C79   C     C_R   0.679243 0.962845 0.365219 -0.124153
C80   C     C_R   0.665418 0.861613 0.400761 -0.062576
H44   H     H_    0.450002 0.741219 0.272461 0.116160
H45   H     H_    0.473518 0.920094 0.212377 0.131899
H46   H     H_    0.620058 0.062320 0.270977 0.123282
H47   H     H_    0.743237 0.025010 0.390650 0.133359
H48   H     H_    0.718620 0.846255 0.454212 0.118301
O11   O     O_3   0.423007 0.239967 0.666212 -0.738270
H49   H     H_    0.356138 0.187755 0.648973 0.314976
O12   O     O_3   0.734036 0.767884 0.304036 -0.743154
H50   H     H_    0.798338 0.793772 0.279044 0.315488
C81   C     C_R   0.613687 0.371624 0.633589 0.144417
C82   C     C_R   0.621970 0.276721 0.645771 -0.087528
C83   C     C_R   0.702464 0.260282 0.700869 -0.137936
C84   C     C_R   0.774376 0.338055 0.744374 -0.118420
C85   C     C_R   0.766279 0.432400 0.732128 -0.118750
C86   C     C_R   0.686206 0.448998 0.677717 -0.137244
H51   H     H_    0.565735 0.215352 0.613761 0.160136
H52   H     H_    0.708828 0.187325 0.710112 0.139815
H53   H     H_    0.836320 0.325156 0.787147 0.152411
H54   H     H_    0.822178 0.494258 0.763142 0.129448
H55   H     H_    0.680815 0.522321 0.669754 0.131032
C87   C     C_R   0.833466 0.505625 0.055645 0.178519
C88   C     C_R   0.828276 0.597676 0.006770 -0.050218
C89   C     C_R   0.763767 0.636574 0.025006 -0.167312
C90   C     C_R   0.703537 0.584715 0.092055 -0.116093
C91   C     C_R   0.707457 0.493598 0.140966 -0.116308
C92   C     C_R   0.771473 0.454102 0.122826 -0.169207
H56   H     H_    0.873740 0.640418 0.954565 0.141093
H57   H     H_    0.760645 0.707279 0.987093 0.124263
H58   H     H_    0.653854 0.615158 0.106131 0.140016
H59   H     H_    0.660908 0.453484 0.193126 0.131305
H60   H     H_    0.773409 0.383499 0.162129 0.113653

loop_
_geom_bond_atom_site_label_1
_geom_bond_atom_site_label_2
_ccdc_geom_bond_type
C10   C27   A    
C58   H27   S    
C54   C55   A    
C30   H12   S    
Cu2   O8    S    
C1    O2    A    
C41   C42   A    
C36   C42   A    
C57   C58   A    
C80   H48   S    
C3    C6    S    
C67   C68   A    
Cu2   O2    S    
C78   C79   A    
C52   C53   A    
C25   C28   A    
C62   H31   S    
C37   C38   A    
C73   C74   A    
C46   H10   S    
C45   C50   S    
C36   C37   A    
C26   H9    S    
Cu1   N2    S    
C66   C67   A    
C5    H20   S    
Cu2   N1    S    
C53   H23   S    
C88   C89   A    
O12   H50   S    
C65   H35   S    
C30   N1    A    
C27   H3    S    
O11   H49   S    
C13   H5    S    
O9    H32   S    
C15   C16   A    
C12   O4    A    
C59   C60   A    
C3    C48   S    
C70   H39   S    
O10   H33   S    
C31   H13   S    
C18   C19   A    
C42   C46   A    
C56   H26   S    
C9    C13   A    
Cu1   O5    S    
C65   C66   A    
C63   C64   A    
C73   H42   S    
C47   H17   S    
C81   C82   A    
C29   C33   A    
C75   C76   A    
C12   O3    A    
C85   C86   A    
C64   H34   S    
C23   O5    A    
Cu2   O4    S    
C47   H14   S    
C59   H28   S    
C8    C12   S    
C71   C72   A    
C61   H30   S    
C76   H44   S    
C2    C45   S    
C83   H52   S    
C21   C22   A    
C11   C63   S    
C41   C43   A    
C18   C25   A    
C46   N2    A    
C90   C91   A    
C47   C50   S    
C44   H11   S    
C78   H46   S    
C14   H6    S    
Cu1   Cu2   S    
C32   C35   A    
C7    C8    T    
C1    C9    S    
C24   C25   A    
C21   H8    S    
C20   H2    S    
C48   H18   S    
C77   H45   S    
C55   H25   S    
C57   C62   A    
C43   H16   S    
C31   N1    A    
C22   H4    S    
C19   H7    S    
C75   C80   A    
C89   H57   S    
C4    O9    S    
C17   C21   A    
C91   H59   S    
C35   C36   A    
C38   C75   S    
C44   N2    A    
C35   C39   A    
C9    C14   A    
C29   C30   A    
C11   C16   A    
C47   C48   S    
C14   C15   A    
C16   C20   A    
C58   C59   A    
C17   C18   A    
C4    H21   S    
C85   H54   S    
C51   C52   A    
Cu1   O7    S    
C69   C70   A    
C87   C92   A    
C40   C41   A    
C68   H38   S    
C84   H53   S    
C43   C44   A    
C26   C27   A    
C87   C88   A    
C22   C24   A    
C5    C50   S    
C45   C51   S    
C34   O8    A    
C3    C4    S    
C82   H51   S    
C39   C40   A    
C91   C92   A    
C10   C28   A    
C15   C17   A    
C86   H55   S    
C2    C57   S    
C34   C49   S    
C23   O6    A    
C64   C65   A    
C53   C54   A    
C1    O1    A    
C31   C32   A    
C67   H37   S    
C7    C50   S    
C24   C26   A    
C4    C5    S    
C2    H1    S    
C52   H22   S    
C77   C78   A    
C10   C23   S    
C33   C38   A    
C84   C85   A    
C61   C62   A    
C45   C69   S    
C89   C90   A    
C19   C20   A    
C81   C86   A    
Cu1   O3    S    
C92   H60   S    
C69   C74   A    
C5    H19   S    
C83   C84   A    
C32   C33   A    
C29   O12   S    
C11   C13   A    
C71   H40   S    
C76   C77   A    
C48   C87   S    
C74   H43   S    
C28   O10   S    
C37   H15   S    
C79   H47   S    
C72   H41   S    
C2    C3    S    
C82   C83   A    
C6    C49   T    
Cu2   O6    S    
C90   H58   S    
C66   H36   S    
C55   C56   A    
C60   C61   A    
C51   C56   A    
C40   O11   S    
C39   C81   S    
Cu1   O1    S    
C88   H56   S    
C79   C80   A    
C34   O7    A    
C70   C71   A    
C54   H24   S    
C63   C68   A    
C60   H29   S    
C72   C73   A    
