data_mof_unit_33553.cif
_audit_creation_date              2012-12-10T16:50:56-0500
_audit_creation_method            fapswitch 2.2
_symmetry_space_group_name_H-M    P1
_symmetry_Int_Tables_number       1
_space_group_crystal_system       triclinic
_cell_length_a                    7.957666
_cell_length_b                    8.525137
_cell_length_c                    10.615796
_cell_angle_alpha                 91.098164
_cell_angle_beta                  87.057961
_cell_angle_gamma                 93.116889
_cell_volume                      718.067638056

loop_
_atom_site_label
_atom_site_type_symbol
_atom_type_description
_atom_site_fract_x
_atom_site_fract_y
_atom_site_fract_z
_atom_type_partial_charge
Br1   Br    Br    0.278350 0.854093 0.268101 -0.530169
Br2   Br    Br    0.780962 0.843947 0.783052 -0.548878
Br3   Br    Br    0.024635 0.278185 0.380492 -0.390236
Br4   Br    Br    0.015457 0.756872 0.535815 -0.256467
C1    C     C_R   0.544974 0.793699 0.500401 1.029069
C2    C     C_R   0.968849 0.626877 0.057095 -0.213787
C3    C     C_R   0.092918 0.748520 0.064885 -0.212305
C4    C     C_R   0.973864 0.630419 0.924839 -0.262105
C5    C     C_R   0.235477 0.714553 0.130400 0.291719
C6    C     C_R   0.818441 0.651750 0.868215 0.306047
C7    C     C_R   0.365305 0.630563 0.069240 -0.068182
C8    C     C_R   0.670299 0.589137 0.931055 -0.066345
C9    C     C_R   0.373802 0.630355 0.936204 -0.078935
C10   C     C_R   0.664544 0.595421 0.063642 -0.100916
C11   C     C_R   0.506994 0.581192 0.130798 -0.135978
C12   C     C_R   0.455697 0.206628 0.505495 0.930947
C13   C     C_R   0.517095 0.573897 0.870911 -0.095344
C14   C     C_3   0.374592 0.966531 0.824277 -0.290887
C15   C     C_3   0.752043 0.884844 0.211322 -0.272686
C16   C     C_2   0.568817 0.957846 0.502578 -0.339496
C17   C     C_2   0.433462 0.043315 0.513224 -0.307358
C18   C     C_R   0.506236 0.520288 0.739001 0.879567
C19   C     C_R   0.500505 0.523818 0.261630 0.900083
C20   C     C_R   0.261207 0.722386 0.873809 0.584117
C21   C     C_R   0.813955 0.645863 0.122812 0.572846
C22   C     C_R   0.102653 0.751297 0.932082 -0.252295
H1    H     H_    0.017096 0.520998 0.883099 0.162042
H2    H     H_    0.617183 0.886104 0.238832 0.190312
H3    H     H_    0.771024 0.924272 0.111679 0.151690
H4    H     H_    0.819883 0.972560 0.271291 0.228944
H5    H     H_    0.047067 0.858426 0.102050 0.219624
H6    H     H_    0.064299 0.861685 0.897480 0.221049
H7    H     H_    0.007681 0.514282 0.089787 0.161737
H8    H     H_    0.697357 0.007723 0.492006 0.221691
H9    H     H_    0.305353 0.993844 0.526863 0.258126
H10   H     H_    0.266999 0.044383 0.829050 0.167250
H11   H     H_    0.430179 0.962393 0.918501 0.173391
H12   H     H_    0.473432 0.021764 0.760154 0.214003
N1    N     N_2   0.950330 0.457950 0.466250 0.086167
N2    N     N_2   0.049670 0.542050 0.533750 0.087269
O1    O     O_R   0.389250 0.738570 0.508280 -0.546305
O2    O     O_3   0.811164 0.734732 0.233738 -0.558692
O3    O     O_R   0.610750 0.261430 0.491720 -0.607139
O4    O     O_R   0.678390 0.711630 0.486650 -0.548238
O5    O     O_R   0.321610 0.288370 0.513350 -0.581070
O6    O     O_R   0.355430 0.513480 0.694040 -0.613748
O7    O     O_R   0.644570 0.486520 0.305960 -0.582878
O8    O     O_R   0.644570 0.486540 0.672410 -0.617337
O9    O     O_R   0.355430 0.513460 0.327590 -0.574390
O10   O     O_3   0.324357 0.816328 0.775207 -0.575417
Zn1   Zn    Zn3+2 0.306940 0.517990 0.514440 1.101198
Zn2   Zn    Zn3+2 0.693060 0.482010 0.485560 1.088693

loop_
_geom_bond_atom_site_label_1
_geom_bond_atom_site_label_2
_ccdc_geom_bond_type
C8    C13   A    
C12   O5    A    
C18   O8    A    
C15   O2    S    
C12   C17   S    
C22   H6    S    
O7    Zn2   S    
C17   H9    S    
O1    Zn1   S    
N2    Zn1   S    
C4    C22   A    
C13   C18   S    
C2    H7    S    
C9    C13   A    
C16   H8    S    
O4    Zn2   S    
C11   C19   S    
N1    Zn2   S    
C14   H12   S    
Br3   N1    S    
C1    C16   S    
C15   H2    S    
C5    C7    A    
C12   O3    A    
C14   H10   S    
C2    C3    A    
C3    C22   A    
C6    C8    A    
C21   O2    S    
C18   O6    A    
C1    O4    A    
C8    C10   A    
O8    Zn2   S    
C10   C21   A    
C20   O10   S    
O3    Zn2   S    
C19   O9    A    
C2    C21   A    
C19   O7    A    
O5    Zn1   S    
Br2   C6    S    
Br1   C5    S    
C7    C9    A    
C3    H5    S    
C16   C17   D    
C14   O10   S    
C4    C6    A    
N1    N2    D    
C3    C5    A    
C4    H1    S    
C1    O1    A    
C10   C11   A    
C2    C4    A    
C15   H4    S    
C7    C11   A    
O6    Zn1   S    
C14   H11   S    
Br4   N2    S    
C9    C20   A    
C20   C22   A    
O9    Zn1   S    
C15   H3    S    
