data_mof_unit_40299.cif
_audit_creation_date              2012-12-10T18:16:15-0500
_audit_creation_method            fapswitch 2.2
_symmetry_space_group_name_H-M    P1
_symmetry_Int_Tables_number       1
_space_group_crystal_system       triclinic
_cell_length_a                    12.594275
_cell_length_b                    13.118141
_cell_length_c                    27.69913
_cell_angle_alpha                 90.741511
_cell_angle_beta                  103.052176
_cell_angle_gamma                 82.2323
_cell_volume                      4416.40172889

loop_
_atom_site_label
_atom_site_type_symbol
_atom_type_description
_atom_site_fract_x
_atom_site_fract_y
_atom_site_fract_z
_atom_type_partial_charge
C1    C     C_R   0.438680 0.691404 0.496085 0.871732
C2    C     C_R   0.479375 0.601296 0.023934 0.056381
C3    C     C_R   0.472217 0.413832 0.021376 -0.004167
C4    C     C_R   0.501121 0.500474 0.593911 0.861168
C5    C     C_R   0.476192 0.507113 0.047975 0.052951
C6    C     C_R   0.489893 0.690874 0.052530 -0.218474
C7    C     C_R   0.494559 0.688358 0.103023 -0.140703
C8    C     C_R   0.487928 0.596787 0.126626 -0.008359
C9    C     C_R   0.477225 0.506251 0.099085 -0.056543
C10   C     C_R   0.468022 0.414796 0.122795 -0.093435
C11   C     C_R   0.472795 0.414704 0.173739 0.580857
C12   C     C_R   0.595816 0.533370 0.731306 -0.098987
C13   C     C_R   0.492030 0.593345 0.177463 0.484586
C14   C     C_R   0.391928 0.494004 0.267967 0.527922
C15   C     C_R   0.396271 0.491433 0.318665 -0.309977
C16   C     C_R   0.561245 0.308705 0.506103 0.867481
C17   C     C_R   0.590795 0.509035 0.336109 -0.215963
C18   C     C_R   0.587119 0.509601 0.285616 -0.173804
C19   C     C_R   0.488189 0.501644 0.251588 0.217161
C20   C     C_R   0.474192 0.602438 0.972407 0.044184
C21   C     C_R   0.487199 0.507670 0.947940 0.080673
C22   C     C_R   0.493128 0.413074 0.973191 0.040821
C23   C     C_R   0.506986 0.504832 0.747889 0.323176
C24   C     C_R   0.458554 0.694957 0.944559 -0.220623
C25   C     C_R   0.538014 0.321216 0.901801 -0.135657
C26   C     C_R   0.447439 0.326003 0.044531 0.080082
C27   C     C_R   0.449819 0.326771 0.095014 -0.123752
C28   C     C_R   0.498783 0.499721 0.406080 0.894096
C29   C     C_R   0.526970 0.321275 0.950537 -0.238180
C30   C     C_R   0.703471 0.066650 0.573821 -0.192987
C31   C     C_R   0.597686 0.200287 0.516949 -0.058132
C32   C     C_R   0.298557 0.837322 0.461231 -0.199422
C33   C     C_R   0.268911 0.942076 0.450545 0.168683
C34   C     C_R   0.496138 0.507303 0.897976 -0.054747
C35   C     C_R   0.344005 0.010064 0.469707 -0.219418
C36   C     C_R   0.446733 0.974119 0.501801 0.061294
C37   C     C_R   0.466940 0.871102 0.518557 0.090405
C38   C     C_R   0.530072 0.037046 0.518036 0.096216
C39   C     C_R   0.622974 0.002314 0.556523 0.176577
C40   C     C_R   0.488142 0.598188 0.821480 0.502673
C41   C     C_R   0.632735 0.904933 0.577801 -0.247244
C42   C     C_R   0.555471 0.840017 0.559101 -0.188832
C43   C     C_R   0.524222 0.133279 0.496414 -0.245276
C44   C     C_R   0.689699 0.166560 0.554705 -0.189271
C45   C     C_R   0.482434 0.600656 0.871348 -0.021862
C46   C     C_R   0.398793 0.801247 0.493796 -0.157251
C47   C     C_R   0.087692 0.344986 0.431978 -0.303982
C48   C     C_R   0.800724 0.629384 0.558993 0.025799
C49   C     C_R   0.905391 0.658325 0.570878 -0.243448
C50   C     C_R   0.986276 0.609786 0.548314 -0.190961
C51   C     C_R   0.962698 0.531001 0.513801 0.015637
C52   C     C_R   0.525179 0.414681 0.824917 0.502870
C53   C     C_R   0.854513 0.504265 0.503058 0.234596
C54   C     C_R   0.041741 0.477629 0.489780 -0.013380
C55   C     C_R   0.011163 0.398735 0.455860 0.193631
C56   C     C_R   0.461961 0.693851 0.894784 -0.136894
C57   C     C_R   0.904727 0.373718 0.446269 -0.287337
C58   C     C_R   0.827844 0.425547 0.469654 -0.213929
C59   C     C_R   0.150751 0.498692 0.498061 -0.051602
C60   C     C_R   0.193955 0.369482 0.441885 0.011280
C61   C     C_R   0.416445 0.475012 0.714272 -0.110743
C62   C     C_R   0.414444 0.473648 0.663957 -0.211532
C63   C     C_R   0.594275 0.531773 0.680948 -0.222711
C64   C     C_3   0.231660 0.581458 0.224772 0.048316
C65   C     C_3   0.130579 0.572620 0.183231 -0.303453
C66   C     C_3   0.058676 0.676421 0.171068 -0.939469
C67   C     C_R   0.519359 0.413509 0.874706 -0.020114
C68   C     C_R   0.503463 0.501870 0.646925 -0.039854
C69   C     C_R   0.495370 0.499905 0.352968 -0.102890
H1    H     H_    0.663722 0.554268 0.668718 0.158990
H2    H     H_    0.774090 0.041310 0.603504 0.142216
H3    H     H_    0.665849 0.556466 0.757464 0.139161
H4    H     H_    0.459802 0.160351 0.464681 0.143610
H5    H     H_    0.244549 0.783953 0.442866 0.167201
H6    H     H_    0.318948 0.090576 0.460251 0.128193
H7    H     H_    0.564649 0.765591 0.577052 0.152130
H8    H     H_    0.254544 0.328444 0.423992 0.130536
H9    H     H_    0.880723 0.313367 0.420624 0.160314
H10   H     H_    0.065644 0.284489 0.406120 0.143678
H11   H     H_    0.181754 0.556736 0.523120 0.127163
H12   H     H_    0.347653 0.453149 0.727259 0.137712
H13   H     H_    0.737929 0.666318 0.576662 0.126130
H14   H     H_    0.449240 0.766591 0.874837 0.189747
H15   H     H_    0.066030 0.635187 0.558802 0.139533
H16   H     H_    0.923801 0.718199 0.597518 0.149930
H17   H     H_    0.748112 0.401743 0.461035 0.213994
H18   H     H_    0.321858 0.483711 0.330903 0.177851
H19   H     H_    0.503754 0.758725 0.123534 0.190930
H20   H     H_    0.498893 0.763514 0.037208 0.143968
H21   H     H_    0.440592 0.769490 0.959986 0.144663
H22   H     H_    0.343473 0.450276 0.638534 0.165463
H23   H     H_    0.561603 0.248508 0.885537 0.190073
H24   H     H_    0.363664 0.263425 0.980732 0.206978
H25   H     H_    0.463766 0.179340 0.019170 0.180237
H26   H     H_    0.103383 0.963775 0.435959 0.184847
H27   H     H_    0.156030 0.056980 0.412105 0.176479
H28   H     H_    0.279654 0.637967 0.212717 0.164701
H29   H     H_    0.203993 0.609945 0.258596 0.145174
H30   H     H_    0.157491 0.543416 0.149443 0.232658
H31   H     H_    0.081329 0.516930 0.194661 0.234269
H32   H     H_    0.029444 0.706387 0.204157 0.268704
H33   H     H_    0.986034 0.667266 0.140858 0.269471
H34   H     H_    0.668297 0.515250 0.361842 0.179309
H35   H     H_    0.105704 0.732763 0.158581 0.270971
H36   H     H_    0.433123 0.258530 0.112061 0.198461
H37   H     H_    0.661099 0.516077 0.272804 0.162892
H38   H     H_    0.549258 0.248906 0.970561 0.152579
H39   H     H_    0.747019 0.218710 0.571129 0.162004
H40   H     H_    0.700980 0.878275 0.608348 0.143173
N1    N     N_R   0.508129 0.506049 0.799417 -0.357428
N2    N     N_R   0.485030 0.503066 0.199811 -0.341493
N3    N     N_R   0.222180 0.444690 0.474320 -0.101915
N4    N     N_R   0.776980 0.554780 0.525420 -0.129153
N5    N     N_3   0.402090 0.241949 0.017352 -0.464018
N6    N     N_3   0.164811 0.977391 0.417953 -0.451549
O1    O     O_R   0.366730 0.627160 0.487740 -0.618191
O2    O     O_R   0.410930 0.482330 0.420550 -0.620316
O3    O     O_R   0.589030 0.517690 0.436960 -0.633355
O4    O     O_2   0.472702 0.686787 0.795028 -0.560912
O5    O     O_3   0.294999 0.483574 0.234268 -0.627018
O6    O     O_2   0.502106 0.679465 0.204380 -0.572166
O7    O     O_2   0.547122 0.325464 0.801980 -0.556742
O8    O     O_2   0.465904 0.327089 0.197198 -0.540622
O9    O     O_R   0.544830 0.662520 0.504140 -0.607688
O10   O     O_R   0.410970 0.482310 0.563040 -0.618373
O11   O     O_R   0.589070 0.517670 0.579450 -0.630956
O12   O     O_R   0.455170 0.337480 0.495860 -0.610385
O13   O     O_R   0.633270 0.372840 0.512260 -0.638707
Zn1   Zn    Zn3+2 0.381080 0.476390 0.489050 0.944170
Zn2   Zn    Zn3+2 0.618920 0.523610 0.510950 0.934843

loop_
_geom_bond_atom_site_label_1
_geom_bond_atom_site_label_2
_ccdc_geom_bond_type
C10   C27   A    
C43   H4    S    
C17   C69   A    
C8    C13   A    
C22   C29   A    
C41   C42   A    
C66   H33   S    
C28   C69   S    
C25   C67   A    
C47   H10   S    
C26   N5    S    
C30   H2    S    
H25   N5    S    
C50   H15   S    
C7    C8    A    
C39   C41   A    
C16   C31   S    
C12   C23   A    
C35   H6    S    
C26   C27   A    
C31   C43   A    
C4    O10   A    
C60   N3    A    
C47   C55   A    
C36   C37   A    
C28   O2    A    
C32   H5    S    
C38   C39   A    
C1    C46   S    
C27   H36   S    
C4    O11   A    
C18   C19   A    
C37   C42   A    
C59   N3    A    
C47   C60   A    
C63   C68   A    
C52   O7    S    
O1    Zn1   S    
C20   C24   A    
C45   C56   A    
H26   N6    S    
C8    C9    A    
H27   N6    S    
C1    O1    A    
N3    Zn1   S    
O2    Zn1   S    
C9    C10   A    
C64   H29   S    
C12   H3    S    
C41   H40   S    
C21   C22   A    
C66   H32   S    
C30   C44   A    
C2    C6    A    
C58   H17   S    
C53   N4    A    
C50   C51   A    
C54   C59   A    
C44   H39   S    
C25   C29   A    
C40   C45   A    
C15   C69   A    
C60   H8    S    
C33   N6    S    
C31   C44   A    
C2    C20   A    
C66   H35   S    
C65   H30   S    
N4    Zn2   S    
C4    C68   S    
C12   C63   A    
C14   C19   A    
C40   N1    A    
C21   C34   A    
C11   N2    A    
C24   H21   S    
C51   C53   A    
C35   C36   A    
C34   C67   A    
O12   Zn1   S    
C5    C9    A    
O3    Zn2   S    
C49   H16   S    
C13   O6    S    
C7    H19   S    
C63   H1    S    
C52   N1    A    
C62   H22   S    
C17   C18   A    
O9    Zn2   S    
C34   C45   A    
C16   O13   A    
C52   C67   A    
C64   H28   S    
C49   C50   A    
C14   O5    S    
C55   C57   A    
C2    C5    A    
C56   H14   S    
C15   H18   S    
C23   N1    S    
C54   C55   A    
C48   C49   A    
C25   H23   S    
C32   C46   A    
C57   H9    S    
C3    C26   A    
C11   O8    S    
C65   H31   S    
C3    C5    A    
O13   Zn2   S    
C59   H11   S    
C53   C58   A    
C6    C7    A    
C19   N2    S    
C24   C56   A    
C6    H20   S    
C42   H7    S    
C64   O5    S    
C62   C68   A    
C51   C54   A    
C64   C65   S    
C36   C38   A    
C17   H34   S    
C1    O9    A    
C38   C43   A    
C13   N2    A    
C28   O3    A    
C32   C33   A    
C57   C58   A    
C18   H37   S    
C33   C35   A    
C48   H13   S    
C30   C39   A    
H24   N5    S    
C61   C62   A    
C16   O12   A    
C10   C11   A    
O10   Zn1   S    
C23   C61   A    
C40   O4    S    
C20   C21   A    
C65   C66   S    
O11   Zn2   S    
C14   C15   A    
C29   H38   S    
C3    C22   A    
C61   H12   S    
C37   C46   A    
C48   N4    A    
