data_mof_unit_43410.cif
_audit_creation_date              2012-12-10T19:00:17-0500
_audit_creation_method            fapswitch 2.2
_symmetry_space_group_name_H-M    P1
_symmetry_Int_Tables_number       1
_space_group_crystal_system       triclinic
_cell_length_a                    9.563198
_cell_length_b                    10.948241
_cell_length_c                    13.404595
_cell_angle_alpha                 91.730989
_cell_angle_beta                  71.974579
_cell_angle_gamma                 91.353105
_cell_volume                      1333.82148154

loop_
_atom_site_label
_atom_site_type_symbol
_atom_type_description
_atom_site_fract_x
_atom_site_fract_y
_atom_site_fract_z
_atom_type_partial_charge
C1    C     C_R   0.501381 0.737182 0.501609 0.855511
C2    C     C_R   0.369972 0.494440 0.816888 -0.252813
C3    C     C_R   0.387621 0.932294 0.492425 -0.026119
C4    C     C_R   0.420431 0.496811 0.700689 0.975261
C5    C     C_R   0.504260 0.869680 0.505551 -0.198928
C6    C     C_R   0.618656 0.941341 0.526554 0.387973
C7    C     C_R   0.609129 0.069468 0.531978 -0.139703
C8    C     C_R   0.493534 0.129770 0.509830 -0.145565
C9    C     C_R   0.381660 0.055884 0.493654 0.006464
C10   C     C_3   0.238133 0.053065 0.470433 0.098012
C11   C     C_3   0.246462 0.912595 0.469127 0.706875
C12   C     C_R   0.423093 0.473467 0.982963 -0.138893
C13   C     C_R   0.961237 0.449203 0.417405 0.127686
C14   C     C_R   0.895247 0.563884 0.574261 0.577938
C15   C     C_R   0.043619 0.563172 0.574545 0.662038
C16   C     C_R   0.497249 0.262555 0.502925 0.845062
C17   C     C_R   0.109199 0.451594 0.416643 0.084242
C18   C     C_3   0.132742 0.323543 0.379414 -0.514078
C19   C     C_3   0.974145 0.318145 0.381492 0.445224
C20   C     C_R   0.579351 0.498189 0.299167 0.830656
C21   C     C_R   0.774710 0.378013 0.024602 0.524232
C22   C     C_R   0.624362 0.479462 0.183974 -0.166601
C23   C     C_R   0.456913 0.444071 0.874165 -0.054699
C24   C     C_R   0.239606 0.555499 0.871471 0.451381
C25   C     C_R   0.191139 0.562110 0.981291 0.393556
C26   C     C_R   0.279518 0.517852 0.037128 0.331469
C27   C     C_R   0.533661 0.456755 0.032405 0.040905
C28   C     C_R   0.663216 0.392990 0.978028 -0.041315
C29   C     C_R   0.678828 0.342414 0.878464 -0.184204
C30   C     C_R   0.574863 0.363880 0.827162 0.467302
C31   C     C_R   0.522458 0.506464 0.132456 -0.311635
C32   C     C_R   0.755377 0.420113 0.128306 0.347570
Cu1   Cu    Cu3+1 0.359330 0.500020 0.500010 1.085373
Cu2   Cu    Cu3+1 0.640670 0.499980 0.499990 1.087364
F1    F     F_    0.795709 0.629345 0.649720 -0.579981
F2    F     F_    0.081278 0.627129 0.650385 -0.513465
F3    F     F_    0.892974 0.241050 0.457958 -0.682280
F4    F     F_    0.900283 0.319535 0.970120 -0.661458
F5    F     F_    0.159214 0.609530 0.818177 -0.569857
H1    H     H_    0.693983 0.120919 0.552591 0.247154
H2    H     H_    0.047692 0.853432 0.531339 0.352836
H3    H     H_    0.343782 0.895777 0.317289 0.294148
H4    H     H_    0.251804 0.432070 0.164199 0.310545
H5    H     H_    0.002512 0.632790 0.988432 0.376974
H6    H     H_    0.668926 0.247906 0.714090 0.335392
H7    H     H_    0.790192 0.843551 0.479160 0.336672
H8    H     H_    0.245211 0.091055 0.393084 0.073961
H9    H     H_    0.213622 0.312495 0.300346 0.149125
H10   H     H_    0.154627 0.270632 0.440831 0.264657
H11   H     H_    0.959812 0.300485 0.303515 0.140782
H12   H     H_    0.772174 0.285344 0.840094 0.206960
H13   H     H_    0.433867 0.566431 0.172941 0.238720
H14   H     H_    0.946885 0.361609 0.127555 0.373686
H15   H     H_    0.032977 0.085504 0.537678 0.373295
N1    N     N_R   0.852320 0.499070 0.499340 -0.268276
N2    N     N_R   0.148230 0.499110 0.499340 -0.270962
O1    O     O_R   0.381190 0.680360 0.500000 -0.504686
O2    O     O_3   0.124956 0.099114 0.556148 -0.639137
O3    O     O_3   0.139120 0.856309 0.551585 -0.578274
O4    O     O_3   0.261886 0.854799 0.370983 -0.740572
O5    O     O_3   0.215060 0.507975 0.143687 -0.675617
O6    O     O_3   0.056655 0.610713 0.037296 -0.639184
O7    O     O_3   0.580376 0.299679 0.735666 -0.725537
O8    O     O_3   0.738869 0.890603 0.543956 -0.665303
O9    O     O_R   0.618780 0.680320 0.499990 -0.570816
O10   O     O_R   0.323230 0.500000 0.650990 -0.494584
O11   O     O_R   0.560820 0.499960 0.650980 -0.506441
O12   O     O_R   0.381220 0.319680 0.500010 -0.587075
O13   O     O_R   0.618810 0.319640 0.500000 -0.527560
O14   O     O_R   0.439180 0.500040 0.349020 -0.593367
O15   O     O_R   0.676770 0.500000 0.349010 -0.536223
O16   O     O_3   0.860560 0.402220 0.177142 -0.701790

loop_
_geom_bond_atom_site_label_1
_geom_bond_atom_site_label_2
_ccdc_geom_bond_type
Cu2   O11   S    
C4    O11   A    
C2    C4    S    
C7    H1    S    
C20   O15   A    
C29   C30   A    
C16   O12   A    
C1    O1    A    
C9    C10   S    
C16   O13   A    
C1    O9    A    
C12   C23   A    
C13   C17   A    
C31   H13   S    
C3    C5    A    
C10   C11   S    
C15   N2    A    
C11   O3    S    
Cu1   N2    S    
C29   H12   S    
C17   C18   S    
C7    C8    A    
C8    C16   S    
H6    O7    S    
C30   O7    S    
H3    O4    S    
C4    O10   A    
C17   N2    A    
C20   O14   A    
C6    C7    A    
C22   C32   A    
Cu1   O14   S    
C3    C9    A    
Cu2   O9    S    
C28   C29   A    
C10   O2    S    
C26   O5    S    
C20   C22   S    
Cu1   O10   S    
C14   N1    A    
C25   O6    S    
C2    C24   A    
C5    C6    A    
C21   C32   A    
C1    C5    S    
Cu1   Cu2   S    
C10   H8    S    
C3    C11   S    
C22   C31   A    
C13   C19   S    
C12   C27   A    
C27   C31   A    
C11   O4    S    
C23   C30   A    
C19   H11   S    
C15   F2    S    
Cu2   N1    S    
C24   F5    S    
C14   F1    S    
C24   C25   A    
H4    O5    S    
C2    C23   A    
C32   O16   S    
C18   C19   S    
H15   O2    S    
H2    O3    S    
C6    O8    S    
C27   C28   A    
C14   C15   A    
C8    C9    A    
Cu1   O1    S    
C19   F3    S    
H7    O8    S    
H5    O6    S    
C25   C26   A    
H14   O16   S    
Cu2   O13   S    
Cu2   O15   S    
C21   C28   A    
C21   F4    S    
C18   H10   S    
C12   C26   A    
Cu1   O12   S    
C13   N1    A    
C18   H9    S    
