data_mof_unit_30048.cif
_audit_creation_date              2012-12-10T19:48:02-0500
_audit_creation_method            fapswitch 2.2
_symmetry_space_group_name_H-M    P1
_symmetry_Int_Tables_number       1
_space_group_crystal_system       triclinic
_cell_length_a                    14.988782
_cell_length_b                    14.16751
_cell_length_c                    10.645892
_cell_angle_alpha                 89.999408
_cell_angle_beta                  89.998172
_cell_angle_gamma                 89.948476
_cell_volume                      2260.69384156

loop_
_atom_site_label
_atom_site_type_symbol
_atom_type_description
_atom_site_fract_x
_atom_site_fract_y
_atom_site_fract_z
_atom_type_partial_charge
C1    C     C_R   0.327740 0.500059 0.500786 0.831020
C2    C     C_R   0.573286 0.795552 0.540661 -0.140386
C3    C     C_R   0.512397 0.204391 0.609505 -0.161603
C4    C     C_R   0.426669 0.795666 0.459444 -0.139024
C5    C     C_R   0.499920 0.053355 0.500076 -0.023228
C6    C     C_R   0.499937 0.946741 0.500094 -0.022527
C7    C     C_R   0.500007 0.499978 0.260724 0.881309
C8    C     C_R   0.500014 0.499980 0.739272 0.881942
C9    C     C_R   0.662490 0.531976 0.130546 -0.149488
C10   C     C_R   0.337851 0.466400 0.869406 -0.153049
C11   C     C_R   0.662354 0.532591 0.869378 -0.146654
C12   C     C_R   0.672259 0.499977 0.500781 0.830159
C13   C     C_R   0.337736 0.466892 0.130569 -0.151692
C14   C     C_R   0.741672 0.547663 0.065191 -0.141038
C15   C     C_R   0.258696 0.450493 0.934679 -0.143991
C16   C     C_R   0.741593 0.548037 0.934640 -0.137221
C17   C     C_R   0.258630 0.450796 0.065227 -0.136031
C18   C     C_R   0.581144 0.516626 0.934429 0.070654
C19   C     C_R   0.418969 0.482857 0.065555 0.067104
C20   C     C_R   0.581182 0.516452 0.065544 0.070834
C21   C     C_R   0.419001 0.482717 0.934442 0.069667
C22   C     C_R   0.500039 0.499861 0.871509 -0.192851
C23   C     C_R   0.048119 0.500996 0.517876 0.115168
C24   C     C_R   0.500040 0.499847 0.128484 -0.193264
C25   C     C_R   0.092870 0.579831 0.470096 -0.179537
C26   C     C_R   0.907256 0.420757 0.469728 -0.180805
C27   C     C_R   0.904594 0.578290 0.560934 -0.185777
C28   C     C_R   0.095295 0.422224 0.561094 -0.187357
C29   C     C_R   0.184880 0.579645 0.464717 -0.194884
C30   C     C_R   0.815248 0.420761 0.464388 -0.191368
C31   C     C_R   0.812605 0.578671 0.554544 -0.209791
C32   C     C_R   0.187280 0.421658 0.554657 -0.205439
C33   C     C_R   0.231983 0.500262 0.506086 -0.025738
C34   C     C_R   0.951886 0.499602 0.517705 0.114999
C35   C     C_R   0.768019 0.499966 0.505997 -0.026396
C36   C     C_3   0.539160 0.084703 0.183806 -0.319166
C37   C     C_3   0.712743 0.945525 0.480135 -0.325128
C38   C     C_3   0.460967 0.085584 0.816759 -0.318743
C39   C     C_3   0.287555 0.946626 0.520673 -0.324329
C40   C     C_R   0.489911 0.104317 0.386949 0.435312
C41   C     C_R   0.575775 0.895219 0.539056 0.445761
C42   C     C_R   0.509861 0.104322 0.613195 0.435229
C43   C     C_R   0.424123 0.895326 0.461122 0.445080
C44   C     C_R   0.487467 0.204384 0.390550 -0.161437
H1    H     H_    0.197141 0.438747 0.116094 0.140565
H2    H     H_    0.943616 0.360215 0.434325 0.133225
H3    H     H_    0.938857 0.639083 0.599387 0.133706
H4    H     H_    0.060935 0.361466 0.599482 0.133340
H5    H     H_    0.219007 0.640626 0.426524 0.150071
H6    H     H_    0.781209 0.359774 0.426073 0.155312
H7    H     H_    0.776441 0.639761 0.588673 0.149941
H8    H     H_    0.223360 0.360493 0.588726 0.155062
H9    H     H_    0.475416 0.243758 0.305403 0.169584
H10   H     H_    0.630765 0.756628 0.573709 0.162661
H11   H     H_    0.524358 0.243783 0.694631 0.169567
H12   H     H_    0.803066 0.560054 0.883701 0.140898
H13   H     H_    0.369173 0.756834 0.426487 0.163869
H14   H     H_    0.607609 0.094085 0.222775 0.143213
H15   H     H_    0.515933 0.150516 0.137463 0.162236
H16   H     H_    0.543377 0.029459 0.110212 0.204125
H17   H     H_    0.684258 0.983015 0.397357 0.157742
H18   H     H_    0.735582 0.873584 0.452961 0.154743
H19   H     H_    0.772187 0.985731 0.511437 0.196433
H20   H     H_    0.392595 0.096401 0.778119 0.143222
H21   H     H_    0.485312 0.150811 0.863314 0.162735
H22   H     H_    0.456030 0.030235 0.890109 0.204023
H23   H     H_    0.197275 0.438178 0.883750 0.140273
H24   H     H_    0.264849 0.874948 0.549087 0.155121
H25   H     H_    0.227965 0.986696 0.489354 0.196192
H26   H     H_    0.316427 0.984721 0.602646 0.157970
H27   H     H_    0.803224 0.559353 0.116051 0.139766
H28   H     H_    0.665817 0.531842 0.231979 0.129778
H29   H     H_    0.334641 0.466037 0.767998 0.129484
H30   H     H_    0.665549 0.532991 0.767967 0.127116
H31   H     H_    0.334413 0.466947 0.232003 0.130384
H32   H     H_    0.056606 0.640470 0.434792 0.133113
N1    N     N_R   0.500000 0.252470 0.500000 -0.129049
N2    N     N_R   0.500000 0.747530 0.500000 -0.134147
O1    O     O_R   0.369060 0.579480 0.500010 -0.624960
O2    O     O_3   0.651209 0.941875 0.580115 -0.559859
O3    O     O_3   0.522062 0.054825 0.724450 -0.562748
O4    O     O_3   0.348616 0.942047 0.420180 -0.559833
O5    O     O_R   0.630940 0.420520 0.499990 -0.608178
O6    O     O_R   0.630940 0.579480 0.499990 -0.633031
O7    O     O_R   0.369060 0.420520 0.500010 -0.616329
O8    O     O_R   0.499990 0.579480 0.316780 -0.600601
O9    O     O_R   0.500010 0.420520 0.683220 -0.627840
O10   O     O_R   0.500010 0.579480 0.683220 -0.600889
O11   O     O_R   0.499990 0.420520 0.316780 -0.627486
O12   O     O_3   0.477444 0.054874 0.275753 -0.562319
Zn1   Zn    Zn3+2 0.500000 0.606140 0.500000 0.953280
Zn2   Zn    Zn3+2 0.500000 0.393860 0.500000 0.942226

loop_
_geom_bond_atom_site_label_1
_geom_bond_atom_site_label_2
_ccdc_geom_bond_type
C5    C42   A    
C11   C18   A    
C39   H24   S    
C9    H28   S    
C36   H15   S    
C41   O2    S    
C37   H18   S    
C1    C33   S    
N1    Zn2   S    
C29   H5    S    
O5    Zn2   S    
C30   C35   A    
C44   N1    A    
C19   C21   A    
C17   H1    S    
C36   H14   S    
C10   C15   A    
C5    C6    S    
C10   H29   S    
C7    O8    A    
C2    C41   A    
C27   H3    S    
C7    C24   S    
C7    O11   A    
C29   C33   A    
C3    C42   A    
C12   O6    A    
C18   C20   A    
C14   H27   S    
C32   H8    S    
C3    H11   S    
C44   H9    S    
C26   C34   A    
C38   H22   S    
C6    C41   A    
C4    H13   S    
C8    C22   S    
C38   H21   S    
C13   H31   S    
O6    Zn1   S    
O1    Zn1   S    
C30   H6    S    
C27   C34   A    
O9    Zn2   S    
C1    O7    A    
C42   O3    S    
C37   H19   S    
O7    Zn2   S    
C38   H20   S    
C10   C21   A    
C25   C29   A    
C37   O2    S    
C13   C19   A    
C27   C31   A    
C20   C24   A    
C28   C32   A    
C2    H10   S    
C12   O5    A    
C12   C35   S    
C9    C14   A    
C16   H12   S    
C4    N2    A    
C2    N2    A    
C11   C16   A    
C9    C20   A    
O10   Zn1   S    
C23   C34   S    
C15   H23   S    
C39   H25   S    
C23   C28   A    
O11   Zn2   S    
C26   C30   A    
C6    C43   A    
C38   O3    S    
C1    O1    A    
C31   C35   A    
C3    N1    A    
C36   O12   S    
C15   C17   A    
C28   H4    S    
C18   C22   A    
C39   O4    S    
C31   H7    S    
C36   H16   S    
C11   H30   S    
C37   H17   S    
C4    C43   A    
N2    Zn1   S    
C13   C17   A    
O8    Zn1   S    
C8    O9    A    
C32   C33   A    
C25   H32   S    
C19   C24   A    
C39   H26   S    
C14   C16   A    
C23   C25   A    
C8    O10   A    
C26   H2    S    
C40   C44   A    
C5    C40   A    
C43   O4    S    
C40   O12   S    
C21   C22   A    
