data_mof_unit_67753.cif
_audit_creation_date              2012-12-10T16:48:46-0500
_audit_creation_method            fapswitch 2.2
_symmetry_space_group_name_H-M    P1
_symmetry_Int_Tables_number       1
_space_group_crystal_system       triclinic
_cell_length_a                    7.863599
_cell_length_b                    8.677285
_cell_length_c                    10.719979
_cell_angle_alpha                 91.012005
_cell_angle_beta                  96.259811
_cell_angle_gamma                 93.008726
_cell_volume                      725.909357011

loop_
_atom_site_label
_atom_site_type_symbol
_atom_type_description
_atom_site_fract_x
_atom_site_fract_y
_atom_site_fract_z
_atom_type_partial_charge
C1    C     C_R   0.543851 0.794200 0.497574 0.985137
C2    C     C_2   0.442706 0.046205 0.523562 -0.291569
C3    C     C_2   0.603523 0.738719 0.136524 0.485033
C4    C     C_2   0.315761 0.657830 0.880140 0.508177
C5    C     C_3   0.249571 0.262043 0.128135 0.050286
C6    C     C_3   0.208230 0.114353 0.048855 -0.361681
C7    C     C_3   0.111048 0.994518 0.121097 -0.785360
C8    C     C_3   0.795298 0.330500 0.910199 0.108144
C9    C     C_3   0.659443 0.198840 0.922070 -0.436663
C10   C     C_3   0.713953 0.048237 0.867001 -0.751245
C11   C     C_2   0.670648 0.005835 0.380253 0.430612
C12   C     C_R   0.456093 0.206092 0.502027 0.825914
C13   C     C_2   0.325739 0.001087 0.618841 0.447114
C14   C     C_2   0.981161 0.352635 0.374916 0.587558
C15   C     C_2   0.009443 0.678394 0.587902 0.696055
C16   C     C_R   0.568182 0.500520 0.736907 0.782536
C17   C     C_R   0.432092 0.502801 0.264742 0.721983
C18   C     C_2   0.597330 0.523829 0.874764 0.319583
C19   C     C_2   0.405749 0.501600 0.128459 0.250964
C20   C     C_2   0.482577 0.602095 0.934990 -0.059295
C21   C     C_2   0.499059 0.608251 0.070566 -0.033748
C22   C     C_2   0.557389 0.954977 0.476802 -0.262233
H1    H     H_    0.585782 0.769470 0.231824 0.024051
H2    H     H_    0.909392 0.306083 0.975264 0.182128
H3    H     H_    0.841112 0.331340 0.816177 0.164298
H4    H     H_    0.642131 0.183803 0.022774 0.263327
H5    H     H_    0.533974 0.225004 0.871245 0.226913
H6    H     H_    0.723968 0.059391 0.764933 0.254208
H7    H     H_    0.617298 0.954036 0.880111 0.323282
H8    H     H_    0.839325 0.017139 0.914536 0.277677
H9    H     H_    0.624791 0.084852 0.308345 0.111172
H10   H     H_    0.201880 0.051040 0.617741 0.084285
H11   H     H_    0.107157 0.317560 0.368229 0.074313
H12   H     H_    0.223892 0.582489 0.822636 0.137626
H13   H     H_    0.020670 0.786022 0.538935 0.050674
H14   H     H_    0.129433 0.302746 0.158817 0.182972
H15   H     H_    0.339571 0.230675 0.210145 0.115514
H16   H     H_    0.130273 0.139588 0.959680 0.229422
H17   H     H_    0.329475 0.066724 0.025223 0.260998
H18   H     H_    0.192430 0.961032 0.206603 0.234759
H19   H     H_    0.074856 0.889859 0.061370 0.321516
H20   H     H_    0.991769 0.041744 0.148991 0.297037
N1    N     N_2   0.940600 0.458860 0.467170 -0.145639
N2    N     N_2   0.059400 0.541140 0.532830 -0.203114
O1    O     O_R   0.391630 0.738350 0.508060 -0.620239
O2    O     O_2   0.272213 0.784520 0.910883 -0.561460
O3    O     O_3   0.320593 0.378541 0.055903 -0.666788
O4    O     O_3   0.743662 0.476974 0.946919 -0.586606
O5    O     O_2   0.814467 0.959234 0.379982 -0.571678
O6    O     O_2   0.371143 0.915731 0.703524 -0.561550
O7    O     O_2   0.867488 0.298488 0.297829 -0.602397
O8    O     O_2   0.963035 0.678661 0.692725 -0.582223
O9    O     O_R   0.608370 0.261650 0.491940 -0.586462
O10   O     O_R   0.674540 0.711990 0.487010 -0.606850
O11   O     O_R   0.325460 0.288010 0.512990 -0.668857
O12   O     O_R   0.411370 0.508250 0.688780 -0.665209
O13   O     O_R   0.588630 0.491750 0.311220 -0.577108
O14   O     O_R   0.694270 0.481880 0.667740 -0.565826
O15   O     O_R   0.305730 0.518120 0.332260 -0.662460
O16   O     O_2   0.710687 0.812272 0.084517 -0.561268
Zn1   Zn    Zn3+2 0.311100 0.517600 0.514050 0.932893
Zn2   Zn    Zn3+2 0.688900 0.482400 0.485950 1.029366

loop_
_geom_bond_atom_site_label_1
_geom_bond_atom_site_label_2
_ccdc_geom_bond_type
O14   Zn2   S    
C1    O10   A    
C8    O4    S    
C2    C22   D    
C6    C7    S    
C11   O5    D    
C5    H15   S    
N2    Zn1   S    
O10   Zn2   S    
O9    Zn2   S    
C10   H8    S    
C13   H10   S    
C3    H1    S    
C14   O7    D    
N1    N2    D    
C2    C12   S    
C3    O16   D    
C14   H11   S    
C6    H16   S    
C11   H9    S    
C1    C22   S    
C16   O14   A    
C15   O8    D    
C8    H3    S    
C5    O3    S    
C10   H7    S    
C1    O1    A    
C16   O12   A    
C17   O15   A    
O11   Zn1   S    
O1    Zn1   S    
C8    H2    S    
C9    H4    S    
C19   O3    S    
C7    H19   S    
C5    C6    S    
C4    H12   S    
C3    C21   S    
C12   O11   A    
O15   Zn1   S    
C13   O6    D    
C4    C20   S    
C5    H14   S    
O13   Zn2   S    
C20   C21   S    
C9    H5    S    
C18   C20   D    
C16   C18   S    
C9    C10   S    
C7    H20   S    
C10   H6    S    
C15   H13   S    
C2    C13   S    
C15   N2    S    
C6    H17   S    
C8    C9    S    
C4    O2    D    
C11   C22   S    
C17   C19   S    
O12   Zn1   S    
C7    H18   S    
C12   O9    A    
N1    Zn2   S    
C17   O13   A    
C14   N1    S    
C19   C21   D    
C18   O4    S    
