data_mof_unit_10482.cif
_audit_creation_date              2012-12-11T15:22:36-0500
_audit_creation_method            fapswitch 2.2
_symmetry_space_group_name_H-M    P1
_symmetry_Int_Tables_number       1
_space_group_crystal_system       triclinic
_cell_length_a                    22.437693
_cell_length_b                    12.973093
_cell_length_c                    27.005902
_cell_angle_alpha                 90.069952
_cell_angle_beta                  90.822281
_cell_angle_gamma                 89.943036
_cell_volume                      7860.2283493

loop_
_atom_site_label
_atom_site_type_symbol
_atom_type_description
_atom_site_fract_x
_atom_site_fract_y
_atom_site_fract_z
_atom_type_partial_charge
C1    C     C_R   0.719933 0.344174 0.177754 0.546215
C2    C     C_R   0.479370 0.258440 0.897112 -0.138401
C3    C     C_R   0.017901 0.593592 0.555678 -0.098495
C4    C     C_R   0.492651 0.090407 0.393433 0.018744
C5    C     C_R   0.505640 0.086758 0.606032 0.031801
C6    C     C_R   0.994835 0.588030 0.394277 0.031158
C7    C     C_R   0.007180 0.588077 0.606744 0.031644
C8    C     C_R   0.735404 0.979782 0.375883 0.049815
C9    C     C_R   0.258929 0.952867 0.628607 0.018701
C10   C     C_R   0.240829 0.453870 0.371628 0.018544
C11   C     C_R   0.760172 0.453227 0.628154 0.017311
C12   C     C_R   0.722926 0.881513 0.394571 0.251308
C13   C     C_R   0.020305 0.758270 0.103001 -0.138341
C14   C     C_R   0.307202 0.905864 0.604026 0.257346
C15   C     C_R   0.192427 0.407472 0.396198 0.257536
C16   C     C_R   0.809707 0.410750 0.603313 0.258006
C17   C     C_R   0.721310 0.867578 0.446095 -0.104715
C18   C     C_R   0.304390 0.894227 0.553018 -0.099461
C19   C     C_R   0.195104 0.396233 0.447220 -0.099449
C20   C     C_R   0.807852 0.402149 0.552127 -0.100422
C21   C     C_R   0.731688 0.951732 0.478139 -0.010408
C22   C     C_R   0.252508 0.920270 0.526480 -0.008046
C23   C     C_R   0.246946 0.422086 0.473831 -0.008176
C24   C     C_R   0.979381 0.758388 0.897136 -0.138401
C25   C     C_R   0.755439 0.424250 0.525408 -0.010758
C26   C     C_R   0.741961 0.049654 0.458566 -0.146940
C27   C     C_R   0.201965 0.953593 0.551929 -0.141700
C28   C     C_R   0.297539 0.455150 0.448450 -0.141535
C29   C     C_R   0.703602 0.450343 0.551350 -0.140560
C30   C     C_R   0.744362 0.063092 0.408042 -0.168429
C31   C     C_R   0.205329 0.970804 0.602629 -0.179770
C32   C     C_R   0.294324 0.471957 0.397723 -0.179722
C33   C     C_R   0.706286 0.466937 0.602187 -0.177211
C34   C     C_R   0.782904 0.986765 0.558099 -0.123286
C35   C     C_R   0.508704 0.259951 0.051807 0.008027
C36   C     C_R   0.218774 0.983121 0.443385 -0.118822
C37   C     C_R   0.280717 0.484281 0.557091 -0.118608
C38   C     C_R   0.714760 0.481496 0.443318 -0.125233
C39   C     C_R   0.721666 0.348667 0.321259 0.533744
C40   C     C_R   0.278556 0.347480 0.678436 0.540434
C41   C     C_R   0.221411 0.847480 0.321604 0.540033
C42   C     C_R   0.778514 0.847857 0.678459 0.542673
C43   C     C_R   0.793069 0.964696 0.607618 -0.138009
C44   C     C_R   0.212608 0.967737 0.392605 -0.138511
C45   C     C_R   0.287046 0.468371 0.607806 -0.138083
C46   C     C_R   0.491093 0.260055 0.948262 0.007719
C47   C     C_R   0.707217 0.465046 0.392842 -0.139009
C48   C     C_R   0.708249 0.848664 0.606458 -0.130600
C49   C     C_R   0.277785 0.818668 0.398731 -0.126775
C50   C     C_R   0.221880 0.319544 0.601336 -0.127194
C51   C     C_R   0.788014 0.341175 0.394749 -0.142892
C52   C     C_R   0.697814 0.871404 0.556738 -0.123565
C53   C     C_R   0.282273 0.831874 0.449359 -0.125096
C54   C     C_R   0.217195 0.333311 0.550755 -0.125026
C55   C     C_R   0.793278 0.353054 0.445603 -0.130392
C56   C     C_R   0.736558 0.937506 0.531850 0.041122
C57   C     C_R   0.008656 0.759929 0.051840 0.007903
C58   C     C_R   0.251468 0.912353 0.472351 0.041702
C59   C     C_R   0.247955 0.413887 0.527954 0.041921
C60   C     C_R   0.754956 0.420319 0.470810 0.040601
C61   C     C_R   0.757701 0.891603 0.631467 0.022278
C62   C     C_R   0.240342 0.883009 0.370449 0.023269
C63   C     C_R   0.259433 0.383459 0.629739 0.023532
C64   C     C_R   0.741695 0.390592 0.368838 0.015436
C65   C     C_R   0.553876 0.158912 0.321546 0.533205
C66   C     C_R   0.446218 0.158656 0.678472 0.539430
C67   C     C_R   0.053917 0.658809 0.321600 0.539528
C68   C     C_R   0.991061 0.760002 0.948294 0.007794
C69   C     C_R   0.946288 0.658721 0.678538 0.540306
C70   C     C_R   0.731360 0.004050 0.323566 0.568455
C71   C     C_R   0.268200 0.001414 0.677073 0.547544
C72   C     C_R   0.231754 0.501688 0.322998 0.547211
C73   C     C_R   0.768369 0.501438 0.676949 0.546906
C74   C     C_R   0.515046 0.071220 0.102305 -0.106779
C75   C     C_R   0.486022 0.071467 0.897317 -0.106152
C76   C     C_R   0.014758 0.571218 0.102393 -0.106504
C77   C     C_R   0.985784 0.571390 0.897390 -0.106175
C78   C     C_R   0.506617 0.071255 0.051328 0.017490
C79   C     C_R   0.503812 0.165834 0.025769 0.057128
C80   C     C_R   0.494627 0.071405 0.948282 0.018003
C81   C     C_R   0.006282 0.571240 0.051416 0.017666
C82   C     C_R   0.994321 0.571341 0.948362 0.017920
C83   C     C_R   0.498393 0.977875 0.974019 -0.132992
C84   C     C_R   0.503663 0.977791 0.025370 -0.133091
C85   C     C_R   0.997915 0.477822 0.974125 -0.132968
C86   C     C_R   0.003162 0.477767 0.025478 -0.133056
C87   C     C_3   0.615942 0.812098 0.128454 -0.018388
C88   C     C_3   0.573638 0.803306 0.171799 -0.347684
C89   C     C_3   0.385221 0.813772 0.872180 -0.015796
C90   C     C_R   0.496739 0.165901 0.974067 0.057083
C91   C     C_3   0.425033 0.804205 0.827245 -0.352867
C92   C     C_3   0.115379 0.313275 0.128276 -0.016123
C93   C     C_3   0.074964 0.304473 0.172855 -0.352854
C94   C     C_3   0.885184 0.313702 0.872021 -0.015794
C95   C     C_3   0.924903 0.304286 0.827018 -0.352805
C96   C     C_3   0.529437 0.993196 0.633720 -0.262693
C97   C     C_3   0.577058 0.023119 0.672056 -0.437530
C98   C     C_3   0.466001 0.000459 0.364749 -0.266820
C99   C     C_3   0.419484 0.036563 0.326718 -0.429542
C100  C     C_3   0.031745 0.495828 0.634953 -0.263605
C101  C     C_R   0.003615 0.665806 0.025830 0.057094
C102  C     C_3   0.078520 0.528019 0.673580 -0.437757
C103  C     C_3   0.969374 0.496164 0.366272 -0.261962
C104  C     C_3   0.921229 0.529268 0.329061 -0.441943
C105  C     C_3   0.757279 0.732377 0.360540 -0.022919
C106  C     C_3   0.750989 0.666983 0.313925 -0.363766
C107  C     C_3   0.357339 0.781487 0.646017 -0.005312
C108  C     C_3   0.415895 0.754610 0.671972 -0.374950
C109  C     C_3   0.142048 0.282893 0.354509 -0.005267
C110  C     C_3   0.083513 0.256310 0.328466 -0.373653
C111  C     C_3   0.860617 0.287285 0.645243 -0.003444
C112  C     C_R   0.280077 0.344211 0.822245 0.546379
C113  C     C_R   0.996554 0.665851 0.974125 0.057065
C114  C     C_3   0.919186 0.261409 0.671412 -0.375447
C115  C     C_3   0.850035 0.100829 0.967560 -0.015260
C116  C     C_3   0.901599 0.149129 0.996540 -0.386948
C117  C     C_3   0.150314 0.100812 0.032230 -0.015198
C118  C     C_3   0.098514 0.149230 0.003576 -0.386932
C119  C     C_3   0.350109 0.600660 0.967591 -0.015361
C120  C     C_3   0.401578 0.648976 0.996682 -0.386854
C121  C     C_3   0.650576 0.600398 0.031689 -0.015339
C122  C     C_3   0.598439 0.648575 0.003361 -0.386961
C123  C     C_R   0.504314 0.353430 0.025819 -0.103596
C124  C     C_R   0.494802 0.353473 0.974464 -0.103667
C125  C     C_R   0.004398 0.853400 0.025831 -0.103925
C126  C     C_R   0.994892 0.853431 0.974476 -0.103770
C127  C     C_R   0.740000 0.948139 0.132065 0.026201
C128  C     C_R   0.260115 0.948580 0.868009 0.027446
C129  C     C_R   0.239963 0.448260 0.132030 0.027173
C130  C     C_R   0.760115 0.448512 0.867996 0.027546
C131  C     C_R   0.797206 0.938017 0.112590 -0.195129
C132  C     C_R   0.219923 0.844154 0.177747 0.546494
C133  C     C_R   0.202905 0.938253 0.887427 -0.195158
C134  C     C_R   0.297179 0.437876 0.112601 -0.194911
C135  C     C_R   0.702909 0.438125 0.887411 -0.195248
C136  C     C_R   0.804313 0.908626 0.063347 -0.103047
C137  C     C_R   0.195790 0.908792 0.936628 -0.103290
C138  C     C_R   0.304298 0.408435 0.063366 -0.102957
C139  C     C_R   0.695802 0.408566 0.936602 -0.103611
C140  C     C_R   0.754254 0.898366 0.031629 -0.001376
C141  C     C_R   0.245821 0.898540 0.968380 -0.001808
C142  C     C_R   0.254256 0.398320 0.031621 -0.001501
C143  C     C_R   0.780072 0.844224 0.822242 0.546417
C144  C     C_R   0.745834 0.398310 0.968356 -0.002162
C145  C     C_R   0.697278 0.900153 0.052465 -0.126411
C146  C     C_R   0.302824 0.900684 0.947618 -0.127028
C147  C     C_R   0.197259 0.400418 0.052402 -0.126711
C148  C     C_R   0.802835 0.400500 0.947587 -0.127078
C149  C     C_R   0.553599 0.157360 0.177474 0.551036
C150  C     C_R   0.446448 0.157397 0.822497 0.550413
C151  C     C_R   0.053577 0.657357 0.177487 0.550427
C152  C     C_R   0.946436 0.657389 0.822507 0.550219
C153  C     C_R   0.690124 0.918459 0.102855 0.261451
C154  C     C_R   0.474638 0.163743 0.871861 -0.006834
C155  C     C_R   0.310029 0.919257 0.897270 0.262515
C156  C     C_R   0.190069 0.418885 0.102769 0.262220
C157  C     C_R   0.810031 0.419140 0.897243 0.262569
C158  C     C_R   0.717717 0.833207 0.949535 -0.170501
C159  C     C_R   0.282324 0.833019 0.050388 -0.170210
C160  C     C_R   0.217751 0.333093 0.949546 -0.170395
C161  C     C_R   0.782398 0.333006 0.050407 -0.170141
C162  C     C_R   0.720298 0.826371 0.898305 -0.144087
C163  C     C_R   0.279695 0.826057 0.101618 -0.143915
C164  C     C_R   0.220324 0.326289 0.898315 -0.144037
C165  C     C_R   0.525621 0.163544 0.128022 -0.007607
C166  C     C_R   0.779757 0.326116 0.101644 -0.144148
C167  C     C_R   0.806927 0.937003 0.899588 -0.111378
C168  C     C_R   0.193003 0.936833 0.100458 -0.111085
C169  C     C_R   0.306969 0.436898 0.899607 -0.111493
C170  C     C_R   0.692981 0.436682 0.100428 -0.110846
C171  C     C_R   0.804265 0.945960 0.951161 0.274041
C172  C     C_R   0.195665 0.945761 0.048902 0.273890
C173  C     C_R   0.304315 0.445817 0.951180 0.274062
C174  C     C_R   0.695618 0.445432 0.048872 0.273743
C175  C     C_R   0.759917 0.890979 0.976916 0.051257
C176  C     C_R   0.974563 0.663689 0.871900 -0.006866
C177  C     C_R   0.240096 0.890879 0.023075 0.050983
C178  C     C_R   0.259955 0.390853 0.976923 0.051306
C179  C     C_R   0.740110 0.390673 0.023060 0.050796
C180  C     C_R   0.765973 0.875704 0.872994 -0.020155
C181  C     C_R   0.233992 0.875476 0.126995 -0.020306
C182  C     C_R   0.265997 0.375641 0.873007 -0.020207
C183  C     C_R   0.734007 0.375466 0.126997 -0.020737
C184  C     C_R   0.526875 0.169578 0.371008 0.037118
C185  C     C_R   0.473905 0.168525 0.629193 0.039212
C186  C     C_R   0.027098 0.668960 0.371194 0.039439
C187  C     C_R   0.025516 0.663543 0.128068 -0.007100
C188  C     C_R   0.974252 0.668905 0.629420 0.040861
C189  C     C_R   0.544034 0.255878 0.399589 -0.142783
C190  C     C_R   0.459705 0.257308 0.601361 -0.143637
C191  C     C_R   0.042818 0.756678 0.399326 -0.143231
C192  C     C_R   0.959382 0.756959 0.601298 -0.143742
C193  C     C_R   0.532621 0.260264 0.449981 -0.131471
C194  C     C_R   0.471247 0.262000 0.550987 -0.130932
C195  C     C_R   0.031950 0.761113 0.449822 -0.130597
C196  C     C_R   0.971411 0.761568 0.551017 -0.132632
C197  C     C_R   0.731278 0.000365 0.179800 0.561334
C198  C     C_R   0.520318 0.258282 0.102976 -0.138226
C199  C     C_R   0.268762 0.000494 0.820238 0.557390
C200  C     C_R   0.231266 0.500409 0.179784 0.557238
C201  C     C_R   0.768761 0.500486 0.820236 0.557254
C202  C     C_R   0.503954 0.178369 0.473079 0.017074
C203  C     C_R   0.497105 0.177978 0.527161 0.016203
C204  C     C_R   0.005248 0.677884 0.473481 0.015605
C205  C     C_R   0.998438 0.678182 0.527579 0.016180
C206  C     C_R   0.482533 0.095588 0.444620 -0.102012
C207  C     C_R   0.515872 0.092468 0.554897 -0.098888
C208  C     C_R   0.985237 0.593430 0.445511 -0.100884
Cr1   Cr    Cr6+3 0.756570 0.170940 0.251190 1.000703
Cr2   Cr    Cr6+3 0.374010 0.036240 0.749520 1.037238
Cr3   Cr    Cr6+3 0.125990 0.536240 0.250480 1.036929
Cr4   Cr    Cr6+3 0.874010 0.536240 0.749520 1.036628
Cr5   Cr    Cr6+3 0.243430 0.170940 0.748810 1.002060
Cr6   Cr    Cr6+3 0.256570 0.670940 0.251190 1.004022
Cr7   Cr    Cr6+3 0.743430 0.670940 0.748810 1.003842
Cr8   Cr    Cr6+3 0.623740 0.299110 0.249580 1.003281
Cr9   Cr    Cr6+3 0.376260 0.299110 0.750420 1.002902
Cr10  Cr    Cr6+3 0.123740 0.799110 0.249580 1.003484
Cr11  Cr    Cr6+3 0.876260 0.799110 0.750420 1.002094
Cr12  Cr    Cr6+3 0.625990 0.036240 0.250480 1.039031
H1    H     H_    0.483503 0.998370 0.878163 0.150749
H2    H     H_    0.342597 0.892237 0.970360 0.115072
H3    H     H_    0.900367 0.330397 0.793314 0.162602
H4    H     H_    0.614306 0.063900 0.653805 0.156212
H5    H     H_    0.558203 0.073602 0.701103 0.155026
H6    H     H_    0.595028 0.952517 0.690088 0.132424
H7    H     H_    0.492980 0.949737 0.651306 0.195440
H8    H     H_    0.550288 0.937785 0.607696 0.121897
H9    H     H_    0.383722 0.080709 0.345336 0.153544
H10   H     H_    0.440058 0.085797 0.298084 0.155276
H11   H     H_    0.399104 0.968576 0.308085 0.135561
H12   H     H_    0.501112 0.954400 0.346618 0.178524
H13   H     H_    0.157475 0.392060 0.029669 0.115236
H14   H     H_    0.443409 0.946174 0.390195 0.127164
H15   H     H_    0.115451 0.570037 0.655527 0.154427
H16   H     H_    0.058671 0.578085 0.702327 0.154269
H17   H     H_    0.097168 0.458338 0.691973 0.134186
H18   H     H_    0.995577 0.451561 0.652452 0.194060
H19   H     H_    0.053509 0.440731 0.609306 0.123724
H20   H     H_    0.885560 0.572274 0.348349 0.147889
H21   H     H_    0.940165 0.578831 0.299768 0.154163
H22   H     H_    0.901240 0.460035 0.311228 0.134506
H23   H     H_    0.004822 0.451861 0.347672 0.193894
H24   H     H_    0.842615 0.392060 0.970319 0.115071
H25   H     H_    0.948508 0.440816 0.392219 0.123454
H26   H     H_    0.756867 0.680882 0.393420 0.140840
H27   H     H_    0.801173 0.772691 0.359059 0.120095
H28   H     H_    0.755873 0.716274 0.280629 0.149493
H29   H     H_    0.785868 0.606308 0.313635 0.094634
H30   H     H_    0.706525 0.629616 0.312414 0.165409
H31   H     H_    0.350070 0.725634 0.615101 0.110388
H32   H     H_    0.320794 0.773496 0.673275 0.122054
H33   H     H_    0.424890 0.809901 0.702593 0.148841
H34   H     H_    0.413478 0.675479 0.687449 0.090108
H35   H     H_    0.569885 0.317780 0.383724 0.139925
H36   H     H_    0.452995 0.758090 0.645239 0.139115
H37   H     H_    0.148996 0.227549 0.385628 0.110181
H38   H     H_    0.178687 0.273879 0.327392 0.121911
H39   H     H_    0.074856 0.311087 0.297621 0.148911
H40   H     H_    0.085717 0.176827 0.313283 0.090305
H41   H     H_    0.046302 0.260884 0.355066 0.140104
H42   H     H_    0.853946 0.231547 0.614187 0.111425
H43   H     H_    0.823975 0.278139 0.672325 0.122941
H44   H     H_    0.927674 0.316764 0.702105 0.150288
H45   H     H_    0.917145 0.182208 0.686848 0.088425
H46   H     H_    0.435983 0.321298 0.617761 0.139209
H47   H     H_    0.956405 0.265515 0.644817 0.137935
H48   H     H_    0.807437 0.135781 0.979991 0.142307
H49   H     H_    0.856460 0.118065 0.927717 0.106204
H50   H     H_    0.944383 0.114269 0.984836 0.145176
H51   H     H_    0.903398 0.233293 0.989649 0.076474
H52   H     H_    0.895923 0.135734 0.036817 0.154454
H53   H     H_    0.192837 0.134927 0.019254 0.142431
H54   H     H_    0.144553 0.118887 0.072094 0.106194
H55   H     H_    0.055795 0.115125 0.015785 0.145360
H56   H     H_    0.097050 0.233539 0.010213 0.076483
H57   H     H_    0.067134 0.819917 0.383007 0.140304
H58   H     H_    0.103611 0.135021 0.963285 0.154312
H59   H     H_    0.307470 0.635624 0.979922 0.142186
H60   H     H_    0.356667 0.617873 0.927763 0.106197
H61   H     H_    0.444405 0.614130 0.985074 0.145165
H62   H     H_    0.403388 0.733141 0.989794 0.076517
H63   H     H_    0.395774 0.635583 0.036945 0.154640
H64   H     H_    0.692958 0.633862 0.018047 0.142739
H65   H     H_    0.645566 0.619372 0.071544 0.106228
H66   H     H_    0.555856 0.614946 0.016167 0.145539
H67   H     H_    0.597203 0.733013 0.009632 0.076509
H68   H     H_    0.934748 0.820275 0.617370 0.137029
H69   H     H_    0.602903 0.633573 0.963077 0.154154
H70   H     H_    0.538292 0.029687 0.536246 0.104499
H71   H     H_    0.458117 0.034556 0.462720 0.105874
H72   H     H_    0.041166 0.531315 0.537363 0.104893
H73   H     H_    0.518053 0.998094 0.121281 0.153295
H74   H     H_    0.962162 0.531360 0.464020 0.103773
H75   H     H_    0.548900 0.325308 0.471423 0.108674
H76   H     H_    0.457171 0.329232 0.530106 0.109449
H77   H     H_    0.047071 0.827503 0.470875 0.109774
H78   H     H_    0.956712 0.828059 0.529882 0.109960
H79   H     H_    0.813641 0.037837 0.539699 0.097488
H80   H     H_    0.196325 0.048051 0.460134 0.097143
H81   H     H_    0.303128 0.549279 0.540510 0.097028
H82   H     H_    0.686997 0.538616 0.460954 0.101547
H83   H     H_    0.831164 0.999600 0.626145 0.118115
H84   H     H_    0.983194 0.498279 0.878254 0.151113
H85   H     H_    0.183884 0.018581 0.371204 0.109649
H86   H     H_    0.315827 0.518936 0.629313 0.109515
H87   H     H_    0.671849 0.505774 0.373413 0.129155
H88   H     H_    0.496285 0.904866 0.954507 0.102461
H89   H     H_    0.506373 0.904726 0.044715 0.103763
H90   H     H_    0.995700 0.404802 0.954629 0.102542
H91   H     H_    0.005737 0.404710 0.044838 0.103023
H92   H     H_    0.712834 0.791493 0.460857 0.107376
H93   H     H_    0.344067 0.868474 0.534276 0.113064
H94   H     H_    0.155373 0.370803 0.465915 0.112969
H95   H     H_    0.017664 0.498080 0.121390 0.152383
H96   H     H_    0.848723 0.381828 0.533754 0.113675
H97   H     H_    0.660945 0.834690 0.537353 0.099407
H98   H     H_    0.307177 0.775231 0.470585 0.094830
H99   H     H_    0.192220 0.276960 0.529393 0.094328
H100  H     H_    0.824821 0.304054 0.464973 0.089496
H101  H     H_    0.679898 0.792769 0.624297 0.125097
H102  H     H_    0.299446 0.752156 0.382631 0.136385
H103  H     H_    0.200291 0.252943 0.617272 0.135352
H104  H     H_    0.816210 0.284997 0.376800 0.122522
H105  H     H_    0.748198 0.116151 0.482398 0.122207
H106  H     H_    0.844213 0.971759 0.880858 0.128735
H107  H     H_    0.160509 0.969915 0.532454 0.110912
H108  H     H_    0.338955 0.471415 0.467986 0.111776
H109  H     H_    0.661377 0.462021 0.532323 0.110815
H110  H     H_    0.751008 0.139951 0.393817 0.139478
H111  H     H_    0.167139 0.004058 0.620852 0.132098
H112  H     H_    0.332574 0.504885 0.379545 0.133380
H113  H     H_    0.667102 0.495895 0.620624 0.131834
H114  H     H_    0.470888 0.330118 0.877645 0.123159
H115  H     H_    0.528199 0.330001 0.122637 0.123292
H116  H     H_    0.971018 0.830079 0.877645 0.123126
H117  H     H_    0.155712 0.971768 0.119206 0.129197
H118  H     H_    0.028309 0.829982 0.122635 0.123062
H119  H     H_    0.490522 0.426444 0.955249 0.120559
H120  H     H_    0.508023 0.426378 0.045203 0.120122
H121  H     H_    0.990726 0.926399 0.955244 0.120470
H122  H     H_    0.008220 0.926352 0.045197 0.120056
H123  H     H_    0.836315 0.955074 0.135104 0.126209
H124  H     H_    0.163788 0.955139 0.864889 0.125823
H125  H     H_    0.336286 0.454763 0.135146 0.126206
H126  H     H_    0.663789 0.455026 0.864880 0.125789
H127  H     H_    0.683705 0.789369 0.967727 0.103313
H128  H     H_    0.344257 0.471653 0.880879 0.128644
H129  H     H_    0.316409 0.789268 0.032125 0.103770
H130  H     H_    0.183731 0.289276 0.967747 0.103589
H131  H     H_    0.816541 0.289340 0.032174 0.103765
H132  H     H_    0.688852 0.776773 0.878983 0.138455
H133  H     H_    0.311160 0.776398 0.120886 0.138687
H134  H     H_    0.188869 0.276717 0.878988 0.138519
H135  H     H_    0.811264 0.276578 0.120938 0.138432
H136  H     H_    0.849113 0.897800 0.050124 0.182750
H137  H     H_    0.150994 0.897835 0.949798 0.182741
H138  H     H_    0.349096 0.397454 0.050163 0.182673
H139  H     H_    0.655678 0.471675 0.119142 0.129860
H140  H     H_    0.651007 0.397544 0.949758 0.182908
H141  H     H_    0.654199 0.759044 0.136379 0.104936
H142  H     H_    0.592268 0.785660 0.094400 0.117406
H143  H     H_    0.532146 0.847372 0.164346 0.135367
H144  H     H_    0.561665 0.721182 0.177530 0.078886
H145  H     H_    0.595396 0.833122 0.206113 0.175320
H146  H     H_    0.347385 0.758839 0.866376 0.102197
H147  H     H_    0.411121 0.789978 0.905573 0.118049
H148  H     H_    0.465931 0.851107 0.832263 0.139517
H149  H     H_    0.438290 0.722422 0.822147 0.074897
H150  H     H_    0.657477 0.891631 0.029769 0.115162
H151  H     H_    0.400609 0.830456 0.793514 0.162938
H152  H     H_    0.153459 0.259054 0.134761 0.102747
H153  H     H_    0.090075 0.288170 0.094785 0.117930
H154  H     H_    0.033770 0.350369 0.167088 0.138614
H155  H     H_    0.062259 0.222620 0.178377 0.075332
H156  H     H_    0.098668 0.332346 0.206648 0.163983
H157  H     H_    0.847331 0.258801 0.866227 0.102287
H158  H     H_    0.911151 0.289768 0.905356 0.118001
H159  H     H_    0.965744 0.351369 0.831962 0.139739
H160  H     H_    0.938266 0.222557 0.821912 0.074986
O1    O     O_R   0.769900 0.064540 0.196060 -0.530222
O2    O     O_R   0.433710 0.069580 0.694600 -0.503673
O3    O     O_R   0.066290 0.569580 0.305400 -0.502838
O4    O     O_R   0.933710 0.569580 0.694600 -0.501634
O5    O     O_R   0.680760 0.993330 0.302620 -0.473416
O6    O     O_R   0.319240 0.993330 0.697380 -0.455669
O7    O     O_R   0.180760 0.493330 0.302620 -0.455898
O8    O     O_R   0.819240 0.493330 0.697380 -0.457172
O9    O     O_3   0.668770 0.168760 0.250420 -0.243211
O10   O     O_3   0.331230 0.168760 0.749580 -0.240300
O11   O     O_3   0.168770 0.668760 0.250420 -0.240750
O12   O     O_R   0.230100 0.064540 0.803940 -0.531676
O13   O     O_3   0.831230 0.668760 0.749580 -0.240115
O14   O     O_R   0.750800 0.274080 0.199250 -0.499768
O15   O     O_R   0.249200 0.274080 0.800750 -0.500125
O16   O     O_R   0.250800 0.774080 0.199250 -0.499756
O17   O     O_R   0.749200 0.774080 0.800750 -0.500689
O18   O     O_R   0.669990 0.371670 0.194150 -0.526046
O19   O     O_R   0.330010 0.371670 0.805850 -0.526983
O20   O     O_R   0.169990 0.871670 0.194150 -0.526988
O21   O     O_R   0.830010 0.871670 0.805850 -0.526680
O22   O     O_R   0.574600 0.238480 0.197800 -0.504192
O23   O     O_R   0.269900 0.564540 0.196060 -0.531059
O24   O     O_R   0.425400 0.238480 0.802200 -0.505322
O25   O     O_R   0.074600 0.738480 0.197800 -0.505145
O26   O     O_R   0.925400 0.738480 0.802200 -0.505252
O27   O     O_R   0.566130 0.068680 0.194240 -0.500919
O28   O     O_R   0.433870 0.068680 0.805760 -0.502732
O29   O     O_R   0.066130 0.568680 0.194240 -0.502913
O30   O     O_R   0.933870 0.568680 0.805760 -0.503104
O31   O     O_R   0.680610 0.992490 0.199570 -0.451610
O32   O     O_R   0.319390 0.992490 0.800430 -0.456919
O33   O     O_R   0.180610 0.492490 0.199570 -0.457072
O34   O     O_R   0.730100 0.564540 0.803940 -0.532064
O35   O     O_R   0.819390 0.492490 0.800430 -0.457058
O36   O     O_R   0.770060 0.065440 0.307230 -0.539879
O37   O     O_R   0.229940 0.065440 0.692770 -0.538237
O38   O     O_R   0.270060 0.565440 0.307230 -0.537682
O39   O     O_R   0.729940 0.565440 0.692770 -0.533355
O40   O     O_R   0.750960 0.274920 0.302300 -0.511231
O41   O     O_R   0.249040 0.274920 0.697700 -0.507972
O42   O     O_R   0.250960 0.774920 0.302300 -0.507629
O43   O     O_R   0.749040 0.774920 0.697700 -0.504327
O44   O     O_R   0.670160 0.372580 0.305320 -0.525826
O45   O     O_R   0.574760 0.239320 0.300850 -0.509140
O46   O     O_R   0.329840 0.372580 0.694680 -0.523631
O47   O     O_R   0.170160 0.872580 0.305320 -0.523856
O48   O     O_R   0.829840 0.872580 0.694680 -0.527567
O49   O     O_3   0.633484 0.916084 0.122453 -0.534809
O50   O     O_3   0.366729 0.917490 0.877767 -0.533087
O51   O     O_3   0.133382 0.417048 0.122281 -0.533848
O52   O     O_3   0.866729 0.417410 0.877735 -0.533280
O53   O     O_3   0.708924 0.801924 0.362394 -0.562845
O54   O     O_3   0.360414 0.883406 0.628050 -0.538952
O55   O     O_3   0.139228 0.385200 0.372125 -0.537728
O56   O     O_R   0.425240 0.239320 0.699150 -0.511722
O57   O     O_3   0.863007 0.389459 0.627469 -0.537741
O58   O     O_3   0.850460 0.993911 0.976632 -0.582579
O59   O     O_3   0.149413 0.993738 0.023523 -0.582402
O60   O     O_3   0.350507 0.493743 0.976668 -0.582523
O61   O     O_3   0.649274 0.493164 0.023524 -0.582515
O62   O     O_R   0.074760 0.739320 0.300850 -0.512096
O63   O     O_R   0.925240 0.739320 0.699150 -0.512448
O64   O     O_R   0.566290 0.069580 0.305400 -0.523009

loop_
_geom_bond_atom_site_label_1
_geom_bond_atom_site_label_2
_ccdc_geom_bond_type
C91   H148  S    
C172  C177  A    
C21   C26   A    
C102  H16   S    
C108  H33   S    
C134  H125  S    
C101  C113  A    
C18   H93   S    
C87   H141  S    
C136  C140  A    
C41   O42   A    
C174  C179  A    
C185  C190  A    
C133  C137  A    
C40   O41   A    
C14   O54   S    
Cr7   O13   S    
Cr8   O18   S    
C167  H106  S    
C119  H59   S    
C29   C33   A    
C169  H128  S    
C100  H19   S    
C137  H137  S    
C114  H44   S    
C79   C90   A    
C204  C208  A    
C32   H112  S    
C121  H64   S    
C132  O16   A    
C81   C86   A    
C34   C56   A    
C119  O60   S    
C167  C180  A    
C46   C124  A    
C16   O57   S    
C80   C83   A    
C208  H74   S    
C162  H132  S    
C9    C31   A    
C25   C29   A    
C38   H82   S    
C202  C203  S    
C27   C31   A    
C94   H157  S    
Cr11  O21   S    
C173  O60   S    
C117  H53   S    
C47   C64   A    
C118  H58   S    
C72   O38   A    
C167  C171  A    
Cr9   O10   S    
C17   C21   A    
C94   O52   S    
C44   H85   S    
C151  C187  S    
C110  H40   S    
Cr3   O29   S    
C132  C181  S    
C129  C156  A    
C201  O35   A    
Cr7   O34   S    
C16   C20   A    
C40   O46   A    
Cr12  O5    S    
Cr10  O11   S    
C160  C178  A    
C98   H12   S    
C112  O19   A    
C120  H61   S    
C22   C27   A    
C141  C177  S    
C36   C44   A    
C37   C45   A    
C24   C176  A    
C160  C164  A    
C115  H48   S    
C43   C61   A    
C170  C174  A    
C39   O44   A    
C104  H20   S    
Cr8   O22   S    
C49   C62   A    
C66   O2    A    
C24   H116  S    
Cr10  O20   S    
C51   C64   A    
C140  C145  A    
C22   C58   S    
Cr9   O24   S    
C99   H11   S    
C53   C58   A    
C85   H90   S    
C20   H96   S    
C82   C85   A    
C125  H122  S    
C6    C186  A    
C67   O62   A    
C106  H30   S    
C65   O64   A    
C165  C198  A    
C197  O31   A    
C76   H95   S    
C203  C207  A    
C77   C82   A    
C49   C53   A    
Cr8   O9    S    
C51   C55   A    
C87   O49   S    
C127  C131  A    
C169  C182  A    
C128  C199  S    
C48   C52   A    
C98   C99   S    
C42   C61   S    
C88   H143  S    
C47   H87   S    
Cr1   O1    S    
C143  O17   A    
C66   O56   A    
C74   C165  A    
Cr7   O43   S    
C65   O45   A    
Cr8   O44   S    
C92   H153  S    
C13   C187  A    
C67   O3    A    
C163  C181  A    
C53   H98   S    
C109  O55   S    
C105  C106  S    
C31   H111  S    
Cr6   O16   S    
C115  O58   S    
C118  H56   S    
C1    C183  S    
C123  C124  A    
C81   C101  A    
C85   C86   A    
C195  H77   S    
C23   C59   S    
C103  H25   S    
C42   O48   A    
C107  H32   S    
C130  C157  A    
C96   H8    S    
Cr10  O47   S    
C57   C125  A    
Cr1   O14   S    
C13   C57   A    
C93   H154  S    
C104  H21   S    
C199  O12   A    
C72   O7    A    
C164  H134  S    
Cr9   O19   S    
C120  H63   S    
Cr4   O4    S    
C107  C108  S    
C117  O59   S    
C100  H18   S    
C89   C91   S    
C116  H51   S    
C6    C208  A    
C170  H139  S    
C2    C154  A    
Cr7   O17   S    
C50   C63   A    
C3    H72   S    
C84   H89   S    
C99   H9    S    
C91   H151  S    
C54   C59   A    
C86   H91   S    
C146  C155  A    
C3    C205  A    
C11   C33   A    
C149  C165  S    
C131  C136  A    
Cr8   O45   S    
C95   H3    S    
C1    O14   A    
C95   H160  S    
C132  O20   A    
Cr11  O26   S    
C122  H67   S    
C139  H140  S    
C41   O47   A    
C171  O58   S    
C83   C84   A    
C98   H14   S    
C8    C12   A    
C149  O22   A    
C197  O1    A    
C189  H35   S    
C23   C28   A    
C37   C59   A    
C38   C60   A    
C199  O32   A    
C25   C60   S    
C26   C30   A    
C77   C176  A    
C52   H97   S    
C66   C185  S    
C29   H109  S    
C147  H13   S    
C89   H147  S    
C102  H17   S    
C108  H34   S    
C18   C22   A    
C135  H126  S    
C142  C147  A    
Cr2   O28   S    
C34   C43   A    
C82   C113  A    
C41   C62   S    
C115  H49   S    
C93   H156  S    
C57   C101  A    
C8    C70   S    
Cr12  O9    S    
C94   H158  S    
C188  C192  A    
Cr6   O23   S    
C35   C123  A    
C12   O53   S    
C117  C118  S    
C112  O15   A    
C142  C178  S    
C173  C178  A    
C35   C79   A    
C97   H6    S    
C148  C157  A    
C19   H94   S    
C191  C195  A    
C189  C193  A    
C158  C175  A    
C204  C205  S    
C148  H24   S    
C169  C173  A    
Cr11  O13   S    
Cr4   O30   S    
C70   O5    A    
C91   H149  S    
Cr3   O3    S    
C166  H135  S    
C65   C184  S    
C10   C72   S    
C97   H5    S    
C87   C88   S    
C2    H114  S    
Cr2   O6    S    
Cr3   O11   S    
C130  C135  A    
C5    C185  A    
Cr2   O32   S    
C55   H100  S    
C192  H68   S    
C136  H136  S    
Cr1   O36   S    
C15   C19   A    
C39   C64   S    
C92   H152  S    
C69   O63   A    
C50   C54   A    
C40   C63   S    
Cr10  O25   S    
Cr6   O38   S    
C192  C196  A    
Cr4   O35   S    
C152  O30   A    
C3    C7    A    
C107  O54   S    
C146  H2    S    
C150  O28   A    
C36   H80   S    
C20   C25   A    
C27   H107  S    
C42   O43   A    
C109  H38   S    
C143  O21   A    
Cr5   O15   S    
C105  H27   S    
C110  H41   S    
C201  O34   A    
C200  O33   A    
C12   C17   A    
C193  H75   S    
C194  H76   S    
C68   C113  A    
C120  H62   S    
C102  H15   S    
C55   C60   A    
C108  H36   S    
C87   H142  S    
C45   H86   S    
C116  H50   S    
C127  C197  S    
C77   H84   S    
Cr1   O40   S    
C7    C100  S    
C121  O61   S    
C11   C73   S    
C119  H60   S    
C26   H105  S    
Cr2   O2    S    
C195  C204  A    
C43   H83   S    
C193  C202  A    
C9    C14   A    
C111  H42   S    
Cr1   O9    S    
C124  H119  S    
C200  O23   A    
C11   C16   A    
C28   C32   A    
Cr5   O41   S    
C121  H65   S    
C6    C103  S    
C190  H46   S    
C147  C156  A    
C121  C122  S    
C76   C187  A    
C141  C146  A    
C149  O27   A    
C138  C142  A    
C125  C126  A    
C88   H144  S    
C54   H99   S    
C207  H70   S    
C131  H123  S    
C153  O49   S    
C5    C96   S    
C106  H29   S    
C137  C141  A    
Cr11  O63   S    
C1    O18   A    
C74   H73   S    
C166  C183  A    
C9    C71   S    
C69   O4    A    
C117  H54   S    
C21   C56   S    
C119  C120  S    
C46   C90   A    
C126  H121  S    
C48   H101  S    
C50   H103  S    
C135  C139  A    
C97   H4    S    
C107  H31   S    
C8    C30   A    
C110  H39   S    
C114  H47   S    
C89   O50   S    
C140  C175  S    
C104  H22   S    
C92   C93   S    
C111  C114  S    
C94   C95   S    
C164  C182  A    
C24   C68   A    
C129  C134  A    
C168  C172  A    
C74   C78   A    
Cr9   O56   S    
C103  C104  S    
C106  H28   S    
C116  H52   S    
C13   H118  S    
C115  C116  S    
C158  H127  S    
C4    C98   S    
C170  C183  A    
C14   C18   A    
C19   C23   A    
Cr5   O10   S    
C144  C148  A    
C127  C153  A    
C151  O25   A    
C156  O51   S    
C2    C46   A    
C17   H92   S    
C10   C32   A    
C88   H145  S    
C83   H88   S    
C155  O50   S    
C36   C58   A    
C10   C15   A    
C5    C207  A    
C37   H81   S    
C168  C181  A    
C95   H159  S    
C196  C205  A    
C191  H57   S    
C71   O37   A    
C128  C155  A    
C163  H133  S    
C196  H78   S    
Cr4   O8    S    
C34   H79   S    
C105  O53   S    
Cr2   O10   S    
C160  H130  S    
Cr3   O7    S    
Cr10  O62   S    
C75   C80   A    
C161  C166  A    
Cr3   O33   S    
C67   C186  S    
C145  C153  A    
C123  H120  S    
Cr12  O27   S    
C73   O39   A    
C71   O6    A    
C80   C90   A    
C172  O59   S    
C33   H113  S    
C122  H69   S    
C152  O26   A    
C159  C177  A    
C118  H55   S    
C150  O24   A    
Cr4   O13   S    
C70   O36   A    
C151  O29   A    
C157  O52   S    
C96   H7    S    
C7    C188  A    
C114  H45   S    
C158  C162  A    
C78   C79   A    
C112  C182  S    
C93   H155  S    
C44   C62   A    
C39   O40   A    
C133  H124  S    
C171  C175  A    
C138  H138  S    
C45   C63   A    
Cr11  O48   S    
Cr12  O64   S    
C15   O55   S    
C139  C144  A    
C103  H23   S    
C144  C179  S    
C92   O51   S    
C96   C97   S    
C100  C102  S    
C143  C180  S    
C4    C184  A    
C130  C201  S    
C69   C188  S    
C111  H43   S    
C38   C47   A    
C161  H131  S    
C145  H150  S    
Cr12  O31   S    
C174  O61   S    
C150  C154  S    
C30   H110  S    
C159  C163  A    
C161  C179  A    
Cr5   O12   S    
C51   H104  S    
C68   C126  A    
Cr6   O11   S    
C111  O57   S    
C99   H10   S    
C186  C191  A    
C159  H129  S    
C162  C180  A    
C76   C81   A    
C134  C138  A    
Cr7   O39   S    
C4    C206  A    
Cr5   O37   S    
Cr6   O42   S    
C122  H66   S    
C73   O8    A    
C206  H71   S    
C128  C133  A    
C75   C154  A    
C48   C61   A    
C28   H108  S    
C194  C203  A    
C89   H146  S    
Cr9   O46   S    
C109  H37   S    
C105  H26   S    
C129  C200  S    
C49   H102  S    
C190  C194  A    
C152  C176  S    
C78   C84   A    
C75   H1    S    
C202  C206  A    
C109  C110  S    
C184  C189  A    
C198  H115  S    
C168  H117  S    
C52   C56   A    
C35   C198  A    
