data_mof_unit_65516.cif
_audit_creation_date              2012-12-10T17:20:35-0500
_audit_creation_method            fapswitch 2.2
_symmetry_space_group_name_H-M    P1
_symmetry_Int_Tables_number       1
_space_group_crystal_system       triclinic
_cell_length_a                    18.703738
_cell_length_b                    18.690194
_cell_length_c                    18.78325
_cell_angle_alpha                 109.239468
_cell_angle_beta                  109.754417
_cell_angle_gamma                 109.111859
_cell_volume                      5073.63262611

loop_
_atom_site_label
_atom_site_type_symbol
_atom_type_description
_atom_site_fract_x
_atom_site_fract_y
_atom_site_fract_z
_atom_type_partial_charge
C1    C     C_R   0.619219 0.619109 0.500093 0.795171
C2    C     C_3   0.238735 0.450786 0.174565 0.377229
C3    C     C_3   0.226528 0.418594 0.237681 -0.224186
C4    C     C_3   0.313292 0.500698 0.312520 -0.096244
C5    C     C_R   0.738472 0.771026 0.572161 -0.163722
C6    C     C_R   0.803360 0.834748 0.572567 -0.197387
C7    C     C_R   0.814841 0.814705 0.500140 0.007004
C8    C     C_R   0.762830 0.730892 0.427903 -0.204323
C9    C     C_R   0.699732 0.666448 0.428513 -0.161337
C10   C     C_R   0.686496 0.686418 0.500167 -0.004241
C11   C     C_R   0.667166 0.465925 0.735584 -0.193693
C12   C     C_R   0.380888 0.500379 0.380503 0.811476
C13   C     C_R   0.730583 0.464702 0.799770 -0.167817
C14   C     C_R   0.816798 0.500905 0.816296 -0.043037
C15   C     C_R   0.838916 0.538157 0.767878 -0.203022
C16   C     C_R   0.775353 0.538057 0.702046 -0.003426
C17   C     C_R   0.688926 0.501736 0.686300 -0.042580
C18   C     C_R   0.242806 0.322669 0.501374 -0.165382
C19   C     C_R   0.177909 0.257788 0.499855 -0.129312
C20   C     C_R   0.185709 0.185829 0.499950 -0.001828
C21   C     C_R   0.257777 0.178152 0.500213 -0.170019
C22   C     C_R   0.321162 0.241553 0.498764 -0.170109
C23   C     C_R   0.381023 0.381088 0.499991 0.781021
C24   C     C_R   0.314093 0.314212 0.500046 -0.015724
C25   C     C_R   0.003395 0.618727 0.122030 0.841371
C26   C     C_R   0.123239 0.500755 0.124054 0.886855
C27   C     C_R   0.004517 0.380924 0.885288 0.834936
C28   C     C_R   0.883971 0.500268 0.883941 0.776164
C29   C     C_R   0.000867 0.880803 0.381825 0.792197
C30   C     C_R   0.881316 0.881234 0.500008 0.766135
C31   C     C_R   0.999752 0.119276 0.617819 0.843097
C32   C     C_R   0.118858 0.118883 0.499956 0.809638
C33   C     C_R   0.978949 0.742788 0.170399 -0.241826
C34   C     C_R   0.620706 0.501021 0.619527 0.793397
C35   C     C_R   0.976880 0.806100 0.233061 -0.166723
C36   C     C_R   0.001505 0.813474 0.315469 -0.087162
C37   C     C_R   0.027504 0.756573 0.334510 -0.205030
C38   C     C_R   0.027976 0.691919 0.271357 0.367820
C39   C     C_R   0.003662 0.685300 0.189076 -0.078073
C40   C     C_R   0.078746 0.331404 0.809504 -0.148899
C41   C     C_R   0.078197 0.268086 0.744069 0.369156
C42   C     C_R   0.001223 0.187409 0.684619 -0.088633
C43   C     C_R   0.925753 0.170590 0.691037 -0.241163
C44   C     C_R   0.927155 0.233381 0.757608 -0.167056
C45   C     C_3   0.265269 0.551395 0.330684 -0.115800
C46   C     C_R   0.003587 0.314097 0.816918 -0.080990
C47   C     C_3   0.177755 0.469354 0.254984 -0.162597
C48   C     C_3   0.190907 0.500971 0.192194 -0.051468
C49   C     C_3   0.277443 0.583169 0.266926 -0.224508
C50   C     C_3   0.325707 0.532059 0.249553 -0.021351
Cu1   Cu    Cu3+1 0.500500 0.438200 0.438680 0.944503
Cu2   Cu    Cu3+1 0.499500 0.561800 0.561320 0.966033
Cu3   Cu    Cu3+1 0.942090 0.438180 0.003770 0.997019
Cu4   Cu    Cu3+1 0.065710 0.561750 0.003750 0.980109
Cu5   Cu    Cu3+1 0.062280 0.999890 0.562170 1.002233
Cu6   Cu    Cu3+1 0.937720 0.999930 0.437650 0.956670
H1    H     H_    0.115904 0.443968 0.256331 0.184362
H2    H     H_    0.661215 0.601252 0.373045 0.152679
H3    H     H_    0.600779 0.438149 0.723666 0.140235
H4    H     H_    0.712381 0.436254 0.836946 0.158483
H5    H     H_    0.905454 0.566095 0.780161 0.161857
H6    H     H_    0.236752 0.378564 0.502060 0.144133
H7    H     H_    0.122528 0.264339 0.500114 0.150602
H8    H     H_    0.264076 0.122500 0.500032 0.141233
H9    H     H_    0.376336 0.234772 0.498139 0.141586
H10   H     H_    0.960215 0.737806 0.106960 0.149304
H11   H     H_    0.276886 0.592770 0.395924 0.174076
H12   H     H_    0.957261 0.849972 0.217590 0.160406
H13   H     H_    0.046613 0.761799 0.398061 0.179660
H14   H     H_    0.138067 0.393685 0.855052 0.194146
H15   H     H_    0.866413 0.108305 0.645524 0.148014
H16   H     H_    0.868351 0.219375 0.762069 0.158396
H17   H     H_    0.295267 0.650131 0.277797 0.156580
H18   H     H_    0.206932 0.351276 0.226415 0.166749
H19   H     H_    0.729962 0.787450 0.628547 0.151415
H20   H     H_    0.843864 0.899740 0.628677 0.130388
H21   H     H_    0.772188 0.715178 0.372002 0.126388
O1    O     O_R   0.590610 0.537990 0.448230 -0.592788
O2    O     O_R   0.055400 0.642330 0.093210 -0.592398
O3    O     O_R   0.042570 0.447790 0.094640 -0.569987
O4    O     O_R   0.146970 0.552140 0.094620 -0.582512
O5    O     O_R   0.952400 0.357600 0.914310 -0.586209
O6    O     O_R   0.056800 0.461950 0.914290 -0.585560
O7    O     O_R   0.860830 0.447790 0.912900 -0.596702
O8    O     O_R   0.965230 0.552140 0.912880 -0.595622
O9    O     O_R   0.053290 0.909730 0.462990 -0.590746
O10   O     O_R   0.948100 0.909770 0.357840 -0.590671
O11   O     O_R   0.962410 0.909720 0.552480 -0.590693
O12   O     O_R   0.589770 0.642360 0.551790 -0.591609
O13   O     O_R   0.857220 0.909750 0.447330 -0.586241
O14   O     O_R   0.051900 0.090060 0.641980 -0.544133
O15   O     O_R   0.946710 0.090090 0.536830 -0.591119
O16   O     O_R   0.142780 0.090070 0.552500 -0.559276
O17   O     O_R   0.037590 0.090110 0.447350 -0.594688
O18   O     O_R   0.409550 0.447810 0.357350 -0.592841
O19   O     O_R   0.408710 0.552190 0.460910 -0.587273
O20   O     O_R   0.410230 0.357640 0.448210 -0.585182
O21   O     O_R   0.409390 0.462010 0.551770 -0.579180
O22   O     O_R   0.591290 0.447810 0.539090 -0.593740
O23   O     O_R   0.590450 0.552190 0.642650 -0.577781
O24   O     O_R   0.951000 0.537980 0.093230 -0.556719
C51   C     C_R   0.801873 0.577728 0.652508 0.070065
C52   C     C_R   0.776903 0.525118 0.565705 -0.105965
C53   C     C_R   0.806702 0.562541 0.520944 -0.136730
C54   C     C_R   0.862230 0.652408 0.562795 -0.085931
C55   C     C_R   0.887204 0.705154 0.649125 -0.122346
C56   C     C_R   0.857330 0.668022 0.694015 -0.166773
H22   H     H_    0.735661 0.455167 0.533265 0.140976
H23   H     H_    0.787311 0.521809 0.454032 0.133365
H24   H     H_    0.885625 0.681229 0.528232 0.141228
H25   H     H_    0.929895 0.774784 0.681304 0.142425
H26   H     H_    0.877831 0.709399 0.761199 0.137093
Cl1   Cl    Cl    0.062173 0.622414 0.298159 -0.660416
Cl2   Cl    Cl    0.173963 0.292701 0.736777 -0.604913
C57   C     C_R   0.408220 0.563963 0.244915 0.111360
C58   C     C_R   0.438678 0.506243 0.218778 -0.062314
C59   C     C_R   0.512848 0.533994 0.210235 -0.150302
C60   C     C_R   0.557777 0.619813 0.228752 -0.110108
C61   C     C_R   0.528913 0.678134 0.256408 -0.110759
C62   C     C_R   0.454255 0.650391 0.264250 -0.141942
H27   H     H_    0.404272 0.439437 0.203804 0.165124
H28   H     H_    0.535630 0.489021 0.189446 0.136733
H29   H     H_    0.615369 0.641302 0.222387 0.131320
H30   H     H_    0.564177 0.744781 0.271383 0.136216
H31   H     H_    0.432655 0.696421 0.285097 0.124681
Cl3   Cl    Cl    0.217255 0.383344 0.068694 -0.629676

loop_
_geom_bond_atom_site_label_1
_geom_bond_atom_site_label_2
_ccdc_geom_bond_type
Cu1   O20   S    
C32   O17   A    
Cu5   Cu6   S    
C31   C42   S    
C37   H13   S    
C28   O7    A    
C41   C42   A    
C35   C36   A    
C41   Cl2   S    
Cu5   O16   S    
C7    C8    A    
C13   H4    S    
C61   H30   S    
C40   C46   A    
C29   C36   S    
C33   C39   A    
C40   H14   S    
Cu3   O7    S    
C18   C24   A    
C5    C6    A    
C36   C37   A    
C54   H24   S    
C18   C19   A    
C53   H23   S    
C55   C56   A    
C57   C58   A    
C58   C59   A    
C9    H2    S    
C56   H26   S    
Cu2   O21   S    
Cu5   O11   S    
C3    H18   S    
C60   C61   A    
Cu4   O6    S    
C21   H8    S    
Cu5   O14   S    
C2    C50   S    
C11   C17   A    
C19   C20   A    
Cu3   O24   S    
C8    C9    A    
C45   H11   S    
C34   O23   A    
C23   C24   S    
C12   O18   A    
C44   H16   S    
C52   H22   S    
C4    C12   S    
C9    C10   A    
C30   O13   A    
C55   H25   S    
Cu6   O13   S    
C32   O16   A    
C7    C30   S    
C21   C22   A    
C1    O1    A    
Cu2   O12   S    
C11   H3    S    
C53   C54   A    
C44   C46   A    
C33   H10   S    
C4    C45   S    
C45   C47   S    
Cu1   O22   S    
C58   H27   S    
Cu1   Cu2   S    
Cu3   O3    S    
C43   H15   S    
C19   H7    S    
C38   Cl1   S    
C62   H31   S    
C16   C17   A    
Cu6   O10   S    
C2    C48   S    
Cu3   Cu4   S    
Cu2   O23   S    
C26   O3    A    
C4    C50   S    
Cu3   O5    S    
C5    H19   S    
Cu6   O17   S    
C59   H28   S    
C22   H9    S    
C37   C38   A    
C47   H1    S    
C47   C48   S    
C45   C49   S    
C34   O22   A    
C15   H5    S    
C51   C56   A    
C29   O9    A    
C2    Cl3   S    
C27   C46   S    
C16   C51   S    
C40   C41   A    
C23   O20   A    
C31   O15   A    
C26   O4    A    
C31   O14   A    
C43   C44   A    
C8    H21   S    
C22   C24   A    
C42   C43   A    
C30   O11   A    
C3    C4    S    
C28   O8    A    
Cu4   O2    S    
C20   C32   S    
C48   C49   S    
C1    O12   A    
C25   O2    A    
C27   O5    A    
C18   H6    S    
C1    C10   S    
Cu4   O8    S    
C61   C62   A    
C57   C62   A    
C6    H20   S    
C6    C7    A    
C26   C48   S    
C54   C55   A    
Cu5   O9    S    
C27   O6    A    
C2    C3    S    
Cu1   O1    S    
C5    C10   A    
C59   C60   A    
C50   C57   S    
C11   C13   A    
C25   O24   A    
C38   C39   A    
C35   H12   S    
C3    C47   S    
C33   C35   A    
Cu2   O19   S    
C49   H17   S    
C60   H29   S    
C51   C52   A    
C29   O10   A    
Cu6   O15   S    
C23   O21   A    
C20   C21   A    
C49   C50   S    
C17   C34   S    
C52   C53   A    
C14   C15   A    
C12   O19   A    
C14   C28   S    
C13   C14   A    
Cu4   O4    S    
C25   C39   S    
C15   C16   A    
Cu1   O18   S    
