data_mof_unit_21611.cif
_audit_creation_date              2013-03-05T16:06:27-0500
_audit_creation_method            fapswitch 2.2
_symmetry_space_group_name_H-M    P1
_symmetry_Int_Tables_number       1
_space_group_crystal_system       triclinic
_cell_length_a                    25.726187
_cell_length_b                    25.791414
_cell_length_c                    18.218361
_cell_angle_alpha                 89.837707
_cell_angle_beta                  134.971498
_cell_angle_gamma                 90.001877
_cell_volume                      8551.79713212

loop_
_atom_site_label
_atom_site_type_symbol
_atom_site_description
_atom_site_fract_x
_atom_site_fract_y
_atom_site_fract_z
_atom_type_partial_charge
Zn1   Zn    Zn3+2 0.337540 0.293760 0.587540 0.975567
Zn2   Zn    Zn3+2 0.337540 0.706240 0.587540 0.967542
Zn3   Zn    Zn3+2 0.837540 0.793760 0.587540 0.974905
Zn4   Zn    Zn3+2 0.837540 0.206240 0.587540 0.958295
Zn5   Zn    Zn3+2 0.162450 0.293770 0.412470 0.947743
Zn6   Zn    Zn3+2 0.162450 0.706230 0.412470 0.967207
Zn7   Zn    Zn3+2 0.662450 0.793770 0.412470 0.956717
Zn8   Zn    Zn3+2 0.662450 0.206230 0.412470 0.967447
Zn9   Zn    Zn3+2 0.249980 0.206220 0.412450 1.051039
Zn10  Zn    Zn3+2 0.249980 0.793780 0.412450 1.016480
Zn11  Zn    Zn3+2 0.749980 0.706220 0.412450 1.031814
Zn12  Zn    Zn3+2 0.749980 0.293780 0.412450 1.008603
Zn13  Zn    Zn3+2 0.250000 0.206220 0.587540 0.994434
Zn14  Zn    Zn3+2 0.250000 0.793780 0.587540 1.014580
Zn15  Zn    Zn3+2 0.750000 0.706220 0.587540 1.010302
Zn16  Zn    Zn3+2 0.750000 0.293780 0.587540 1.028592
O1    O     O_3   0.249990 0.249990 0.500000 -0.501608
O2    O     O_3   0.249990 0.750010 0.500000 -0.494776
O3    O     O_3   0.749990 0.749990 0.500000 -0.497177
O4    O     O_3   0.749990 0.250010 0.500000 -0.495067
O5    O     O_R   0.163790 0.219360 0.561280 -0.604672
O6    O     O_R   0.163790 0.780640 0.561280 -0.613724
O7    O     O_R   0.663790 0.719360 0.561280 -0.609722
O8    O     O_R   0.663790 0.280640 0.561280 -0.602808
O9    O     O_R   0.397470 0.280620 0.561260 -0.653552
O10   O     O_R   0.397470 0.719380 0.561260 -0.661095
O11   O     O_R   0.897470 0.780620 0.561260 -0.656133
O12   O     O_R   0.897470 0.219380 0.561260 -0.666366
O13   O     O_R   0.188730 0.366850 0.438750 -0.666547
O14   O     O_R   0.188730 0.633150 0.438750 -0.678228
O15   O     O_R   0.688730 0.866850 0.438750 -0.674035
O16   O     O_R   0.688730 0.133150 0.438750 -0.672135
O17   O     O_R   0.249980 0.133140 0.438710 -0.614311
O18   O     O_R   0.249980 0.866860 0.438710 -0.638316
O19   O     O_R   0.749980 0.633140 0.438710 -0.612612
O20   O     O_R   0.749980 0.366860 0.438710 -0.639308
O21   O     O_R   0.102500 0.280640 0.266310 -0.663092
O22   O     O_R   0.102500 0.719360 0.266310 -0.647575
O23   O     O_R   0.602500 0.780640 0.266310 -0.654329
O24   O     O_R   0.602500 0.219360 0.266310 -0.646614
O25   O     O_R   0.336220 0.219350 0.733700 -0.634347
O26   O     O_R   0.336220 0.780650 0.733700 -0.651317
O27   O     O_R   0.836220 0.719350 0.733700 -0.639529
O28   O     O_R   0.836220 0.280650 0.733700 -0.620958
O29   O     O_R   0.163750 0.219360 0.266290 -0.566269
O30   O     O_R   0.163750 0.780640 0.266290 -0.648031
O31   O     O_R   0.663750 0.719360 0.266290 -0.633252
O32   O     O_R   0.663750 0.280640 0.266290 -0.650735
O33   O     O_R   0.397490 0.280620 0.733700 -0.621654
O34   O     O_R   0.397490 0.719380 0.733700 -0.651015
O35   O     O_R   0.897490 0.780620 0.733700 -0.633465
O36   O     O_R   0.897490 0.219380 0.733700 -0.685601
O37   O     O_R   0.311270 0.366840 0.561280 -0.613578
O38   O     O_R   0.311270 0.633160 0.561280 -0.611945
O39   O     O_R   0.811270 0.866840 0.561280 -0.615109
O40   O     O_R   0.811270 0.133160 0.561280 -0.611069
O41   O     O_R   0.249990 0.133140 0.561260 -0.654520
O42   O     O_R   0.249990 0.866860 0.561260 -0.629515
O43   O     O_R   0.749990 0.633140 0.561260 -0.652363
O44   O     O_R   0.749990 0.366860 0.561260 -0.645684
O45   O     O_R   0.102520 0.280640 0.438750 -0.656381
O46   O     O_R   0.102520 0.719360 0.438750 -0.650540
O47   O     O_R   0.602520 0.780640 0.438750 -0.652309
O48   O     O_R   0.602520 0.219360 0.438750 -0.653444
O49   O     O_R   0.336190 0.219350 0.438710 -0.620756
O50   O     O_R   0.336190 0.780650 0.438710 -0.604199
O51   O     O_R   0.836190 0.719350 0.438710 -0.612128
O52   O     O_R   0.836190 0.280650 0.438710 -0.600298
C1    C     C_R   0.108527 0.249497 0.499526 0.785895
C2    C     C_R   0.108127 0.750864 0.498596 0.814915
C3    C     C_R   0.608413 0.749435 0.499282 0.803353
C4    C     C_R   0.608392 0.250321 0.499189 0.811135
C5    C     C_R   0.390454 0.250556 0.498557 0.779249
C6    C     C_R   0.391341 0.750074 0.500161 0.795687
C7    C     C_R   0.890931 0.750322 0.499457 0.787371
C8    C     C_R   0.891543 0.250215 0.500575 0.787402
C9    C     C_R   0.250201 0.391222 0.500080 0.836259
C10   C     C_R   0.250414 0.608744 0.501188 0.856552
C11   C     C_R   0.750203 0.891207 0.500139 0.822141
C12   C     C_R   0.750317 0.108730 0.500918 0.863233
C13   C     C_R   0.250210 0.108804 0.500421 0.800662
C14   C     C_R   0.249948 0.891287 0.500041 0.837446
C15   C     C_R   0.749913 0.608758 0.500097 0.840413
C16   C     C_R   0.750868 0.391241 0.500900 0.830933
C17   C     C_R   0.108814 0.250225 0.217428 0.821315
C18   C     C_R   0.108833 0.750026 0.217565 0.847423
C19   C     C_R   0.609038 0.750284 0.217607 0.852594
C20   C     C_R   0.608653 0.250247 0.217623 0.843341
C21   C     C_R   0.391130 0.250065 0.782507 0.819309
C22   C     C_R   0.391421 0.750133 0.782470 0.849522
C23   C     C_R   0.891537 0.749587 0.782442 0.836013
C24   C     C_R   0.891390 0.250182 0.782461 0.896441
C25   C     C_3   0.491550 0.198175 0.941376 -0.401069
C26   C     C_3   0.476258 0.806330 0.940217 -0.391758
C27   C     C_3   0.985231 0.694964 0.941373 -0.390183
C28   C     C_3   0.933346 0.293121 0.940384 -0.326377
H1    H     H_    0.454520 0.164341 0.909398 0.149295
H2    H     H_    0.430492 0.832812 0.908890 0.156944
H3    H     H_    0.944095 0.664192 0.910284 0.152547
H4    H     H_    0.878213 0.287459 0.910549 0.240156
H5    H     H_    0.520008 0.192853 0.916264 0.220967
H6    H     H_    0.500499 0.823215 0.913667 0.222151
H7    H     H_    0.012042 0.683924 0.915553 0.225838
H8    H     H_    0.932980 0.331996 0.913327 0.208045
C29   C     C_3   0.549375 0.197894 0.061257 -0.494057
C30   C     C_3   0.534937 0.806113 0.060056 -0.490962
C31   C     C_3   0.043670 0.695353 0.061340 -0.489886
C32   C     C_3   0.991806 0.292079 0.059410 -0.465143
H9    H     H_    0.604536 0.189532 0.092640 0.193127
H10   H     H_    0.586271 0.824285 0.090348 0.192268
H11   H     H_    0.097549 0.682741 0.092276 0.195123
H12   H     H_    0.017571 0.331078 0.089221 0.205449
H13   H     H_    0.537139 0.166035 0.088423 0.178012
H14   H     H_    0.515394 0.830338 0.087102 0.185907
H15   H     H_    0.028378 0.666667 0.089103 0.182138
H16   H     H_    0.964865 0.283867 0.086178 0.203998
H17   H     H_    0.462885 0.226527 0.088247 0.140301
H18   H     H_    0.459302 0.753518 0.086374 0.132847
H19   H     H_    0.960789 0.735242 0.087313 0.135574
H20   H     H_    0.984340 0.190903 0.087133 0.129029
C33   C     C_3   0.413485 0.261946 0.940273 0.201599
C34   C     C_3   0.419919 0.723410 0.940761 0.190496
C35   C     C_3   0.915837 0.768045 0.939663 0.195373
C36   C     C_3   0.950767 0.196540 0.938874 0.199540
C37   C     C_3   0.506101 0.294541 0.939968 0.318247
C38   C     C_3   0.517863 0.718294 0.940270 0.311209
C39   C     C_3   0.012335 0.788246 0.939731 0.310695
C40   C     C_3   0.025978 0.260306 0.939643 0.256711
C41   C     C_3   0.448621 0.250361 0.898027 -0.042974
C42   C     C_3   0.449198 0.750159 0.897939 -0.041144
C43   C     C_3   0.949225 0.749471 0.897859 -0.047310
C44   C     C_3   0.949144 0.250236 0.898072 -0.004851
H21   H     H_    0.476270 0.332423 0.914277 0.061210
H22   H     H_    0.499975 0.677256 0.913738 0.056900
H23   H     H_    0.987787 0.828029 0.911799 0.067359
H24   H     H_    0.039479 0.225861 0.918327 0.090530
C45   C     C_3   0.550327 0.250993 0.102330 -0.037496
C46   C     C_3   0.550950 0.749764 0.102276 -0.034701
C47   C     C_3   0.050728 0.750473 0.102149 -0.039699
C48   C     C_3   0.051049 0.250180 0.101795 -0.042186
C49   C     C_3   0.473187 0.259796 0.061275 0.095280
C50   C     C_3   0.478230 0.726748 0.061632 0.074805
C51   C     C_3   0.974865 0.765650 0.060633 0.100159
C52   C     C_3   0.011377 0.196443 0.059706 0.052449
C53   C     C_3   0.566448 0.293389 0.059616 -0.420210
C54   C     C_3   0.577181 0.718607 0.060024 -0.426565
C55   C     C_3   0.071470 0.788253 0.059413 -0.423565
C56   C     C_3   0.084945 0.263946 0.059717 -0.400529
H25   H     H_    0.620617 0.285150 0.087646 0.213884
H26   H     H_    0.628529 0.736435 0.089644 0.202575
H27   H     H_    0.125339 0.776232 0.089566 0.210028
H28   H     H_    0.107799 0.303923 0.084574 0.199473
H29   H     H_    0.571619 0.332316 0.090089 0.190897
H30   H     H_    0.591909 0.678095 0.089328 0.203318
H31   H     H_    0.079400 0.828336 0.087863 0.195505
H32   H     H_    0.132055 0.238215 0.093406 0.233956
H33   H     H_    0.395147 0.302986 0.917813 0.145887
H34   H     H_    0.415713 0.681722 0.921819 0.144968
H35   H     H_    0.903275 0.809693 0.917478 0.149206
H36   H     H_    0.964371 0.167189 0.909629 0.115998
C57   C     C_3   0.516060 0.220676 0.593734 -0.528144
C58   C     C_3   0.503736 0.704621 0.568526 -0.525442
C59   C     C_3   0.996957 0.800038 0.555032 -0.526889
C60   C     C_3   0.006826 0.206710 0.574786 -0.516538
H37   H     H_    0.536149 0.238105 0.665785 0.222819
H38   H     H_    0.473096 0.667371 0.538192 0.235985
H39   H     H_    0.961620 0.835188 0.515743 0.222461
H40   H     H_    0.978596 0.168557 0.550010 0.236161
H41   H     H_    0.500881 0.179934 0.591959 0.138576
H42   H     H_    0.529691 0.708392 0.649368 0.159658
H43   H     H_    0.023307 0.801241 0.636355 0.164623
H44   H     H_    0.032962 0.213296 0.655347 0.150997
C61   C     C_3   0.577160 0.220725 0.595314 0.185589
C62   C     C_3   0.564346 0.704048 0.570153 0.221436
C63   C     C_3   0.057545 0.800556 0.556337 0.202563
C64   C     C_3   0.066961 0.205820 0.575340 0.213428
H45   H     H_    0.587153 0.179684 0.589131 0.078884
H46   H     H_    0.617555 0.711801 0.651506 0.104465
H47   H     H_    0.111385 0.797763 0.639135 0.106916
H48   H     H_    0.120022 0.215483 0.655639 0.108305
H49   H     H_    0.499000 0.323928 0.579252 0.198699
H50   H     H_    0.387728 0.702295 0.360594 0.180156
H51   H     H_    0.881565 0.789776 0.348287 0.176194
H52   H     H_    0.891094 0.198636 0.367208 0.178709
H53   H     H_    0.575151 0.331199 0.556605 0.222535
H54   H     H_    0.470154 0.709705 0.347704 0.212674
H55   H     H_    0.965074 0.781679 0.337497 0.222114
H56   H     H_    0.972599 0.206040 0.352653 0.194441
C65   C     C_3   0.471870 0.306831 0.503277 -0.354053
C66   C     C_3   0.414232 0.741121 0.388597 -0.369940
C67   C     C_3   0.912937 0.752928 0.385985 -0.374020
C68   C     C_3   0.915258 0.238237 0.390736 -0.362256
C69   C     C_3   0.419498 0.222694 0.397956 0.194916
C70   C     C_3   0.494203 0.801654 0.546673 0.201693
C71   C     C_3   0.999996 0.702345 0.558394 0.199077
C72   C     C_3   0.991984 0.302935 0.542192 0.194273
C73   C     C_3   0.447473 0.250572 0.497064 0.026528
C74   C     C_3   0.449166 0.750045 0.500244 0.024378
C75   C     C_3   0.948567 0.750729 0.499116 0.031204
C76   C     C_3   0.949637 0.250169 0.501215 0.027053
H57   H     H_    0.408064 0.181442 0.401047 0.114439
H58   H     H_    0.523242 0.803314 0.629493 0.083089
H59   H     H_    0.029199 0.705824 0.641117 0.088759
H60   H     H_    0.020898 0.306738 0.624718 0.077428
C77   C     C_3   0.550204 0.250409 0.498372 0.011607
C78   C     C_3   0.550986 0.748905 0.499817 0.017819
C79   C     C_3   0.050275 0.751687 0.498368 0.015139
C80   C     C_3   0.051338 0.248966 0.500552 0.027742
C81   C     C_3   0.527020 0.306877 0.494188 -0.352566
C82   C     C_3   0.473515 0.744081 0.387465 -0.331498
C83   C     C_3   0.972582 0.749910 0.385588 -0.324946
C84   C     C_3   0.974206 0.241335 0.388999 -0.351050
C85   C     C_3   0.480364 0.222352 0.399748 -0.497784
C86   C     C_3   0.553582 0.800945 0.544832 -0.547531
C87   C     C_3   0.059014 0.702670 0.555889 -0.552664
C88   C     C_3   0.051362 0.302125 0.540360 -0.537682
H61   H     H_    0.493679 0.181382 0.398946 0.155916
H62   H     H_    0.608764 0.805670 0.625266 0.145477
H63   H     H_    0.114688 0.702117 0.636808 0.150470
H64   H     H_    0.106285 0.309007 0.620104 0.141502
H65   H     H_    0.461034 0.241143 0.328819 0.250076
H66   H     H_    0.546129 0.834078 0.498810 0.222593
H67   H     H_    0.055089 0.667211 0.517566 0.220515
H68   H     H_    0.042152 0.334046 0.490949 0.225367
H69   H     H_    0.424076 0.332118 0.442684 0.198021
H70   H     H_    0.370073 0.769789 0.332932 0.220131
H71   H     H_    0.872707 0.721136 0.337977 0.223539
H72   H     H_    0.869441 0.265279 0.332055 0.218721
H73   H     H_    0.501182 0.325448 0.419560 0.188529
H74   H     H_    0.462255 0.778454 0.340843 0.203106
H75   H     H_    0.965709 0.713048 0.347865 0.203205
H76   H     H_    0.961143 0.274553 0.339012 0.204005
C89   C     C_3   0.248654 0.029498 0.579569 -0.413286
C90   C     C_3   0.249709 0.970021 0.580359 -0.334018
C91   C     C_3   0.758643 0.529448 0.588771 -0.426357
C92   C     C_3   0.756575 0.470011 0.586596 -0.359636
H77   H     H_    0.298198 0.043459 0.658827 0.191958
H78   H     H_    0.299999 0.956094 0.659408 0.170488
H79   H     H_    0.812520 0.542162 0.665122 0.193177
H80   H     H_    0.807700 0.454863 0.663648 0.180514
H81   H     H_    0.201162 0.043593 0.564468 0.197138
H82   H     H_    0.201660 0.955326 0.563919 0.252049
H83   H     H_    0.717226 0.544972 0.586136 0.192927
H84   H     H_    0.709690 0.456583 0.574072 0.219063
H85   H     H_    0.369518 0.042344 0.616390 0.195319
H86   H     H_    0.368676 0.953762 0.604239 0.207978
H87   H     H_    0.868975 0.543821 0.601169 0.216782
H88   H     H_    0.868346 0.454959 0.595862 0.213557
C93   C     C_3   0.320650 0.030168 0.535272 -0.505194
C94   C     C_3   0.318043 0.970244 0.528420 -0.470119
C95   C     C_3   0.816889 0.530321 0.523621 -0.450624
C96   C     C_3   0.815805 0.470296 0.520718 -0.473630
C97   C     C_3   0.182875 0.029644 0.387961 0.313886
C98   C     C_3   0.178158 0.969416 0.389647 0.243589
C99   C     C_3   0.678756 0.529277 0.391021 0.301215
C100  C     C_3   0.676556 0.468738 0.392674 0.257309
C101  C     C_3   0.249113 0.051207 0.500040 0.003170
C102  C     C_3   0.248779 0.949089 0.499344 0.042731
C103  C     C_3   0.749560 0.551081 0.500273 -0.020370
C104  C     C_3   0.749875 0.448979 0.500113 0.051127
H89   H     H_    0.199394 0.036392 0.346299 0.128466
H90   H     H_    0.178393 0.952923 0.333044 0.047107
H91   H     H_    0.687644 0.537774 0.340552 0.108256
H92   H     H_    0.674434 0.453638 0.332993 0.039445
H93   H     H_    0.241044 0.453860 0.369798 0.177075
H94   H     H_    0.260561 0.542679 0.392720 0.222016
H95   H     H_    0.748151 0.953185 0.376289 0.175721
H96   H     H_    0.771335 0.041931 0.404327 0.224203
H97   H     H_    0.327690 0.046391 0.486057 0.199523
H98   H     H_    0.317386 0.958109 0.469192 0.224990
H99   H     H_    0.816480 0.545544 0.465980 0.226460
H100  H     H_    0.811955 0.457064 0.458915 0.229098
H101  H     H_    0.345307 0.458785 0.666331 0.138310
H102  H     H_    0.347419 0.542793 0.669268 0.084894
H103  H     H_    0.841239 0.958333 0.667780 0.137203
H104  H     H_    0.840730 0.042396 0.669690 0.062200
C105  C     C_3   0.251328 0.448889 0.502205 -0.086512
C106  C     C_3   0.252111 0.550941 0.504069 -0.040467
C107  C     C_3   0.751285 0.948825 0.502173 -0.086026
C108  C     C_3   0.751630 0.050902 0.503160 -0.037796
C109  C     C_3   0.217057 0.470883 0.396114 -0.558553
C110  C     C_3   0.223310 0.530444 0.400706 -0.513077
C111  C     C_3   0.721775 0.970828 0.398578 -0.560959
C112  C     C_3   0.729758 0.030395 0.404397 -0.518618
H105  H     H_    0.157884 0.460195 0.334484 0.205986
H106  H     H_    0.168329 0.547365 0.333491 0.193154
H107  H     H_    0.662541 0.960909 0.333875 0.200882
H108  H     H_    0.676705 0.047899 0.333525 0.186531
C113  C     C_3   0.201928 0.469271 0.517242 0.231111
C114  C     C_3   0.201109 0.529990 0.515782 0.215764
C115  C     C_3   0.698138 0.969250 0.510531 0.217315
C116  C     C_3   0.693750 0.029714 0.501718 0.244403
H109  H     H_    0.144332 0.456231 0.448617 0.057067
H110  H     H_    0.143743 0.542470 0.444661 0.057086
H111  H     H_    0.641621 0.954404 0.442206 0.056461
H112  H     H_    0.638659 0.040007 0.423254 0.052507
C117  C     C_3   0.331785 0.470290 0.595499 0.291102
C118  C     C_3   0.332337 0.530283 0.597431 0.280845
C119  C     C_3   0.830713 0.970208 0.599507 0.306157
C120  C     C_3   0.830516 0.030172 0.601634 0.273849
N1    N     N_R   0.471005 0.306472 0.105099 0.191634
O53   O     O_R   0.462041 0.301757 0.166711 -0.414308
O54   O     O_R   0.472957 0.352653 0.078165 -0.487959
N2    N     N_R   0.489624 0.676142 0.108715 0.213071
O55   O     O_R   0.479132 0.671680 0.168591 -0.412356
O56   O     O_R   0.507819 0.635177 0.089424 -0.410831
N3    N     N_R   0.978090 0.814665 0.104509 0.189771
O57   O     O_R   0.970167 0.814225 0.167571 -0.434627
O58   O     O_R   0.983253 0.858937 0.075623 -0.492107
N4    N     N_R   0.062504 0.152917 0.099834 0.198751
O59   O     O_R   0.069647 0.117939 0.158006 -0.361929
O60   O     O_R   0.096874 0.146507 0.072164 -0.410586
N5    N     N_R   0.646260 0.241524 0.693545 0.227888
O61   O     O_R   0.648568 0.286815 0.727076 -0.412074
O62   O     O_R   0.705638 0.213360 0.750782 -0.397531
N6    N     N_R   0.569200 0.652663 0.540735 0.215304
O63   O     O_R   0.511434 0.631089 0.454535 -0.466023
O64   O     O_R   0.629332 0.625584 0.606955 -0.422189
N7    N     N_R   0.056284 0.849620 0.513770 0.221066
O65   O     O_R   0.996242 0.866268 0.422871 -0.443261
O66   O     O_R   0.113666 0.879599 0.571683 -0.387983
N8    N     N_R   0.073952 0.153609 0.550748 0.219670
O67   O     O_R   0.017265 0.129919 0.466792 -0.456797
O68   O     O_R   0.135470 0.128220 0.619068 -0.403605
N9    N     N_R   0.351316 0.245614 0.300850 0.217793
O69   O     O_R   0.350708 0.291778 0.271212 -0.418106
O70   O     O_R   0.291824 0.217817 0.238812 -0.372710
N10   N     N_R   0.447543 0.848046 0.494056 0.228041
O71   O     O_R   0.413704 0.859404 0.399372 -0.407823
O72   O     O_R   0.442830 0.879928 0.544388 -0.426170
N11   N     N_R   0.959280 0.653233 0.518414 0.225354
O73   O     O_R   0.926882 0.636142 0.427277 -0.402968
O74   O     O_R   0.958345 0.624937 0.576713 -0.420129
N12   N     N_R   0.943076 0.347970 0.484969 0.231600
O75   O     O_R   0.908328 0.356693 0.389035 -0.398798
O76   O     O_R   0.937201 0.381341 0.532231 -0.423013
O77   O     O_3   0.114170 0.056268 0.322970 -0.582138
C121  C     C_3   0.086230 0.065449 0.366166 0.186520
H113  H     H_    0.116056 0.097664 0.422684 0.157311
H114  H     H_    0.087987 0.030601 0.403494 0.199064
C122  C     C_3   0.006333 0.082272 0.279063 -0.776009
H115  H     H_    0.975223 0.053528 0.215202 0.246846
H116  H     H_    0.980541 0.085367 0.308266 0.246740
H117  H     H_    0.003106 0.120563 0.247909 0.246794
O78   O     O_3   0.115626 0.953564 0.367916 -0.626085
C123  C     C_3   0.057415 0.939885 0.262796 0.124210
H118  H     H_    0.071988 0.903881 0.247294 0.200820
H119  H     H_    0.044952 0.971495 0.210450 0.179562
C124  C     C_3   0.989059 0.929833 0.240356 -0.627508
H120  H     H_    0.976078 0.964094 0.261795 0.226162
H121  H     H_    0.941589 0.921846 0.156501 0.235874
H122  H     H_    0.998371 0.895879 0.285992 0.301456
O79   O     O_3   0.610620 0.554879 0.337000 -0.596914
C125  C     C_3   0.589724 0.557528 0.390706 0.183524
H123  H     H_    0.614159 0.592441 0.440736 0.180510
H124  H     H_    0.605562 0.522932 0.438888 0.178206
C126  C     C_3   0.506397 0.562353 0.311616 -0.651582
H125  H     H_    0.479941 0.536034 0.245102 0.243715
H126  H     H_    0.486886 0.551814 0.347926 0.221259
H127  H     H_    0.489287 0.602716 0.282105 0.285968
O80   O     O_3   0.617178 0.450241 0.376603 -0.643457
C127  C     C_3   0.558010 0.433958 0.273504 0.121143
H128  H     H_    0.574991 0.400734 0.255434 0.185058
H129  H     H_    0.537818 0.466355 0.218179 0.182922
C128  C     C_3   0.495823 0.416143 0.261247 -0.684261
H130  H     H_    0.481518 0.446941 0.286930 0.222566
H131  H     H_    0.446390 0.407146 0.178702 0.265967
H132  H     H_    0.512962 0.380922 0.309183 0.252926
O81   O     O_3   0.391384 0.447764 0.614990 -0.602360
C129  C     C_3   0.383367 0.446931 0.529933 0.212296
H133  H     H_    0.359355 0.483129 0.483495 0.179655
H134  H     H_    0.349795 0.413058 0.479939 0.129060
C130  C     C_3   0.458918 0.440073 0.571015 -0.841646
H135  H     H_    0.486397 0.405389 0.622070 0.255820
H136  H     H_    0.453652 0.435221 0.505437 0.206830
H137  H     H_    0.493485 0.474470 0.616808 0.262139
O82   O     O_3   0.381968 0.550903 0.594105 -0.586518
C131  C     C_3   0.452050 0.559573 0.695476 0.144789
H138  H     H_    0.478807 0.522158 0.736864 0.169560
H139  H     H_    0.448413 0.584454 0.741633 0.125462
C132  C     C_3   0.500160 0.587925 0.688467 -0.822600
H140  H     H_    0.477888 0.627477 0.657656 0.263784
H141  H     H_    0.557060 0.591039 0.766767 0.195857
H142  H     H_    0.501268 0.567140 0.636337 0.272568
O83   O     O_3   0.892873 0.948130 0.624957 -0.598890
C133  C     C_3   0.889765 0.947519 0.544433 0.192356
H143  H     H_    0.868107 0.984039 0.499177 0.181248
H144  H     H_    0.856651 0.914101 0.492412 0.129345
C134  C     C_3   0.967192 0.939782 0.592180 -0.793684
H145  H     H_    0.990936 0.903216 0.637972 0.249221
H146  H     H_    0.965959 0.937727 0.530079 0.238893
H147  H     H_    0.002757 0.972540 0.644396 0.258669
O84   O     O_3   0.883947 0.050931 0.606030 -0.588838
C135  C     C_3   0.951083 0.060661 0.709590 0.156579
H148  H     H_    0.977011 0.023692 0.753579 0.167413
H149  H     H_    0.943039 0.086355 0.749853 0.131714
C136  C     C_3   0.003038 0.088467 0.709287 -0.781384
H150  H     H_    0.980224 0.127187 0.672550 0.263407
H151  H     H_    0.057370 0.093684 0.790171 0.208897
H152  H     H_    0.010343 0.065802 0.665395 0.261467
O85   O     O_3   0.229041 0.450185 0.612598 -0.591589
C137  C     C_3   0.172875 0.426423 0.598089 0.120005
H153  H     H_    0.153925 0.390387 0.551658 0.142551
H154  H     H_    0.125421 0.453168 0.558359 0.146173
C138  C     C_3   0.202900 0.412202 0.703359 -0.772421
H155  H     H_    0.224511 0.447349 0.752516 0.269330
H156  H     H_    0.158476 0.395490 0.693394 0.206035
H157  H     H_    0.247848 0.383247 0.742677 0.248088
O86   O     O_3   0.225359 0.549638 0.608772 -0.589788
C139  C     C_3   0.167133 0.573113 0.589674 0.108660
H158  H     H_    0.120349 0.545839 0.549882 0.147449
H159  H     H_    0.147878 0.608595 0.541284 0.145804
C140  C     C_3   0.194269 0.588565 0.692509 -0.761819
H160  H     H_    0.238493 0.617963 0.731601 0.254152
H161  H     H_    0.148272 0.605195 0.678976 0.215183
H162  H     H_    0.216016 0.554005 0.743625 0.267626
O87   O     O_3   0.724201 0.953413 0.606882 -0.597088
C141  C     C_3   0.671326 0.924085 0.592671 0.111378
H163  H     H_    0.658263 0.887732 0.549674 0.146967
H164  H     H_    0.620111 0.946936 0.549796 0.149554
C142  C     C_3   0.702199 0.909713 0.698412 -0.789866
H165  H     H_    0.720719 0.945087 0.746060 0.262919
H166  H     H_    0.659211 0.890545 0.689044 0.210375
H167  H     H_    0.749586 0.882865 0.739283 0.251701
O88   O     O_3   0.704237 0.052274 0.582558 -0.598392
C143  C     C_3   0.635943 0.065267 0.546930 0.128322
H168  H     H_    0.593748 0.034701 0.495923 0.121548
H169  H     H_    0.615463 0.102457 0.503030 0.150554
C144  C     C_3   0.645398 0.071509 0.638830 -0.828650
H170  H     H_    0.681501 0.104910 0.687081 0.265080
H171  H     H_    0.591051 0.078547 0.610484 0.203508
H172  H     H_    0.669754 0.035777 0.687086 0.268263
O89   O     O_3   0.346652 0.235773 0.891136 -0.591425
C145  C     C_3   0.352002 0.181555 0.908135 0.156412
H173  H     H_    0.407670 0.167006 0.976588 0.098041
H174  H     H_    0.332431 0.160928 0.839001 0.188871
C146  C     C_3   0.301829 0.166621 0.921389 -0.776366
H175  H     H_    0.244360 0.178353 0.851633 0.265674
H176  H     H_    0.303668 0.123997 0.931878 0.205962
H177  H     H_    0.320068 0.186197 0.990645 0.262031
O90   O     O_3   0.346427 0.735634 0.888909 -0.602742
C147  C     C_3   0.334082 0.786807 0.901926 0.161056
H178  H     H_    0.307606 0.809932 0.831400 0.187464
H179  H     H_    0.383706 0.807862 0.969391 0.106260
C148  C     C_3   0.281075 0.784887 0.913528 -0.835801
H180  H     H_    0.305781 0.762334 0.984020 0.266287
H181  H     H_    0.269046 0.824822 0.920833 0.208915
H182  H     H_    0.228769 0.766265 0.844453 0.254983
O91   O     O_3   0.845617 0.747752 0.889397 -0.598630
C149  C     C_3   0.843460 0.694428 0.906014 0.168889
H183  H     H_    0.896800 0.677022 0.974751 0.100668
H184  H     H_    0.821356 0.672065 0.837014 0.190147
C150  C     C_3   0.791048 0.687239 0.917882 -0.819277
H185  H     H_    0.735704 0.702100 0.847706 0.256670
H186  H     H_    0.786701 0.645450 0.927689 0.210574
H187  H     H_    0.811536 0.708717 0.986929 0.259813
O92   O     O_3   0.880876 0.186737 0.900957 -0.595267
C151  C     C_3   0.867336 0.132939 0.893830 0.105449
H188  H     H_    0.827506 0.127134 0.899507 0.191156
H189  H     H_    0.917389 0.110147 0.958294 0.153996
C152  C     C_3   0.833059 0.112126 0.789381 -0.795041
H190  H     H_    0.873246 0.112893 0.783935 0.216217
H191  H     H_    0.815600 0.071407 0.780933 0.254799
H192  H     H_    0.784931 0.136173 0.725412 0.280324
O93   O     O_3   0.538749 0.287766 0.902205 -0.588093
C153  C     C_3   0.556587 0.336189 0.888210 0.094816
H193  H     H_    0.596383 0.357522 0.962985 0.132730
H194  H     H_    0.506301 0.360259 0.829865 0.172717
C154  C     C_3   0.591241 0.327341 0.847927 -0.708318
H195  H     H_    0.551604 0.307382 0.771849 0.257910
H196  H     H_    0.606176 0.365134 0.837670 0.205225
H197  H     H_    0.641554 0.303184 0.903773 0.262304
O94   O     O_3   0.546902 0.740529 0.903934 -0.591183
C155  C     C_3   0.578280 0.701998 0.890012 0.118465
H198  H     H_    0.534132 0.678013 0.821184 0.160860
H199  H     H_    0.616714 0.676509 0.959670 0.129315
C156  C     C_3   0.621180 0.727968 0.871393 -0.829723
H200  H     H_    0.668698 0.749378 0.941880 0.261253
H201  H     H_    0.641675 0.698106 0.853112 0.204509
H202  H     H_    0.585286 0.755634 0.805421 0.253623
O95   O     O_3   0.044839 0.773085 0.904502 -0.590530
C157  C     C_3   0.070305 0.816660 0.890353 0.140989
H203  H     H_    0.105189 0.842095 0.960032 0.128874
H204  H     H_    0.022896 0.839405 0.821463 0.176332
C158  C     C_3   0.116270 0.798162 0.871637 -0.835536
H205  H     H_    0.084212 0.770509 0.805873 0.255000
H206  H     H_    0.132413 0.831746 0.853104 0.208311
H207  H     H_    0.166655 0.778371 0.942148 0.259246
O96   O     O_3   0.023922 0.307251 0.896551 -0.611102
C159  C     C_3   0.063543 0.302109 0.869835 0.080638
H208  H     H_    0.038053 0.272080 0.808753 0.139052
H209  H     H_    0.121894 0.291644 0.939301 0.173789
C160  C     C_3   0.061696 0.353411 0.826684 -0.770170
H210  H     H_    0.086671 0.384387 0.885609 0.260131
H211  H     H_    0.093157 0.349873 0.806095 0.208327
H212  H     H_    0.004015 0.364163 0.755972 0.259191

loop_
_geom_bond_atom_site_label_1
_geom_bond_atom_site_label_2
_geom_bond_distance
_ccdc_geom_bond_type
N8    O68   1.301426 A    
C126  H125  1.109607 S    
Zn5   O21   1.945221 S    
H19   C51   1.108640 S    
O88   C143  1.416797 S    
C115  C116  1.563131 S    
H20   C52   1.115676 S    
C63   C79   1.570750 S    
O77   C121  1.411612 S    
H93   C109  1.105800 S    
N1    O53   1.301158 A    
C49   N1    1.469251 S    
C140  H160  1.110949 S    
C136  H151  1.110378 S    
C84   H76   1.113223 S    
C27   H3    1.107178 S    
C146  H177  1.110760 S    
C71   H59   1.115383 S    
C65   C73   1.553245 S    
C21   C41   1.488979 S    
O46   C2    1.285481 A    
O92   C151  1.414399 S    
C100  O80   1.419628 S    
O91   C149  1.416886 S    
C89   H77   1.113840 S    
C45   C49   1.565324 S    
C86   H66   1.112970 S    
C54   H26   1.114151 S    
Zn11  O31   1.942096 S    
O34   C22   1.281817 A    
Zn3   O3    1.955364 S    
C107  C111  1.558555 S    
C72   H60   1.115088 S    
C55   H31   1.110190 S    
Zn16  O28   1.942007 S    
C141  H164  1.111836 S    
O28   C24   1.278670 A    
C98   O78   1.418609 S    
C78   C86   1.551554 S    
C122  H116  1.108571 S    
C28   C32   1.534489 S    
C140  H161  1.109961 S    
Zn4   O40   1.945827 S    
C91   H79   1.113943 S    
O11   C7    1.282158 A    
H103  C119  1.111724 S    
O79   C125  1.412366 S    
N4    O60   1.301472 A    
C60   H40   1.112922 S    
C10   C106  1.491148 S    
C130  H137  1.108740 S    
C25   H5    1.112618 S    
C39   O95   1.422709 S    
C154  H195  1.109994 S    
C70   N10   1.469214 S    
N6    O63   1.300137 A    
C150  H187  1.110756 S    
C133  H144  1.109101 S    
C88   H68   1.112939 S    
C153  H194  1.114185 S    
C51   N3    1.468302 S    
O16   C12   1.284247 A    
C54   H30   1.109629 S    
C80   C84   1.551918 S    
Zn12  O4    1.951331 S    
C34   H34   1.111830 S    
Zn13  O5    1.939572 S    
Zn2   O10   1.939996 S    
C91   H83   1.107049 S    
Zn6   O14   1.943284 S    
C99   H91   1.114333 S    
C126  H127  1.108566 S    
C157  H204  1.113112 S    
C100  H92   1.120416 S    
C132  H140  1.107309 S    
C108  C120  1.572014 S    
H53   C81   1.110634 S    
C138  H157  1.110921 S    
C133  C134  1.521193 S    
C159  H208  1.114259 S    
Zn5   O13   1.945870 S    
C96   C104  1.556014 S    
C154  H197  1.110728 S    
C97   H89   1.114523 S    
C90   C102  1.557255 S    
C1    C80   1.484583 S    
C39   H23   1.119548 S    
C63   H47   1.115872 S    
C69   C85   1.542974 S    
C157  C158  1.520882 S    
O84   C135  1.415001 S    
C58   C74   1.553772 S    
C38   O94   1.421991 S    
C64   C80   1.572803 S    
O42   C14   1.278732 A    
C66   C82   1.541645 S    
C156  H201  1.109871 S    
C138  H155  1.110689 S    
H56   C84   1.110638 S    
O24   C20   1.280971 A    
C155  H198  1.111881 S    
C106  C118  1.571451 S    
C35   H35   1.111112 S    
Zn10  O2    1.951331 S    
C36   H36   1.115921 S    
Zn11  O19   1.943291 S    
C68   C76   1.554137 S    
C148  H180  1.110698 S    
C39   C43   1.572143 S    
C135  H148  1.111935 S    
Zn4   O4    1.950226 S    
C37   C41   1.573707 S    
C23   C43   1.487569 S    
C26   H6    1.112495 S    
C153  H193  1.113327 S    
C62   C78   1.570896 S    
C38   C42   1.568931 S    
Zn8   O24   1.942611 S    
C131  H138  1.111685 S    
C128  H130  1.109429 S    
C57   H37   1.112033 S    
H88   C96   1.113118 S    
C67   C83   1.541538 S    
O25   C21   1.281454 A    
N7    O66   1.301238 A    
C124  H120  1.109611 S    
C14   C102  1.490939 S    
C59   H39   1.112318 S    
C59   C63   1.542041 S    
O85   C137  1.412198 S    
C69   H57   1.115662 S    
C144  H170  1.108017 S    
Zn12  O52   1.939527 S    
C116  O88   1.422537 S    
C26   C42   1.557271 S    
O22   C18   1.281112 A    
C29   H13   1.112240 S    
C24   C44   1.490093 S    
C123  H118  1.110735 S    
C97   C98   1.559993 S    
C52   N4    1.470030 S    
N5    O62   1.301042 A    
C149  C150  1.520207 S    
Zn13  O41   1.945964 S    
C127  H128  1.112811 S    
O50   C6    1.279891 A    
C107  C119  1.583567 S    
C36   C44   1.556449 S    
Zn16  O44   1.943335 S    
N9    O70   1.301243 A    
Zn1   O37   1.943243 S    
C68   C84   1.541119 S    
Zn2   O34   1.945267 S    
Zn3   O39   1.943243 S    
C6    C74   1.486537 S    
C132  H142  1.109648 S    
Zn6   O22   1.942611 S    
C77   C81   1.554934 S    
C89   C90   1.534102 S    
C64   N8    1.470980 S    
H94   C110  1.111740 S    
N2    O56   1.301413 A    
C59   C75   1.555486 S    
C95   C103  1.557306 S    
C79   C83   1.553807 S    
C85   H65   1.113615 S    
C27   H7    1.112418 S    
C113  C114  1.566074 S    
C71   C75   1.564229 S    
Zn10  O50   1.939527 S    
C92   C104  1.557988 S    
C151  H188  1.110300 S    
C116  H112  1.121038 S    
C142  H167  1.110919 S    
C86   H62   1.112652 S    
C128  H132  1.110640 S    
C99   O79   1.426574 S    
C146  H176  1.110562 S    
N12   O75   1.301441 A    
C35   O91   1.428362 S    
C2    C79   1.485544 S    
H55   C83   1.110417 S    
O5    C1    1.274902 A    
O26   C22   1.279923 A    
O31   C19   1.278818 A    
C148  H182  1.111228 S    
C55   H27   1.114199 S    
C158  H205  1.110141 S    
C141  C142  1.520726 S    
C78   C82   1.553185 S    
C123  H119  1.113695 S    
Zn9   O49   1.939975 S    
H52   C68   1.113166 S    
O95   C157  1.412718 S    
Zn5   O45   1.939955 S    
C17   C48   1.490371 S    
Zn7   O47   1.939955 S    
C139  H158  1.112853 S    
C113  O85   1.424497 S    
C18   C47   1.487594 S    
Zn8   O48   1.940446 S    
C11   C107  1.486399 S    
C90   H82   1.112937 S    
C124  H122  1.109016 S    
C121  H114  1.106972 S    
C60   H44   1.114230 S    
O51   C7    1.283761 A    
C124  H121  1.110093 S    
C19   C46   1.486606 S    
C25   H1    1.107590 S    
O8    C4    1.283880 A    
C123  C124  1.520260 S    
C132  H141  1.110469 S    
C137  H153  1.112894 S    
C152  H192  1.110042 S    
C89   H81   1.106760 S    
H85   C93   1.113352 S    
C50   N2    1.470890 S    
C66   H70   1.110434 S    
C31   H11   1.113307 S    
C88   H64   1.112861 S    
C117  O81   1.429624 S    
N10   O71   1.301458 A    
C143  C144  1.521225 S    
H87   C95   1.113361 S    
O52   C8    1.280892 A    
C121  C122  1.522139 S    
H50   C66   1.113164 S    
C107  C115  1.569993 S    
O40   C12   1.277342 A    
Zn13  O1    1.951183 S    
Zn14  O6    1.940020 S    
Zn3   O11   1.940488 S    
O86   C139  1.411970 S    
Zn15  O27   1.944610 S    
C37   C53   1.542318 S    
C136  H150  1.109373 S    
C70   C74   1.565437 S    
C46   C54   1.559318 S    
C28   H4    1.113203 S    
O9    C5    1.285430 A    
C31   C47   1.556241 S    
H101  C117  1.112477 S    
C71   N11   1.469305 S    
C29   C45   1.554333 S    
C97   C101  1.571780 S    
C64   H48   1.115762 S    
O13   C9    1.284805 A    
C98   H90   1.120575 S    
O7    C3    1.275786 A    
C125  H123  1.109730 S    
C111  C112  1.543951 S    
C34   C50   1.561595 S    
C34   O90   1.428330 S    
O18   C14   1.284783 A    
C147  H178  1.108676 S    
O6    C2    1.279784 A    
C146  H175  1.111067 S    
C27   C43   1.555164 S    
Zn9   O29   1.942096 S    
C120  O84   1.423784 S    
C149  H184  1.109026 S    
Zn12  O32   1.944701 S    
Zn13  O25   1.944610 S    
C145  H173  1.104482 S    
C95   C96   1.548778 S    
Zn15  O3    1.951183 S    
Zn11  O3    1.956552 S    
C142  H165  1.110290 S    
C83   H75   1.113258 S    
C45   C53   1.557092 S    
O43   C15   1.279810 A    
O81   C129  1.411621 S    
C158  H207  1.110667 S    
C130  H136  1.110605 S    
H86   C94   1.113050 S    
C72   C88   1.551502 S    
C144  H172  1.109787 S    
Zn5   O1    1.950227 S    
C143  H168  1.114273 S    
C26   H2    1.107469 S    
O45   C1    1.283783 A    
C70   H58   1.115170 S    
C109  C110  1.540900 S    
N6    O64   1.301365 A    
C90   H78   1.113688 S    
C150  H186  1.110517 S    
C29   H9    1.113396 S    
O35   C23   1.280937 A    
C58   H38   1.112191 S    
H49   C65   1.111444 S    
C91   C92   1.533535 S    
O32   C20   1.279506 A    
C15   C103  1.487615 S    
C59   H43   1.111828 S    
C62   H46   1.115513 S    
C71   C87   1.550912 S    
C72   C76   1.565983 S    
C154  H196  1.110438 S    
N8    O67   1.300699 A    
C77   C85   1.557006 S    
C126  H126  1.109848 S    
C114  H110  1.120357 S    
C160  H210  1.110590 S    
Zn9   O17   1.943291 S    
C121  H113  1.107863 S    
C159  H209  1.113843 S    
C25   C41   1.554413 S    
C13   C101  1.485739 S    
H104  C120  1.116884 S    
C129  H133  1.107154 S    
N1    O54   1.301335 A    
C63   N7    1.470591 S    
Zn14  O42   1.943335 S    
C111  H107  1.113427 S    
N3    O57   1.300976 A    
C93   H97   1.113180 S    
C112  H108  1.113342 S    
Zn2   O38   1.945827 S    
C136  H152  1.109731 S    
C97   O77   1.426492 S    
C40   C56   1.551082 S    
C152  H190  1.106378 S    
C32   H12   1.113675 S    
H51   C67   1.113148 S    
C159  C160  1.520628 S    
H17   C49   1.108876 S    
C119  C120  1.547242 S    
C156  H200  1.110584 S    
C87   H63   1.113644 S    
O39   C11   1.275287 A    
C155  H199  1.114437 S    
C58   H42   1.111395 S    
H95   C111  1.105862 S    
C79   C87   1.551283 S    
C93   C94   1.548544 S    
C108  C116  1.568835 S    
O47   C3    1.282780 A    
C135  H149  1.112367 S    
C40   H24   1.119535 S    
H96   C112  1.111079 S    
C140  H162  1.110670 S    
C7    C75   1.487195 S    
H54   C82   1.110570 S    
C46   C50   1.563619 S    
O36   C24   1.282956 A    
C131  H139  1.114448 S    
O12   C8    1.278587 A    
C66   C74   1.554548 S    
C155  C156  1.519736 S    
O83   C133  1.411776 S    
C114  O86   1.423703 S    
C105  C109  1.555609 S    
N4    O59   1.300041 A    
O19   C15   1.282549 A    
C35   C43   1.572915 S    
Zn15  O43   1.945964 S    
C48   C52   1.565322 S    
C33   C41   1.575901 S    
C135  C136  1.520265 S    
C70   C86   1.551592 S    
C129  H134  1.109636 S    
C4    C77   1.486473 S    
C153  C154  1.520276 S    
C57   C73   1.552260 S    
C93   C101  1.556209 S    
C32   H16   1.113639 S    
C131  C132  1.518462 S    
H102  C118  1.118959 S    
C133  H143  1.106229 S    
C65   C81   1.540284 S    
N5    O61   1.301525 A    
C127  H129  1.113136 S    
Zn3   O35   1.942654 S    
C60   C64   1.540089 S    
N12   O76   1.301214 A    
N9    O69   1.301472 A    
C113  H109  1.120508 S    
C20   C45   1.486122 S    
C129  C130  1.520592 S    
N7    O65   1.301161 A    
C22   C42   1.488246 S    
C105  C113  1.568269 S    
C91   C103  1.558123 S    
C157  H203  1.114243 S    
C160  H212  1.111027 S    
C134  H146  1.110604 S    
C37   O93   1.423642 S    
C61   C77   1.564406 S    
C56   H32   1.110076 S    
C53   H25   1.114190 S    
O23   C19   1.281976 A    
C60   C76   1.556159 S    
C106  C114  1.566548 S    
O38   C10   1.275658 A    
C127  C128  1.521862 S    
Zn2   O2    1.950226 S    
C117  C118  1.547651 S    
Zn14  O2    1.956403 S    
C115  H111  1.120034 S    
N11   O73   1.301454 A    
C48   C56   1.554835 S    
O87   C141  1.411657 S    
C38   C54   1.543613 S    
O49   C5    1.280162 A    
C160  H211  1.110581 S    
C122  H115  1.110131 S    
Zn4   O36   1.945267 S    
C47   C55   1.556684 S    
Zn8   O4    1.955365 S    
C151  H189  1.114204 S    
C30   H14   1.112599 S    
C69   N9    1.470985 S    
O21   C17   1.281897 A    
C67   C75   1.555721 S    
C156  H202  1.110320 S    
C128  H131  1.109645 S    
C12   C108  1.491650 S    
C30   C46   1.555410 S    
C138  H156  1.109949 S    
C98   C102  1.559320 S    
C100  C104  1.557079 S    
C57   C61   1.551649 S    
C9    C105  1.487670 S    
C40   O96   1.421634 S    
C148  H181  1.110560 S    
C25   C29   1.546126 S    
C3    C78   1.484354 S    
C151  C152  1.523360 S    
C5    C73   1.486214 S    
Zn10  O30   1.944701 S    
Zn12  O20   1.945918 S    
O96   C159  1.412467 S    
C139  H159  1.112752 S    
Zn16  O4    1.956403 S    
C36   O92   1.421042 S    
C28   C44   1.558985 S    
C53   H29   1.110252 S    
Zn15  O7    1.939572 S    
C149  H183  1.104813 S    
C142  H166  1.109164 S    
C33   H33   1.111356 S    
Zn1   O9    1.940488 S    
C61   N5    1.469393 S    
C47   C51   1.564012 S    
C40   C44   1.559857 S    
C38   H22   1.119872 S    
Zn4   O12   1.939996 S    
Zn11  O51   1.939975 S    
C137  H154  1.112804 S    
C152  H191  1.109724 S    
C82   H74   1.113223 S    
Zn6   O2    1.955365 S    
C99   C103  1.573968 S    
C56   H28   1.113573 S    
Zn7   O15   1.945870 S    
C144  H171  1.110563 S    
Zn8   O16   1.943284 S    
C119  O83   1.430742 S    
C139  C140  1.520409 S    
N10   O72   1.301176 A    
C8    C76   1.486306 S    
C95   H99   1.113136 S    
C32   C48   1.555228 S    
C85   H61   1.114134 S    
O17   C13   1.282411 A    
C96   H100  1.112903 S    
C89   C101  1.559629 S    
O94   C155  1.412230 S    
O27   C23   1.280436 A    
C92   H80   1.113650 S    
N3    O58   1.301437 A    
O29   C17   1.281117 A    
C134  H147  1.109112 S    
C137  C138  1.520331 S    
C61   H45   1.113932 S    
C33   C49   1.560481 S    
O93   C153  1.413854 S    
Zn10  O18   1.945918 S    
C81   H73   1.112942 S    
N11   O74   1.301141 A    
C31   H15   1.112258 S    
O82   C131  1.416711 S    
C27   C31   1.546846 S    
C105  C117  1.584380 S    
Zn9   O1    1.956552 S    
N2    O55   1.300575 A    
C110  H106  1.113274 S    
C125  H124  1.105765 S    
O37   C9    1.275509 A    
O41   C13   1.278785 A    
C94   H98   1.112966 S    
C147  H179  1.105051 S    
C99   C100  1.563401 S    
C141  H163  1.112495 S    
C30   H10   1.113330 S    
C122  H117  1.111114 S    
C37   H21   1.119079 S    
C26   C30   1.544930 S    
C67   H71   1.110389 S    
C16   C104  1.489237 S    
C65   H69   1.110480 S    
C108  C112  1.551816 S    
O33   C21   1.280681 A    
H18   C50   1.108620 S    
C87   H67   1.112659 S    
C145  H174  1.109178 S    
O15   C11   1.284639 A    
C58   C62   1.538506 S    
C125  C126  1.523149 S    
O80   C127  1.408706 S    
Zn7   O3    1.950227 S    
Zn14  O26   1.942007 S    
Zn6   O46   1.940446 S    
C92   H84   1.112773 S    
C147  C148  1.521222 S    
C28   H8    1.113120 S    
C57   H41   1.113569 S    
C158  H206  1.110529 S    
C130  H135  1.109526 S    
C72   N12   1.469083 S    
O44   C16   1.279204 A    
O90   C147  1.416801 S    
C134  H145  1.110757 S    
C143  H169  1.112349 S    
O20   C16   1.283381 A    
C69   C73   1.570224 S    
O10   C6    1.279674 A    
C94   C102  1.555906 S    
O48   C4    1.281705 A    
C150  H185  1.110348 S    
Zn16  O8    1.940020 S    
C145  C146  1.520763 S    
O14   C10   1.285638 A    
C68   H72   1.110545 S    
Zn1   O1    1.955364 S    
C80   C88   1.552646 S    
O89   C145  1.416900 S    
C106  C110  1.551761 S    
C35   C51   1.560614 S    
Zn7   O23   1.945221 S    
C36   C52   1.557372 S    
C33   O89   1.428613 S    
C62   N6    1.468982 S    
O78   C123  1.408792 S    
Zn1   O33   1.942654 S    
C34   C42   1.574641 S    
C115  O87   1.424773 S    
C118  O82   1.423348 S    
C39   C55   1.542684 S    
O30   C18   1.280093 A    
C109  H105  1.113444 S    
