data_mof_unit_42558.cif
_audit_creation_date              2013-03-05T15:45:15-0500
_audit_creation_method            fapswitch 2.2
_symmetry_space_group_name_H-M    P1
_symmetry_Int_Tables_number       1
_space_group_crystal_system       triclinic
_cell_length_a                    8.337698
_cell_length_b                    12.759527
_cell_length_c                    19.284956
_cell_angle_alpha                 95.455693
_cell_angle_beta                  95.483377
_cell_angle_gamma                 97.397678
_cell_volume                      2013.22666606

loop_
_atom_site_label
_atom_site_type_symbol
_atom_site_description
_atom_site_fract_x
_atom_site_fract_y
_atom_site_fract_z
_atom_type_partial_charge
P1    P     P_3+3 0.986780 0.745970 0.554690 0.412710
O1    O     O_2   0.160820 0.763040 0.533820 -0.365827
O2    O     O_3   0.890970 0.628600 0.535400 -0.421113
O3    O     O_3   0.385950 0.698560 0.408070 -0.294925
O4    O     O_2   0.308451 0.882375 0.460596 -0.379057
O5    O     O_3   0.034129 0.766057 0.645858 -0.658586
O6    O     O_3   0.350359 0.870940 0.329335 -0.628149
C1    C     C_3   0.386847 0.865014 0.206724 0.507456
H1    H     H_    0.263830 0.819005 0.191616 0.118493
P2    P     P_3+3 0.341450 0.417130 0.341310 0.457608
P3    P     P_3+3 0.925088 0.634055 0.282343 0.482776
O7    O     O_2   0.172860 0.449730 0.330520 -0.362037
O8    O     O_3   0.962080 0.644700 0.373110 -0.378870
O9    O     O_2   0.053943 0.571139 0.252875 -0.356641
O10   O     O_3   0.303089 0.278332 0.325174 -0.596449
O11   O     O_3   0.972212 0.760035 0.254949 -0.506467
C2    C     C_3   0.918354 0.835998 0.301655 0.487566
H2    H     H_    0.013042 0.860925 0.346868 0.129290
H3    H     H_    0.802333 0.805738 0.321695 0.057540
C3    C     C_3   0.890566 0.932282 0.263568 -1.042695
H4    H     H_    0.857331 0.996072 0.300578 0.230870
H5    H     H_    0.001892 0.962506 0.240541 0.264511
C4    C     C_3   0.764667 0.315267 0.320817 0.304269
H6    H     H_    0.633469 0.322095 0.317950 0.068209
H7    H     H_    0.835059 0.390112 0.347827 0.116517
C5    C     C_3   0.817776 0.303248 0.247118 -0.481613
H8    H     H_    0.813465 0.379063 0.223953 0.167991
H9    H     H_    0.945434 0.286507 0.251155 0.224571
Ba1   Ba    Ba6+2 0.160910 0.552960 0.466220 1.541844
C6    C     C_3   0.892819 0.752761 0.679989 0.158509
H10   H     H_    0.888273 0.677049 0.703752 0.141526
H11   H     H_    0.779171 0.752297 0.645001 0.094445
C7    C     C_3   0.903133 0.841647 0.739222 0.331118
H12   H     H_    0.023342 0.853065 0.770745 0.073577
H13   H     H_    0.883486 0.916189 0.716805 0.029959
C8    C     C_3   0.256979 0.234554 0.385278 0.405523
H14   H     H_    0.136683 0.256103 0.395804 0.093499
H15   H     H_    0.347862 0.261191 0.431516 0.150649
C9    C     C_3   0.245339 0.114575 0.371735 -0.964238
H16   H     H_    0.149479 0.085238 0.328136 0.250778
H17   H     H_    0.213982 0.075936 0.418466 0.249401
H18   H     H_    0.363930 0.092670 0.358047 0.264659
P4    P     P_3+3 0.823520 0.254020 0.445250 0.449435
O12   O     O_2   0.649470 0.236890 0.466160 -0.359317
O13   O     O_3   0.919320 0.371390 0.464540 -0.446854
O14   O     O_3   0.424350 0.301430 0.591880 -0.426992
O15   O     O_3   0.792539 0.224914 0.353834 -0.582559
P5    P     P_3+3 0.878147 0.357743 0.719908 0.458137
O16   O     O_3   0.382770 0.553920 0.582990 -0.424825
O17   O     O_3   0.848220 0.355290 0.626830 -0.379444
O18   O     O_2   0.760409 0.429651 0.750460 -0.383764
O19   O     O_3   0.803734 0.231010 0.739561 -0.499787
Ba2   Ba    Ba6+2 0.649260 0.447030 0.533730 1.519617
P6    P     P_3+3 0.424255 0.837466 0.411284 0.504240
C10   C     C_3   0.452048 0.839875 0.279401 1.043843
H19   H     H_    0.575832 0.884031 0.293466 -0.160129
O20   O     O_3   0.427530 0.446070 0.416950 -0.402067
C11   C     C_3   0.449632 0.775610 0.648707 0.304195
H20   H     H_    0.513199 0.766785 0.600771 0.042598
H21   H     H_    0.319456 0.747032 0.635977 0.139187
C12   C     C_3   0.468408 0.892557 0.677058 -0.342750
H22   H     H_    0.599022 0.924666 0.690184 0.201827
H23   H     H_    0.421928 0.936151 0.634208 0.167549
P7    P     P_3+3 0.464730 0.583239 0.673006 0.436107
O21   O     O_2   0.637430 0.550200 0.669460 -0.345824
O22   O     O_3   0.513437 0.718664 0.700296 -0.525328
H24   H     H_    0.791000 0.909811 0.220211 0.307270
C13   C     C_3   0.904125 0.157450 0.716011 0.483368
H25   H     H_    0.824536 0.086838 0.687835 0.080805
H26   H     H_    0.988416 0.186083 0.678299 0.023289
C14   C     C_3   0.000578 0.123208 0.778876 -1.092467
H27   H     H_    0.082376 0.066948 0.760681 0.217289
H28   H     H_    0.075188 0.193232 0.810006 0.264943
H29   H     H_    0.916447 0.083590 0.812759 0.284383
P8    P     P_3+3 0.382052 0.163721 0.592449 0.424753
C15   C     C_3   0.409263 0.221804 0.724866 0.507370
H30   H     H_    0.279897 0.234873 0.718271 0.003861
O23   O     O_2   0.505951 0.114584 0.549070 -0.363249
O24   O     O_3   0.435457 0.135793 0.678113 -0.540143
H31   H     H_    0.488816 0.295194 0.716555 0.166589
H32   H     H_    0.356999 0.141912 0.816676 0.239403
C16   C     C_3   0.452662 0.199811 0.800044 -0.991228
H33   H     H_    0.464726 0.275055 0.835033 0.230378
H34   H     H_    0.570039 0.167826 0.805656 0.302480
C17   C     C_R   0.078578 0.181067 0.523278 -0.527771
C18   C     C_R   0.729535 0.819098 0.478117 -0.463488
C19   C     C_R   0.701622 0.996974 0.448821 -0.228849
C20   C     C_R   0.637134 0.889429 0.447217 0.192082
C21   C     C_R   0.883843 0.852885 0.513899 0.244840
C22   C     C_R   0.948847 0.964111 0.518643 -0.052065
C23   C     C_R   0.856730 0.037263 0.484826 -0.034245
C24   C     C_R   0.923136 0.148214 0.488810 0.306384
C25   C     C_R   0.169842 0.111395 0.555328 0.217730
C26   C     C_R   0.103427 0.004365 0.554927 -0.234543
H35   H     H_    0.628246 0.048102 0.422528 0.174022
H36   H     H_    0.174464 0.952909 0.581792 0.170741
H37   H     H_    0.133857 0.261776 0.521319 0.147910
H38   H     H_    0.677851 0.736457 0.476111 0.176219
C27   C     C_R   0.611378 0.535682 0.297082 -0.395388
C28   C     C_R   0.458170 0.478018 0.273602 0.294091
C29   C     C_R   0.407648 0.458148 0.199726 0.076794
C30   C     C_R   0.514750 0.499927 0.152203 0.009718
C31   C     C_R   0.668242 0.555280 0.178237 -0.261805
C32   C     C_R   0.717678 0.570824 0.249840 0.239098
C33   C     C_R   0.460265 0.584465 0.042058 -0.147806
C34   C     C_R   0.408827 0.578498 0.970385 -0.172041
C35   C     C_R   0.361522 0.479360 0.930865 0.168569
C36   C     C_R   0.372609 0.386365 0.963596 -0.183895
C37   C     C_R   0.431223 0.392409 0.034542 -0.186317
C38   C     C_R   0.468882 0.491503 0.075152 0.162075
C39   C     C_R   0.145608 0.420728 0.829898 -0.311620
C40   C     C_R   0.094515 0.408756 0.757870 0.230140
C41   C     C_R   0.355259 0.506201 0.736472 0.258638
C42   C     C_R   0.404681 0.519777 0.808647 -0.278611
C43   C     C_R   0.303550 0.472567 0.855369 0.021284
C44   C     C_R   0.207473 0.442740 0.712398 -0.190516
H39   H     H_    0.520755 0.566399 0.828308 0.178879
H40   H     H_    0.402161 0.651179 0.946095 0.139973
H41   H     H_    0.491147 0.661736 0.072053 0.207114
H42   H     H_    0.336709 0.308978 0.934256 0.130720
H43   H     H_    0.443407 0.319680 0.057944 0.123472
H44   H     H_    0.062952 0.391270 0.865906 0.159252
H45   H     H_    0.751198 0.584955 0.142338 0.155310
H46   H     H_    0.651769 0.548656 0.352637 0.151371
F1    F     F_    0.457847 0.731514 0.275755 -0.695914
C45   C     C_3   0.710824 0.213642 0.199115 -0.228368
C46   C     C_3   0.754521 0.212204 0.124025 -0.913193
H47   H     H_    0.734706 0.288123 0.102954 0.255147
H48   H     H_    0.883877 0.200521 0.122122 0.270346
H49   H     H_    0.676250 0.145920 0.090495 0.259694
H50   H     H_    0.730138 0.136465 0.218332 0.231321
H51   H     H_    0.580538 0.224159 0.199473 0.190259
F2    F     F_    0.786504 0.816939 0.783448 -0.676665
F3    F     F_    0.489198 0.833126 0.158768 -0.703758
C47   C     C_3   0.371774 0.910097 0.740483 -0.251885
C48   C     C_3   0.476685 0.919010 0.810694 -0.691181
H52   H     H_    0.512020 0.840469 0.820663 0.307460
H53   H     H_    0.587423 0.977931 0.811789 0.262220
H54   H     H_    0.405641 0.945167 0.853421 0.199411
H55   H     H_    0.314821 0.983284 0.737093 0.202199
H56   H     H_    0.271648 0.843951 0.739776 0.188880
C49   C     C_3   0.376098 0.983932 0.205486 -0.497102
C50   C     C_3   0.327191 0.011618 0.131841 -0.750624
H57   H     H_    0.421074 0.994923 0.096741 0.284791
H58   H     H_    0.208370 0.964935 0.110030 0.249533
H59   H     H_    0.315379 0.097557 0.133994 0.221669
H60   H     H_    0.284069 0.006920 0.239446 0.195461
H61   H     H_    0.494698 0.030790 0.226471 0.192796
C51   C     C_3   0.245577 0.390771 0.171346 -0.331592
C52   C     C_3   0.131594 0.449616 0.126586 -0.744326
H62   H     H_    0.165440 0.537198 0.136682 0.282912
H63   H     H_    0.134421 0.425599 0.069999 0.231711
H64   H     H_    0.004003 0.428808 0.137841 0.233643
H65   H     H_    0.268122 0.317339 0.140530 0.151911
H66   H     H_    0.178746 0.361263 0.213500 0.219893
C53   C     C_3   0.157218 0.422624 0.637293 -0.422258
C54   C     C_3   0.064755 0.512049 0.616429 -0.425529
H67   H     H_    0.974492 0.531200 0.652328 0.202824
H68   H     H_    0.142186 0.588179 0.616800 0.213676
H69   H     H_    0.001651 0.484725 0.564787 0.293038
H70   H     H_    0.250981 0.411715 0.605182 0.248027
H71   H     H_    0.100278 0.339861 0.625382 0.160722

loop_
_geom_bond_atom_site_label_1
_geom_bond_atom_site_label_2
_geom_bond_distance
_ccdc_geom_bond_type
C50   H59   1.110754 S    
P6    C20   1.855985 S    
C10   H19   1.106292 S    
C45   C46   1.525646 S    
C19   C23   1.417108 A    
O7    Ba1   2.832234 S    
P3    O8    1.737366 S    
C36   H42   1.081680 S    
C3    H24   1.109494 S    
C39   C40   1.401472 A    
C15   O24   1.405792 S    
O6    C10   1.404733 S    
C19   C20   1.404213 A    
C31   H45   1.083975 S    
H32   C16   1.107728 S    
C47   C48   1.526483 S    
C9    H17   1.104503 S    
Ba1   O16   2.772328 S    
P8    C25   1.857860 S    
C5    H8    1.106665 S    
C54   H67   1.104615 S    
O1    Ba1   2.867222 S    
O8    Ba1   2.770055 S    
C53   C54   1.520746 S    
C33   C38   1.405902 A    
P2    O10   1.750971 S    
C6    H10   1.105794 S    
P3    O9    1.540684 D    
C18   C20   1.394963 A    
C34   C35   1.402599 A    
C11   H21   1.096078 S    
C50   H57   1.110452 S    
C2    C3    1.521457 S    
C36   C37   1.399701 A    
O2    Ba1   2.943691 S    
P1    O1    1.536878 D    
C5    C45   1.528996 S    
C4    C5    1.528381 S    
C12   H23   1.106427 S    
C2    H3    1.112587 S    
C17   C25   1.392881 A    
O12   Ba2   2.867856 S    
P4    Ba2   3.418143 S    
P5    O18   1.546714 D    
C10   F1    1.385036 S    
C13   H25   1.109679 S    
C52   H64   1.109806 S    
C19   H35   1.078599 S    
C4    H6    1.105046 S    
P3    C32   1.836239 S    
Ba2   O21   2.832269 S    
O3    Ba1   2.851346 S    
O19   C13   1.407738 S    
C41   C44   1.397062 A    
C11   C12   1.522634 S    
P5    O17   1.785210 S    
C27   C32   1.395099 A    
O13   Ba2   2.944638 S    
C54   H68   1.093956 S    
O16   P7    1.790097 S    
C34   H40   1.083249 S    
C39   H44   1.082959 S    
C30   C31   1.402040 A    
C48   H54   1.110455 S    
C1    C10   1.532193 S    
O14   P8    1.748353 S    
C17   C24   1.392746 A    
C11   O22   1.391626 S    
C22   C26   1.415403 A    
C9    H18   1.110176 S    
C47   H55   1.105298 S    
O17   Ba2   2.770573 S    
C4    O15   1.403131 S    
C47   H56   1.106171 S    
C1    F3    1.384842 S    
P1    O5    1.751663 S    
C29   C30   1.431170 A    
C49   H61   1.106492 S    
O4    P6    1.542496 D    
P2    O20   1.551951 S    
C15   H30   1.109741 S    
C48   H53   1.110248 S    
C15   C16   1.521461 S    
C23   C24   1.444278 A    
C14   H28   1.108687 S    
Ba2   O20   2.771837 S    
C1    H1    1.112133 S    
C11   H20   1.112387 S    
O5    C6    1.402915 S    
Ba1   O13   2.863100 S    
P1    O2    1.596399 S    
P7    O22   1.741618 S    
P2    C28   1.869934 S    
C51   H65   1.107799 S    
C46   H48   1.111179 S    
P4    O15   1.753981 S    
P3    O11   1.748095 S    
C27   C28   1.400794 A    
C45   H51   1.112150 S    
C35   C36   1.405146 A    
P1    Ba1   3.417439 S    
C2    H2    1.111648 S    
C25   C26   1.405047 A    
C26   H36   1.075385 S    
P4    O13   1.596369 S    
C35   C43   1.480414 S    
P2    O7    1.517664 D    
P5    C40   1.889099 S    
C3    H5    1.107541 S    
C53   H70   1.057437 S    
C54   H69   1.084811 S    
C16   H34   1.107722 S    
P4    O12   1.537275 D    
C52   H63   1.108390 S    
C30   C38   1.488704 S    
C46   H47   1.110862 S    
O10   C8    1.398699 S    
C40   C44   1.403209 A    
C12   C47   1.542097 S    
C41   C42   1.401197 A    
C50   H58   1.110842 S    
C8    H14   1.105489 S    
P1    C21   1.895515 S    
P7    C41   1.873119 S    
C6    C7    1.519296 S    
O3    P6    1.754060 S    
C49   C50   1.526409 S    
C49   H60   1.105073 S    
C8    C9    1.517255 S    
C15   H31   1.109702 S    
Ba1   O20   2.939842 S    
C48   H52   1.109003 S    
C18   C21   1.395793 A    
C14   H29   1.110695 S    
C1    C49   1.533757 S    
C42   C43   1.415369 A    
C33   C34   1.399482 A    
C5    H9    1.109257 S    
P4    C24   1.894513 S    
P7    O21   1.557372 D    
C8    H15   1.109832 S    
C51   H66   1.097201 S    
C46   H49   1.110188 S    
C14   H27   1.107911 S    
C51   C52   1.536969 S    
C6    H11   1.108508 S    
O2    Ba2   2.863724 S    
P2    Ba1   3.412225 S    
C37   H43   1.081817 S    
C22   C23   1.446045 A    
O11   C2    1.405612 S    
Ba1   Ba2   4.565022 S    
C45   H50   1.109860 S    
C13   C14   1.520628 S    
O16   Ba2   2.938855 S    
O14   Ba2   2.850683 S    
C29   C51   1.527962 S    
C28   C29   1.435485 A    
C7    H13   1.105954 S    
C7    H12   1.106551 S    
C4    H7    1.109257 S    
C12   H22   1.109321 S    
C18   H38   1.082184 S    
P8    O23   1.546695 D    
C44   C53   1.457718 S    
C42   H39   1.083044 S    
C17   H37   1.078359 S    
C53   H71   1.094193 S    
C9    H16   1.104783 S    
C7    F2    1.379535 S    
P5    O19   1.745453 S    
C3    H4    1.110888 S    
C13   H26   1.112842 S    
C16   H33   1.107313 S    
C31   C32   1.390708 A    
C52   H62   1.110532 S    
C33   H41   1.081989 S    
C39   C43   1.415359 A    
O6    P6    1.752054 S    
C21   C22   1.443597 A    
C37   C38   1.404672 A    
P8    O24   1.751194 S    
C27   H46   1.082416 S    
