data_mof_unit_66020.cif
_audit_creation_date              2013-03-05T16:13:04-0500
_audit_creation_method            fapswitch 2.2
_symmetry_space_group_name_H-M    P1
_symmetry_Int_Tables_number       1
_space_group_crystal_system       triclinic
_cell_length_a                    37.35182
_cell_length_b                    30.376572
_cell_length_c                    21.745965
_cell_angle_alpha                 89.888619
_cell_angle_beta                  54.48268
_cell_angle_gamma                 89.807315
_cell_volume                      20082.5621054

loop_
_atom_site_label
_atom_site_type_symbol
_atom_site_description
_atom_site_fract_x
_atom_site_fract_y
_atom_site_fract_z
_atom_type_partial_charge
O1    O     O_R   0.064270 0.537170 0.435740 -0.548884
O2    O     O_R   0.935730 0.537170 0.564260 -0.542740
O3    O     O_R   0.564270 0.037170 0.435740 -0.543082
O4    O     O_R   0.435730 0.037170 0.564260 -0.542019
O5    O     O_R   0.064230 0.462780 0.435770 -0.582991
O6    O     O_R   0.935770 0.462780 0.564230 -0.582409
O7    O     O_R   0.564230 0.962780 0.435770 -0.607923
O8    O     O_R   0.435770 0.962780 0.564230 -0.579898
C1    C     C_R   0.084859 0.499838 0.416224 0.931481
C2    C     C_R   0.914922 0.499973 0.583709 0.862798
C3    C     C_R   0.584942 0.999893 0.415443 0.922568
C4    C     C_R   0.414997 0.000023 0.584214 0.901969
O9    O     O_R   0.000000 0.537170 0.590170 -0.564677
O10   O     O_R   0.000000 0.537170 0.409830 -0.549573
O11   O     O_R   0.500000 0.037170 0.590170 -0.548503
O12   O     O_R   0.500000 0.037170 0.409830 -0.577174
O13   O     O_R   0.999960 0.462780 0.590210 -0.560673
O14   O     O_R   0.000040 0.462780 0.409790 -0.585519
O15   O     O_R   0.499960 0.962780 0.590210 -0.579476
O16   O     O_R   0.500040 0.962780 0.409790 -0.566864
C5    C     C_R   0.998975 0.499911 0.619730 0.888151
C6    C     C_R   0.999265 0.499936 0.381908 0.844241
C7    C     C_R   0.499120 0.999800 0.619788 0.876501
C8    C     C_R   0.499723 0.999942 0.381605 0.896678
Cu1   Cu    Cu3+1 0.000000 0.544020 0.500000 1.144841
Cu2   Cu    Cu3+1 0.500000 0.044020 0.500000 1.136513
Cu3   Cu    Cu3+1 0.000000 0.455930 0.500000 1.003339
Cu4   Cu    Cu3+1 0.500000 0.955930 0.500000 0.987941
C9    C     C_R   0.037217 0.656584 0.943302 -0.172697
C10   C     C_R   0.962553 0.656681 0.057095 -0.174619
C11   C     C_R   0.537212 0.156577 0.943071 -0.178492
C12   C     C_R   0.462476 0.156700 0.056665 -0.170999
C13   C     C_R   0.486866 0.297274 0.065742 -0.163165
C14   C     C_R   0.512960 0.297397 0.934353 -0.158629
C15   C     C_R   0.986891 0.797323 0.065952 -0.162547
C16   C     C_R   0.012898 0.797343 0.934609 -0.158256
C17   C     C_R   0.037077 0.702464 0.943077 -0.155535
C18   C     C_R   0.962685 0.702570 0.057496 -0.158616
C19   C     C_R   0.537073 0.202459 0.942803 -0.159366
C20   C     C_R   0.462608 0.202587 0.057028 -0.157752
C21   C     C_R   0.023467 0.528210 0.695449 0.024926
C22   C     C_R   0.014433 0.534365 0.266166 0.013870
C23   C     C_R   0.510863 0.035581 0.708613 0.031104
C24   C     C_R   0.526083 0.026156 0.255115 -0.022448
C25   C     C_R   0.997804 0.499366 0.687297 -0.152030
C26   C     C_R   0.997897 0.499390 0.316664 -0.215977
C27   C     C_R   0.498339 0.998906 0.687330 -0.179510
C28   C     C_R   0.498166 0.999597 0.316889 -0.136443
C29   C     C_R   0.971862 0.468526 0.746071 0.447870
C30   C     C_R   0.980627 0.462962 0.300485 0.467558
C31   C     C_R   0.486176 0.960503 0.733134 0.465577
C32   C     C_R   0.468573 0.972147 0.313908 0.449761
C33   C     C_R   0.971906 0.469562 0.811360 -0.297299
C34   C     C_R   0.982350 0.463039 0.233890 -0.274472
C35   C     C_R   0.485878 0.961632 0.798524 -0.293607
C36   C     C_R   0.469560 0.972153 0.247524 -0.320294
H1    H     H_    0.950596 0.447737 0.858254 0.161000
H2    H     H_    0.969669 0.435074 0.221333 0.165333
H3    H     H_    0.475130 0.933061 0.834985 0.154357
H4    H     H_    0.448196 0.950386 0.243296 0.153111
C37   C     C_R   0.999570 0.498806 0.815682 -0.108368
C38   C     C_R   0.999882 0.499279 0.184509 -0.120494
C39   C     C_R   0.499745 0.999447 0.816110 -0.100367
C40   C     C_R   0.499399 0.999191 0.185517 -0.102766
C41   C     C_R   0.025314 0.527060 0.755584 0.060382
C42   C     C_R   0.015699 0.534144 0.202853 0.039494
C43   C     C_R   0.512344 0.035504 0.769169 0.043395
C44   C     C_R   0.527232 0.025457 0.191964 0.062167
C45   C     C_3   0.055860 0.565178 0.729829 -0.507282
C46   C     C_3   0.032627 0.579983 0.180877 -0.524686
C47   C     C_3   0.526617 0.082194 0.759870 -0.540104
C48   C     C_3   0.563570 0.058168 0.151243 -0.493458
C49   C     C_3   0.054180 0.566331 0.660528 0.192334
C50   C     C_3   0.031337 0.580374 0.253248 0.208337
C51   C     C_3   0.525367 0.082485 0.690131 0.218934
C52   C     C_3   0.562601 0.058629 0.223266 0.179115
H5    H     H_    0.040327 0.593945 0.768335 0.220960
H6    H     H_    0.066006 0.581209 0.126817 0.237085
H7    H     H_    0.501362 0.103252 0.807551 0.230032
H8    H     H_    0.593869 0.043812 0.100524 0.235988
H9    H     H_    0.088501 0.555332 0.715812 0.198455
H10   H     H_    0.008097 0.602525 0.184054 0.174404
H11   H     H_    0.560351 0.085066 0.745441 0.188180
H12   H     H_    0.552385 0.089622 0.141318 0.169789
H13   H     H_    0.085838 0.558279 0.606067 0.172865
H14   H     H_    0.006965 0.603703 0.297536 0.128364
H15   H     H_    0.558075 0.086799 0.635473 0.174629
H16   H     H_    0.552297 0.090547 0.254085 0.121562
C53   C     C_R   0.201214 0.501659 0.242811 -0.252679
C54   C     C_R   0.797097 0.467679 0.731671 -0.264828
C55   C     C_R   0.702086 0.975411 0.254454 -0.238514
C56   C     C_R   0.297618 0.971311 0.738936 -0.254705
H17   H     H_    0.217933 0.504292 0.182360 0.148567
H18   H     H_    0.779407 0.442109 0.773677 0.149657
H19   H     H_    0.719528 0.956575 0.202518 0.147893
H20   H     H_    0.280114 0.948907 0.786432 0.148277
C57   C     C_R   0.155114 0.498943 0.289750 0.424250
C58   C     C_R   0.843019 0.465930 0.683327 0.412789
C59   C     C_R   0.656050 0.974165 0.301895 0.443085
C60   C     C_R   0.343603 0.970000 0.691431 0.400854
C61   C     C_R   0.132925 0.499247 0.368582 -0.220839
C62   C     C_R   0.866479 0.499864 0.629861 -0.253248
C63   C     C_R   0.633140 0.999593 0.368409 -0.221080
C64   C     C_R   0.366692 0.000059 0.630954 -0.252456
C65   C     C_R   0.156856 0.498250 0.400487 0.281586
C66   C     C_R   0.843065 0.533622 0.622045 0.279936
C67   C     C_R   0.656544 0.024881 0.388607 0.289699
C68   C     C_R   0.343210 0.029954 0.616453 0.278276
C69   C     C_R   0.202872 0.499111 0.352326 -0.214032
C70   C     C_R   0.797097 0.534212 0.670401 -0.222904
C71   C     C_R   0.702515 0.025393 0.340617 -0.217771
C72   C     C_R   0.297212 0.030177 0.664231 -0.222881
H21   H     H_    0.221182 0.496814 0.376628 0.182667
H22   H     H_    0.779167 0.560047 0.664621 0.180907
H23   H     H_    0.720474 0.044887 0.355898 0.181053
H24   H     H_    0.279156 0.053051 0.653407 0.181269
C73   C     C_R   0.225421 0.501337 0.273621 -0.025126
C74   C     C_R   0.774042 0.501508 0.725171 -0.025737
C75   C     C_R   0.725492 0.000559 0.273922 -0.029071
C76   C     C_R   0.274294 0.000982 0.725214 -0.023966
C77   C     C_R   0.297786 0.523460 0.247417 -0.151020
C78   C     C_R   0.702255 0.508011 0.742547 -0.167752
C79   C     C_R   0.797291 0.997173 0.257686 -0.166910
C80   C     C_R   0.202478 0.002456 0.741719 -0.167691
H25   H     H_    0.280884 0.541411 0.300198 0.141583
H26   H     H_    0.719400 0.512700 0.682264 0.136442
H27   H     H_    0.780045 0.994183 0.318275 0.136173
H28   H     H_    0.219657 0.003264 0.680953 0.134075
C81   C     C_R   0.343617 0.522276 0.202599 -0.184799
C82   C     C_R   0.656473 0.507338 0.788421 -0.183072
C83   C     C_R   0.843104 0.997080 0.212075 -0.181661
C84   C     C_R   0.156680 0.002081 0.787599 -0.181540
H29   H     H_    0.360996 0.538893 0.221949 0.151329
H30   H     H_    0.639188 0.512080 0.762611 0.157714
H31   H     H_    0.860168 0.994443 0.238617 0.157942
H32   H     H_    0.139496 0.003089 0.761147 0.158203
C85   C     C_R   0.366769 0.500730 0.132665 -0.027797
C86   C     C_R   0.633415 0.500718 0.866615 -0.033100
C87   C     C_R   0.866466 0.000077 0.133239 -0.034663
C88   C     C_R   0.133494 0.000351 0.866543 -0.034435
C89   C     C_R   0.343574 0.480171 0.108183 -0.181597
C90   C     C_R   0.656936 0.494771 0.898137 -0.189879
C91   C     C_R   0.843157 0.003158 0.100860 -0.188853
C92   C     C_R   0.156953 0.998985 0.898755 -0.188243
H33   H     H_    0.360930 0.463120 0.054458 0.150035
H34   H     H_    0.639989 0.489598 0.958251 0.157686
H35   H     H_    0.860289 0.005662 0.040245 0.159396
H36   H     H_    0.139958 0.997717 0.959441 0.158774
C93   C     C_R   0.297710 0.480334 0.153835 -0.156701
C94   C     C_R   0.702758 0.495135 0.852105 -0.156371
C95   C     C_R   0.797310 0.003347 0.146544 -0.149331
C96   C     C_R   0.202784 0.999254 0.852792 -0.154442
H37   H     H_    0.280762 0.462715 0.134646 0.124137
H38   H     H_    0.720322 0.490554 0.877465 0.140697
H39   H     H_    0.780075 0.006358 0.120346 0.148407
H40   H     H_    0.220211 0.998539 0.878837 0.141497
C97   C     C_R   0.274222 0.502032 0.224039 0.155851
C98   C     C_R   0.725690 0.501804 0.774047 0.153046
C99   C     C_R   0.774004 0.000403 0.225339 0.151327
C100  C     C_R   0.225866 0.001027 0.773954 0.152455
C101  C     C_R   0.999889 0.633352 0.000154 -0.028967
C102  C     C_R   0.499863 0.133357 0.999890 -0.030736
H41   H     H_    0.066343 0.639306 0.898615 0.153736
H42   H     H_    0.933438 0.639472 0.101700 0.154550
H43   H     H_    0.566366 0.139290 0.898480 0.153850
H44   H     H_    0.433327 0.139504 0.101209 0.155945
C103  C     C_R   0.999879 0.725724 0.000322 0.098286
C104  C     C_R   0.499851 0.225729 0.999966 0.097754
C105  C     C_R   0.500243 0.725777 0.999157 0.099737
C106  C     C_R   0.000233 0.225772 0.999355 0.099579
H45   H     H_    0.476930 0.279801 0.116824 0.136633
H46   H     H_    0.522850 0.280032 0.883255 0.140561
H47   H     H_    0.976998 0.779895 0.117049 0.136388
H48   H     H_    0.022761 0.779937 0.883559 0.141846
O17   O     O_R   0.962790 0.435650 0.037200 -0.592686
O18   O     O_R   0.037210 0.435650 0.962800 -0.586444
O19   O     O_R   0.462790 0.935650 0.037200 -0.591565
O20   O     O_R   0.537210 0.935650 0.962800 -0.587112
C107  C     C_R   0.000049 0.414820 0.999892 0.776065
C108  C     C_R   0.500052 0.914821 0.999821 0.777144
O21   O     O_R   0.962770 0.499920 0.947050 -0.582535
O22   O     O_R   0.037230 0.499920 0.052950 -0.577967
O23   O     O_R   0.462770 0.999920 0.947050 -0.575806
O24   O     O_R   0.537230 0.999920 0.052950 -0.577562
O25   O     O_R   0.037170 0.499970 0.872660 -0.579681
O26   O     O_R   0.962830 0.499970 0.127340 -0.586619
O27   O     O_R   0.537170 0.999970 0.872660 -0.584484
O28   O     O_R   0.462830 0.999970 0.127340 -0.590282
C109  C     C_R   0.999912 0.500038 0.881465 0.834808
C110  C     C_R   0.000035 0.500372 0.118464 0.834172
C111  C     C_R   0.499928 0.000596 0.881656 0.835790
C112  C     C_R   0.499996 0.999910 0.118676 0.831797
Cu5   Cu    Cu3+1 0.955930 0.499910 0.044070 0.961777
Cu6   Cu    Cu3+1 0.044070 0.499910 0.955930 0.968930
Cu7   Cu    Cu3+1 0.455930 0.999910 0.044070 0.964660
Cu8   Cu    Cu3+1 0.544070 0.999910 0.955930 0.964374
O29   O     O_R   0.962770 0.564180 0.037230 -0.584804
O30   O     O_R   0.037230 0.564180 0.962770 -0.589652
O31   O     O_R   0.462770 0.064180 0.037230 -0.584567
O32   O     O_R   0.537230 0.064180 0.962770 -0.590451
H49   H     H_    0.477171 0.360338 0.116951 0.155412
H50   H     H_    0.522825 0.360533 0.883166 0.155501
H51   H     H_    0.977207 0.860426 0.117027 0.154098
H52   H     H_    0.022715 0.860442 0.883319 0.155565
C113  C     C_R   0.999954 0.585010 0.000058 0.782260
C114  C     C_R   0.499951 0.085011 0.999956 0.780865
O33   O     O_R   0.499950 0.435720 0.052230 -0.585624
O34   O     O_R   0.500050 0.435720 0.947770 -0.587085
O35   O     O_R   0.999950 0.935720 0.052230 -0.586781
O36   O     O_R   0.000050 0.935720 0.947770 -0.585532
C115  C     C_R   0.500006 0.366526 0.000065 -0.033621
C116  C     C_R   0.999972 0.866525 0.000162 -0.032993
C117  C     C_R   0.500007 0.414905 0.000035 0.787277
C118  C     C_R   0.999997 0.914905 0.000052 0.788468
O37   O     O_R   0.435710 0.499990 0.116480 -0.583708
O38   O     O_R   0.564290 0.499990 0.883520 -0.588698
O39   O     O_R   0.935710 0.999990 0.116480 -0.588131
O40   O     O_R   0.064290 0.999990 0.883520 -0.588566
O41   O     O_R   0.435700 0.499990 0.012100 -0.584561
O42   O     O_R   0.564300 0.499990 0.987900 -0.588117
O43   O     O_R   0.935700 0.999990 0.012100 -0.587905
O44   O     O_R   0.064300 0.999990 0.987900 -0.588137
C119  C     C_R   0.414978 0.500132 0.084920 0.787784
C120  C     C_R   0.585086 0.500149 0.914951 0.791139
C121  C     C_R   0.914875 0.000007 0.085054 0.791772
C122  C     C_R   0.085112 0.000062 0.914925 0.791608
Cu9   Cu    Cu3+1 0.499980 0.499990 0.061820 0.954018
Cu10  Cu    Cu3+1 0.500020 0.499990 0.938180 0.953331
Cu11  Cu    Cu3+1 0.999980 0.999990 0.061820 0.952923
Cu12  Cu    Cu3+1 0.000020 0.999990 0.938180 0.953387
C123  C     C_R   0.487249 0.343164 0.065611 -0.176292
C124  C     C_R   0.512709 0.343278 0.934509 -0.177863
C125  C     C_R   0.987256 0.843213 0.065733 -0.177049
C126  C     C_R   0.012634 0.843226 0.934676 -0.176816
O45   O     O_R   0.500010 0.564260 0.052180 -0.588071
O46   O     O_R   0.499990 0.564260 0.947820 -0.586572
O47   O     O_R   0.000010 0.064260 0.052180 -0.586148
O48   O     O_R   0.999990 0.064260 0.947820 -0.586990
C127  C     C_R   0.500001 0.585061 0.999940 0.786767
C128  C     C_R   0.000012 0.085060 0.999934 0.789497
C129  C     C_R   0.037586 0.297225 0.981532 -0.163110
C130  C     C_R   0.962862 0.297451 0.017109 -0.165620
C131  C     C_R   0.537571 0.797225 0.981464 -0.165517
C132  C     C_R   0.462949 0.797461 0.016558 -0.165771
H53   H     H_    0.066817 0.279711 0.967186 0.135793
H54   H     H_    0.933657 0.280118 0.031378 0.134267
H55   H     H_    0.566763 0.779708 0.967298 0.135497
H56   H     H_    0.433783 0.780132 0.030628 0.135089
C133  C     C_R   0.037673 0.343104 0.981099 -0.175462
C134  C     C_R   0.962682 0.343324 0.017849 -0.183661
C135  C     C_R   0.537655 0.843103 0.981070 -0.175834
C136  C     C_R   0.462762 0.843335 0.017345 -0.186025
H57   H     H_    0.066908 0.360256 0.967068 0.154512
H58   H     H_    0.933409 0.360647 0.031989 0.151462
H59   H     H_    0.566848 0.860251 0.967241 0.155688
H60   H     H_    0.433529 0.860666 0.031314 0.153419
C137  C     C_R   0.000143 0.366488 0.999605 -0.027196
C138  C     C_R   0.500162 0.866492 0.999404 -0.028488
H61   H     H_    0.066174 0.719834 0.898748 0.134949
H62   H     H_    0.933583 0.720031 0.101871 0.134880
H63   H     H_    0.566199 0.219824 0.898539 0.134477
H64   H     H_    0.433481 0.220056 0.101315 0.136521
C139  C     C_R   0.000239 0.274148 0.999284 0.098372
C140  C     C_R   0.500269 0.774153 0.998991 0.098023
C141  C     C_R   0.487084 0.702618 0.959731 -0.165687
C142  C     C_R   0.513306 0.702557 0.038864 -0.163710
C143  C     C_R   0.986960 0.202647 0.960067 -0.163548
C144  C     C_R   0.013439 0.202517 0.038819 -0.162897
H65   H     H_    0.477146 0.720065 0.928413 0.131769
H66   H     H_    0.523296 0.719960 0.070002 0.133609
H67   H     H_    0.976911 0.220123 0.928936 0.131629
H68   H     H_    0.023522 0.219892 0.069842 0.134075
C145  C     C_R   0.487308 0.656739 0.959521 -0.177647
C146  C     C_R   0.512896 0.656682 0.039634 -0.178581
C147  C     C_R   0.987204 0.156768 0.959761 -0.177140
C148  C     C_R   0.013046 0.156643 0.039501 -0.176399
H69   H     H_    0.477128 0.639544 0.928506 0.153128
H70   H     H_    0.523013 0.639443 0.070846 0.153047
H71   H     H_    0.976928 0.139597 0.928869 0.152346
H72   H     H_    0.023267 0.139376 0.070536 0.153277
C149  C     C_R   0.500055 0.633419 0.999721 -0.030168
C150  C     C_R   0.000081 0.133415 0.999737 -0.030078
C151  C     C_R   0.499879 0.274130 0.000037 0.095982
C152  C     C_R   0.999875 0.774126 0.000312 0.095726
O49   O     O_3   0.943030 0.441614 0.742909 -0.552643
C153  C     C_3   0.949478 0.396670 0.751621 0.119271
H73   H     H_    0.977755 0.389894 0.754846 0.115512
H74   H     H_    0.956533 0.378580 0.701361 0.166806
C154  C     C_3   0.907520 0.377924 0.821367 -0.807479
H75   H     H_    0.879201 0.384126 0.818514 0.273453
H76   H     H_    0.911270 0.341870 0.824481 0.198177
H77   H     H_    0.900656 0.393481 0.873327 0.236165
O50   O     O_3   0.963326 0.426530 0.347331 -0.573565
C155  C     C_3   0.919709 0.435560 0.410092 0.098602
H78   H     H_    0.913918 0.470614 0.428833 0.144766
H79   H     H_    0.913198 0.415780 0.458589 0.163386
C156  C     C_3   0.886809 0.421780 0.393716 -0.831793
H80   H     H_    0.892370 0.386856 0.375242 0.258225
H81   H     H_    0.852818 0.425434 0.445641 0.212510
H82   H     H_    0.890318 0.442886 0.348795 0.247258
O51   O     O_3   0.471320 0.923305 0.717736 -0.554852
C157  C     C_3   0.501043 0.887773 0.696732 0.083774
H83   H     H_    0.530613 0.895574 0.695697 0.122953
H84   H     H_    0.513399 0.877433 0.638568 0.163874
C158  C     C_3   0.477104 0.848971 0.749619 -0.821349
H85   H     H_    0.449493 0.838448 0.747300 0.250918
H86   H     H_    0.500218 0.820892 0.732261 0.207180
H87   H     H_    0.463974 0.858239 0.808536 0.243798
O52   O     O_3   0.441402 0.943885 0.373773 -0.569522
C159  C     C_3   0.397045 0.949365 0.400071 0.089607
H88   H     H_    0.390580 0.931432 0.362961 0.137702
H89   H     H_    0.388122 0.984775 0.403136 0.176881
C160  C     C_3   0.367431 0.930003 0.479093 -0.761275
H90   H     H_    0.373788 0.946378 0.517395 0.246752
H91   H     H_    0.332389 0.935015 0.501378 0.197381
H92   H     H_    0.373935 0.894176 0.477607 0.240753
N1    N     N_R   0.032778 0.605848 0.657414 0.156170
O53   O     O_R   0.051907 0.628316 0.595006 -0.325641
O54   O     O_R   0.994301 0.618306 0.715646 -0.332193
N2    N     N_R   0.074809 0.582685 0.238545 0.166257
O55   O     O_R   0.080526 0.607341 0.280985 -0.318140
O56   O     O_R   0.108043 0.560754 0.183242 -0.334764
N3    N     N_R   0.491200 0.111342 0.699023 0.158571
O57   O     O_R   0.501238 0.139607 0.646302 -0.320849
O58   O     O_R   0.450609 0.108500 0.758207 -0.332600
N4    N     N_R   0.602056 0.039591 0.211995 0.153127
O59   O     O_R   0.621395 0.060127 0.237565 -0.349166
O60   O     O_R   0.617587 0.001835 0.178183 -0.322298
O61   O     O_3   0.130857 0.497694 0.259906 -0.536230
C161  C     C_3   0.143406 0.460802 0.211719 0.085560
H93   H     H_    0.151949 0.431548 0.232065 0.119804
H94   H     H_    0.172050 0.469436 0.153760 0.157792
C162  C     C_3   0.105410 0.447572 0.208094 -0.720077
H95   H     H_    0.096428 0.475061 0.185803 0.275113
H96   H     H_    0.115098 0.418714 0.170193 0.190653
H97   H     H_    0.076394 0.438559 0.265334 0.248930
O62   O     O_3   0.865152 0.432386 0.691453 -0.539865
C163  C     C_3   0.860715 0.393205 0.661465 0.102811
H98   H     H_    0.868648 0.398594 0.603995 0.122132
H99   H     H_    0.826700 0.380082 0.699454 0.129351
C164  C     C_3   0.892478 0.358713 0.654513 -0.758403
H100  H     H_    0.884224 0.350625 0.711152 0.237932
H101  H     H_    0.890101 0.328262 0.628928 0.190176
H102  H     H_    0.926732 0.371227 0.618008 0.252196
O63   O     O_3   0.632970 0.951850 0.279894 -0.523786
C165  C     C_3   0.637806 0.906072 0.284166 0.074598
H103  H     H_    0.630670 0.896548 0.339844 0.129464
H104  H     H_    0.671628 0.895200 0.238025 0.135502
C166  C     C_3   0.605406 0.882135 0.275170 -0.713109
H105  H     H_    0.611938 0.890399 0.219722 0.261468
H106  H     H_    0.608882 0.846018 0.278122 0.181138
H107  H     H_    0.571216 0.892018 0.321010 0.256103
O64   O     O_3   0.366317 0.942247 0.708162 -0.550094
C167  C     C_3   0.362050 0.898450 0.691616 0.087652
H108  H     H_    0.370812 0.895476 0.633221 0.139540
H109  H     H_    0.327925 0.886348 0.732881 0.130211
C168  C     C_3   0.393152 0.869166 0.697151 -0.717745
H110  H     H_    0.384868 0.870913 0.755093 0.257854
H111  H     H_    0.390078 0.834534 0.684586 0.175485
H112  H     H_    0.427650 0.880108 0.655924 0.268617
N5    N     N_R   0.135442 0.495536 0.480871 0.104450
O65   O     O_R   0.099056 0.473629 0.523767 -0.406298
O66   O     O_R   0.155450 0.509594 0.509982 -0.382672
N6    N     N_R   0.865096 0.566214 0.563342 0.141736
O67   O     O_R   0.895435 0.554406 0.494191 -0.397769
O68   O     O_R   0.849906 0.606275 0.576149 -0.338016
N7    N     N_R   0.634340 0.048509 0.458898 0.130948
O69   O     O_R   0.601826 0.030308 0.520694 -0.431250
O70   O     O_R   0.650706 0.085065 0.463531 -0.347707
N8    N     N_R   0.365227 0.059077 0.552353 0.137374
O71   O     O_R   0.397993 0.044929 0.486602 -0.395261
O72   O     O_R   0.348535 0.097611 0.556809 -0.338994

loop_
_geom_bond_atom_site_label_1
_geom_bond_atom_site_label_2
_geom_bond_distance
_ccdc_geom_bond_type
C59   C63   1.408120 A    
C13   C151  1.402394 A    
C133  H57   1.083065 S    
C168  H110  1.110552 S    
C12   H44   1.083061 S    
C90   H34   1.082915 S    
O26   Cu5   1.971707 S    
C10   H42   1.083066 S    
C70   C74   1.398742 A    
O62   C163  1.413927 S    
C136  C138  1.403853 A    
C38   C110  1.433211 S    
C162  H95   1.109160 S    
C127  C149  1.468938 S    
C143  C147  1.393665 A    
C105  C142  1.402169 A    
C129  H53   1.083265 S    
C4    C64   1.468910 S    
C35   H3    1.082991 S    
O43   C121  1.299265 A    
C60   C64   1.410621 A    
O51   C157  1.418055 S    
C15   C152  1.402319 A    
C10   C18   1.394019 A    
C147  C150  1.404057 A    
C93   H37   1.082308 S    
H52   C126  1.083036 S    
C67   N7    1.437612 S    
O18   C107  1.296399 A    
C96   H40   1.083115 S    
O44   Cu11  1.966897 S    
C46   C50   1.546355 S    
N4    O59   1.300419 A    
O22   Cu6   1.972362 S    
C95   H39   1.083011 S    
O4    C4    1.294153 A    
C5    C25   1.444383 S    
C89   H33   1.083315 S    
C91   C95   1.393822 A    
C37   C109  1.438538 S    
C101  C113  1.468483 S    
C82   H30   1.082928 S    
C66   N6    1.437668 S    
C40   C112  1.440797 S    
C23   C51   1.495011 S    
C18   C103  1.402439 A    
O48   C128  1.298994 A    
C115  C124  1.404220 A    
N3    O57   1.300401 A    
C2    C62   1.473558 S    
C129  C133  1.393653 A    
C19   H63   1.083255 S    
C133  C137  1.403777 A    
C72   C76   1.399785 A    
O16   Cu4   1.971446 S    
C58   C62   1.414155 A    
O13   C5    1.288703 A    
O7    Cu4   1.964354 S    
O42   Cu9   1.966897 S    
O13   Cu3   1.972245 S    
O26   C110  1.287272 A    
O15   C7    1.287787 A    
O38   C120  1.299042 A    
Cu11  Cu12  2.687803 S    
C9    C101  1.403858 A    
N8    O72   1.301378 A    
Cu9   Cu10  2.687803 S    
C86   C120  1.469450 S    
C44   C48   1.490928 S    
C78   C98   1.402162 A    
O9    C5    1.290167 A    
C30   C34   1.411756 A    
C48   H12   1.111458 S    
C115  C123  1.404094 A    
C81   H29   1.083319 S    
C168  H112  1.110892 S    
O8    Cu4   1.963220 S    
C74   C98   1.470083 S    
Cu11  O47   1.963054 S    
C82   C86   1.404222 A    
C79   H27   1.083039 S    
C162  H97   1.110029 S    
C68   N8    1.438786 S    
O19   Cu7   1.962543 S    
C153  C154  1.523675 S    
C106  C143  1.402137 A    
O3    Cu2   1.964425 S    
C49   N1    1.463102 S    
C17   H61   1.083256 S    
C54   C58   1.398059 A    
O11   Cu2   1.971439 S    
C18   H62   1.083244 S    
C116  C126  1.404146 A    
C88   C122  1.470959 S    
C153  H74   1.110249 S    
C155  H78   1.115546 S    
C148  C150  1.404022 A    
C30   O50   1.384067 S    
C29   C33   1.421127 A    
C80   C100  1.402702 A    
C31   C35   1.416026 A    
C46   H10   1.111526 S    
O3    C3    1.293554 A    
Cu7   Cu8   2.679645 S    
C37   C41   1.382136 A    
C28   C32   1.418090 A    
C81   C85   1.400347 A    
C75   C99   1.474883 S    
Cu5   Cu6   2.679645 S    
C129  C139  1.402240 A    
C53   C57   1.404331 A    
C76   C100  1.472318 S    
C21   C25   1.386248 A    
C63   C67   1.413895 A    
O22   C110  1.288492 A    
C23   C27   1.389680 A    
O17   Cu5   1.962543 S    
C24   C28   1.384411 A    
C57   O61   1.388191 S    
O34   C117  1.298696 A    
C45   H5    1.111914 S    
C47   H7    1.111849 S    
N8    O71   1.300982 A    
C52   N4    1.463396 S    
O5    C1    1.290341 A    
O38   Cu10  1.964771 S    
C79   C99   1.403907 A    
C40   C44   1.382902 A    
C51   N3    1.463182 S    
C135  C138  1.403766 A    
C22   C26   1.388495 A    
C41   C45   1.489976 S    
C160  H91   1.110481 S    
C16   C126  1.393755 A    
C56   H20   1.083073 S    
N6    O67   1.301353 A    
C80   C84   1.392446 A    
C71   C75   1.400998 A    
C24   C52   1.490637 S    
O5    Cu3   1.964354 S    
C33   C37   1.408898 A    
C144  H68   1.083275 S    
C158  H86   1.110417 S    
C35   C39   1.403508 A    
O43   Cu12  1.966897 S    
C36   C40   1.410907 A    
O41   Cu10  1.966897 S    
C70   H22   1.083566 S    
O8    C4    1.294207 A    
C158  H87   1.109800 S    
C128  C150  1.468873 S    
C156  H81   1.110454 S    
C143  H67   1.083277 S    
C50   N2    1.463318 S    
O7    C3    1.292850 A    
Cu7   O31   1.963912 S    
C164  H101  1.110414 S    
C157  H84   1.110751 S    
C7    C27   1.452211 S    
C38   C42   1.381837 A    
C8    C28   1.441944 S    
C148  H72   1.083040 S    
C31   O51   1.385032 S    
O20   Cu8   1.963679 S    
N3    O58   1.302241 A    
N2    O56   1.301553 A    
C77   H25   1.082356 S    
O50   C155  1.416724 S    
C165  H104  1.112429 S    
C84   H32   1.082885 S    
C144  C148  1.393581 A    
C154  H75   1.110441 S    
O15   Cu4   1.972245 S    
C49   H13   1.110282 S    
C132  C140  1.402186 A    
C51   H15   1.111638 S    
C53   C73   1.403705 A    
C166  H107  1.110918 S    
C163  H99   1.112749 S    
C55   C75   1.401013 A    
C72   H24   1.083392 S    
C165  C166  1.520892 S    
C141  C145  1.393635 A    
C65   C69   1.400153 A    
O14   C6    1.288363 A    
C67   C71   1.398503 A    
C104  C151  1.470256 S    
O25   C109  1.289854 A    
C163  C164  1.520528 S    
C42   C46   1.489730 S    
C15   H47   1.083259 S    
C105  C141  1.402071 A    
O46   C127  1.298924 A    
O28   C112  1.287924 A    
O10   C6    1.292637 A    
C56   C76   1.398598 A    
C48   H8    1.111619 S    
O34   Cu10  1.963072 S    
Cu6   O30   1.962779 S    
C93   C97   1.406637 A    
O40   C122  1.299402 A    
O37   Cu9   1.964777 S    
C53   H17   1.081920 S    
C83   C87   1.403760 A    
C55   H19   1.082781 S    
C59   O63   1.384192 S    
H49   C123  1.083028 S    
C23   C43   1.349726 A    
C167  H108  1.115859 S    
O47   C128  1.298896 A    
N4    O60   1.302207 A    
C55   C59   1.400591 A    
C13   C123  1.394104 A    
O39   C121  1.300226 A    
C134  H58   1.083095 S    
C16   H48   1.083275 S    
O27   Cu8   1.971701 S    
O29   C113  1.297031 A    
O25   Cu6   1.971701 S    
O64   C167  1.412346 S    
C107  C137  1.468167 S    
C69   C73   1.402945 A    
C17   C103  1.402337 A    
N5    O66   1.301745 A    
C130  H54   1.083267 S    
C161  H94   1.111672 S    
C54   C74   1.397288 A    
C24   C44   1.349011 A    
C66   C70   1.398623 A    
C60   O64   1.384019 S    
C154  H77   1.109254 S    
O61   C161  1.415617 S    
C19   C104  1.402361 A    
N1    O54   1.302265 A    
C141  H65   1.083290 S    
O40   Cu12  1.964771 S    
O21   C109  1.288342 A    
O28   Cu7   1.971707 S    
C161  C162  1.521812 S    
O23   Cu7   1.972365 S    
O24   C112  1.291298 A    
C45   C49   1.544641 S    
C15   C125  1.394053 A    
O21   Cu5   1.972365 S    
C134  C137  1.403906 A    
Cu8   O32   1.962779 S    
C80   H28   1.083184 S    
C108  C138  1.468113 S    
C11   C102  1.403861 A    
C168  H111  1.110366 S    
C14   C151  1.402132 A    
C102  C114  1.468563 S    
O30   C113  1.296413 A    
C146  C149  1.403988 A    
C54   H18   1.083395 S    
C159  H89   1.115603 S    
C162  H96   1.110328 S    
C166  H105  1.110788 S    
O12   Cu2   1.972248 S    
C22   C50   1.493048 S    
C106  C144  1.402113 A    
C130  C134  1.393525 A    
O1    C1    1.293964 A    
C155  C156  1.524669 S    
C86   C90   1.404469 A    
C33   H1    1.082051 S    
C27   C31   1.425691 A    
C34   C38   1.406081 A    
C164  H100  1.109305 S    
O31   C114  1.296958 A    
C145  H69   1.083035 S    
C68   C72   1.399044 A    
O37   C119  1.299278 A    
C147  H71   1.083041 S    
C9    H41   1.083114 S    
O49   C153  1.416892 S    
C135  H59   1.083066 S    
C25   C29   1.418664 A    
O36   Cu12  1.963072 S    
N7    O70   1.301359 A    
O33   Cu9   1.963885 S    
C6    C26   1.449213 S    
C116  C118  1.469634 S    
C131  H55   1.083260 S    
O17   C107  1.295980 A    
C13   H45   1.083258 S    
C64   C68   1.417166 A    
C14   H46   1.083278 S    
H50   C124  1.083037 S    
C85   C89   1.401756 A    
C159  H88   1.111435 S    
C94   C98   1.402318 A    
C79   C83   1.392822 A    
O45   C127  1.299004 A    
C14   C124  1.393702 A    
C88   C92   1.404647 A    
C77   C81   1.393876 A    
O6    C2    1.294189 A    
O20   C108  1.296318 A    
C84   C88   1.404417 A    
C85   C119  1.465750 S    
O35   C118  1.299112 A    
C87   C121  1.471717 S    
C145  C149  1.404140 A    
C90   C94   1.393177 A    
C131  C135  1.393614 A    
O24   Cu8   1.972362 S    
C161  H93   1.117073 S    
C160  H90   1.108938 S    
C142  C146  1.393616 A    
C39   C111  1.429820 S    
N6    O68   1.301327 A    
O2    Cu1   1.965566 S    
C43   C47   1.488390 S    
O10   Cu1   1.972248 S    
C45   H9    1.111280 S    
O41   C119  1.297161 A    
C36   H4    1.082314 S    
C92   C96   1.393404 A    
C158  H85   1.109533 S    
C9    C17   1.393676 A    
C10   C101  1.403789 A    
O18   Cu6   1.963679 S    
C65   N5    1.441361 S    
C159  C160  1.521282 S    
C155  H79   1.110368 S    
C96   C100  1.402835 A    
C46   H6    1.111292 S    
C156  H80   1.110512 S    
N7    O69   1.300700 A    
C92   H36   1.082874 S    
C116  C125  1.404174 A    
C89   C93   1.394361 A    
O52   C159  1.413314 S    
C91   H35   1.082879 S    
C157  C158  1.522647 S    
C29   O49   1.387437 S    
H51   C125  1.083033 S    
C83   H31   1.082899 S    
C153  H73   1.116864 S    
C58   O62   1.384300 S    
O44   C122  1.299719 A    
O33   C117  1.299245 A    
C95   C99   1.403074 A    
C32   O52   1.388581 S    
O39   Cu11  1.964777 S    
C20   H64   1.083251 S    
C47   H11   1.111309 S    
O16   C8    1.286775 A    
C130  C139  1.402156 A    
C52   H16   1.112499 S    
O27   C111  1.287382 A    
C69   H21   1.082296 S    
C103  C152  1.470301 S    
C136  H60   1.083080 S    
O11   C7    1.295130 A    
O12   C8    1.290654 A    
C77   C97   1.407785 A    
O1    Cu1   1.964425 S    
O9    Cu1   1.971439 S    
C87   C91   1.405032 A    
C61   C65   1.414782 A    
C39   C43   1.379913 A    
O4    Cu2   1.965566 S    
C20   C104  1.402363 A    
C73   C97   1.483972 S    
C11   H43   1.083100 S    
C16   C152  1.402238 A    
C142  H66   1.083270 S    
C160  H92   1.110709 S    
C21   C41   1.349311 A    
O36   C118  1.298842 A    
C21   C49   1.492288 S    
C105  C140  1.469479 S    
C12   C102  1.403831 A    
C106  C139  1.469477 S    
C78   H26   1.083235 S    
O6    Cu3   1.963220 S    
O19   C108  1.296035 A    
C132  H56   1.083259 S    
C48   C52   1.545543 S    
O35   Cu11  1.963885 S    
C50   H14   1.112674 S    
C1    C61   1.461383 S    
C115  C117  1.469611 S    
C167  H109  1.112653 S    
C156  H82   1.109892 S    
Cu12  O48   1.963857 S    
C131  C140  1.402218 A    
O2    C2    1.296843 A    
O42   C120  1.299329 A    
C56   C60   1.398955 A    
C34   H2    1.083708 S    
C164  H102  1.110688 S    
C157  H83   1.117789 S    
O32   C114  1.296525 A    
C132  C136  1.393559 A    
C146  H70   1.083035 S    
O14   Cu3   1.971446 S    
O23   C111  1.286786 A    
C3    C63   1.465522 S    
Cu1   Cu3   2.675875 S    
C167  C168  1.520026 S    
Cu9   O45   1.963054 S    
N5    O65   1.300269 A    
C26   C30   1.426300 A    
Cu2   Cu4   2.675875 S    
N2    O55   1.300386 A    
C47   C51   1.544133 S    
C165  H103  1.115750 S    
Cu5   O29   1.963912 S    
C154  H76   1.110586 S    
C11   C19   1.393747 A    
C62   C66   1.418211 A    
C12   C20   1.393960 A    
N1    O53   1.300420 A    
Cu10  O46   1.963857 S    
C166  H106  1.110427 S    
C163  H98   1.116121 S    
C94   H38   1.083220 S    
C22   C42   1.349932 A    
C71   H23   1.083266 S    
O63   C165  1.411500 S    
C78   C82   1.392083 A    
C57   C61   1.405317 A    
C32   C36   1.422487 A    
