data_mof_unit_7097.cif
_audit_creation_date              2012-12-10T20:51:45-0500
_audit_creation_method            fapswitch 2.2
_symmetry_space_group_name_H-M    P1
_symmetry_Int_Tables_number       1
_space_group_crystal_system       triclinic
_cell_length_a                    8.098344
_cell_length_b                    8.937457
_cell_length_c                    16.747398
_cell_angle_alpha                 89.52743
_cell_angle_beta                  92.658379
_cell_angle_gamma                 89.999155
_cell_volume                      1210.80747871

loop_
_atom_site_label
_atom_site_type_symbol
_atom_type_description
_atom_site_fract_x
_atom_site_fract_y
_atom_site_fract_z
_atom_type_partial_charge
C1    C     C_R   0.499975 0.217950 0.500004 0.942540
C2    C     C_R   0.632693 0.551152 0.139287 0.193720
C3    C     C_R   0.519049 0.433346 0.904845 0.272285
C4    C     C_R   0.480951 0.566657 0.095155 0.272284
C5    C     C_R   0.668467 0.429477 0.866493 -0.232318
C6    C     C_R   0.331533 0.570526 0.133507 -0.232318
C7    C     C_R   0.670106 0.451431 0.784410 -0.218965
C8    C     C_R   0.329894 0.548571 0.215590 -0.218964
C9    C     C_1   0.499986 0.065173 0.500002 -0.195117
C10   C     C_1   0.500013 0.934826 0.499998 -0.195117
C11   C     C_3   0.797927 0.556957 0.100500 -0.426433
C12   C     C_R   0.500024 0.782050 0.499996 0.942540
C13   C     C_3   0.878722 0.402529 0.099646 -0.864200
C14   C     C_3   0.202073 0.443045 0.899500 -0.426434
C15   C     C_3   0.121278 0.597473 0.900353 -0.864200
C16   C     C_R   0.518304 0.494549 0.654052 0.877350
C17   C     C_R   0.481696 0.505451 0.345948 0.877350
C18   C     C_R   0.521085 0.474661 0.740377 -0.074194
C19   C     C_R   0.478915 0.525339 0.259623 -0.074193
C20   C     C_R   0.370362 0.469971 0.778530 -0.238242
C21   C     C_R   0.629638 0.530029 0.221470 -0.238242
C22   C     C_R   0.367307 0.448850 0.860713 0.193720
H1    H     H_    0.746013 0.516983 0.255449 0.171783
H2    H     H_    0.784680 0.600707 0.038305 0.218483
H3    H     H_    0.881384 0.635683 0.133884 0.196584
H4    H     H_    0.205706 0.679951 0.930028 0.274180
H5    H     H_    0.088829 0.636370 0.838459 0.257868
H6    H     H_    0.006491 0.591837 0.933885 0.243155
H7    H     H_    0.118616 0.364318 0.866116 0.196584
H8    H     H_    0.215320 0.399296 0.961695 0.218483
H9    H     H_    0.253987 0.483017 0.744550 0.171783
H10   H     H_    0.783966 0.415763 0.900947 0.158994
H11   H     H_    0.216034 0.584240 0.099053 0.158993
H12   H     H_    0.787233 0.451324 0.755690 0.169612
H13   H     H_    0.212766 0.548678 0.244311 0.169611
H14   H     H_    0.794293 0.320051 0.069971 0.274180
H15   H     H_    0.993509 0.408165 0.066115 0.243155
H16   H     H_    0.911171 0.363631 0.161540 0.257868
N1    N     N_1   0.073640 0.500030 0.499990 -0.038674
N2    N     N_1   0.926360 0.499970 0.500010 -0.038674
N3    N     N_2   0.525443 0.438640 0.988289 -0.196137
N4    N     N_2   0.474557 0.561364 0.011711 -0.196137
O1    O     O_R   0.636850 0.285340 0.500000 -0.613657
O2    O     O_R   0.363150 0.714660 0.500000 -0.613657
O3    O     O_R   0.363100 0.285350 0.500000 -0.613337
O4    O     O_R   0.636900 0.714650 0.500000 -0.613337
O5    O     O_R   0.652140 0.498630 0.616140 -0.620792
O6    O     O_R   0.347860 0.501370 0.383860 -0.620792
O7    O     O_R   0.378390 0.498650 0.616130 -0.626498
O8    O     O_R   0.621610 0.501350 0.383870 -0.626498
Zn1   Zn    Zn3+2 0.682780 0.499990 0.500010 0.982010
Zn2   Zn    Zn3+2 0.317220 0.500010 0.499990 0.982009

loop_
_geom_bond_atom_site_label_1
_geom_bond_atom_site_label_2
_ccdc_geom_bond_type
C17   O8    A    
C2    C4    A    
C17   O6    A    
O2    Zn2   S    
N2    Zn1   S    
C9    C10   T    
C8    H13   S    
C13   H15   S    
C6    H11   S    
C7    C18   A    
C1    O3    A    
O7    Zn2   S    
C2    C21   A    
N1    Zn2   S    
C15   H6    S    
C12   O2    A    
C11   C13   S    
O1    Zn1   S    
C13   H16   S    
C4    N4    S    
C14   H8    S    
C2    C11   S    
C10   C12   S    
C16   O5    A    
C12   O4    A    
C17   C19   S    
C20   C22   A    
O8    Zn1   S    
C18   C20   A    
C21   H1    S    
C14   C22   S    
C7    H12   S    
C8    C19   A    
C11   H3    S    
C14   H7    S    
C3    C5    A    
C11   H2    S    
O6    Zn2   S    
C1    C9    S    
C16   O7    A    
C13   H14   S    
C16   C18   S    
C4    C6    A    
N3    N4    D    
N1    N2    T    
C5    C7    A    
C14   C15   S    
C3    N3    S    
C3    C22   A    
C6    C8    A    
O3    Zn2   S    
C19   C21   A    
C15   H5    S    
O4    Zn1   S    
C1    O1    A    
C5    H10   S    
O5    Zn1   S    
C15   H4    S    
C20   H9    S    
