data_mof_unit_65166.cif
_audit_creation_date              2012-12-10T18:04:24-0500
_audit_creation_method            fapswitch 2.2
_symmetry_space_group_name_H-M    P1
_symmetry_Int_Tables_number       1
_space_group_crystal_system       triclinic
_cell_length_a                    31.615725
_cell_length_b                    18.332765
_cell_length_c                    25.72765
_cell_angle_alpha                 90.000171
_cell_angle_beta                  144.529067
_cell_angle_gamma                 90.000022
_cell_volume                      8653.18967774

loop_
_atom_site_label
_atom_site_type_symbol
_atom_type_description
_atom_site_fract_x
_atom_site_fract_y
_atom_site_fract_z
_atom_type_partial_charge
C1    C     C_R   0.859881 0.640122 0.109920 0.505439
C2    C     C_R   0.196238 0.303718 0.446298 0.039062
C3    C     C_R   0.309558 0.743933 0.593224 -0.136907
C4    C     C_R   0.196301 0.696226 0.446290 0.039764
C5    C     C_R   0.803703 0.303770 0.553710 0.040148
C6    C     C_R   0.303699 0.196226 0.553710 0.039764
C7    C     C_R   0.696297 0.803770 0.446290 0.040147
C8    C     C_R   0.696245 0.196276 0.446298 0.040067
C9    C     C_R   0.303762 0.803719 0.553702 0.039065
C10   C     C_R   0.743844 0.690312 0.027379 -0.137755
C11   C     C_R   0.256153 0.309686 0.972617 -0.137674
C12   C     C_R   0.256176 0.690293 0.972666 -0.135664
C13   C     C_R   0.140118 0.359878 0.890080 0.504737
C14   C     C_R   0.743825 0.309705 0.027338 -0.136559
C15   C     C_R   0.243823 0.190293 0.027332 -0.135663
C16   C     C_R   0.756176 0.809706 0.972665 -0.136556
C17   C     C_R   0.756154 0.190313 0.972619 -0.137757
C18   C     C_R   0.243847 0.809686 0.027384 -0.137674
C19   C     C_R   0.190363 0.243741 0.973859 -0.136491
C20   C     C_R   0.809636 0.756258 0.026138 -0.136900
C21   C     C_R   0.809616 0.243760 0.026096 -0.137684
C22   C     C_R   0.190385 0.756238 0.973908 -0.137434
C23   C     C_R   0.690383 0.743760 0.973902 -0.137683
C24   C     C_R   0.140123 0.640118 0.890090 0.506703
C25   C     C_R   0.309615 0.256238 0.026093 -0.137435
C26   C     C_R   0.309636 0.743741 0.026139 -0.136492
C27   C     C_R   0.690365 0.256257 0.973864 -0.136902
C28   C     C_R   0.196248 0.303722 0.946225 0.039969
C29   C     C_R   0.803750 0.696277 0.053772 0.040010
C30   C     C_R   0.803736 0.303736 0.053742 0.039888
C31   C     C_R   0.196265 0.696263 0.946261 0.040000
C32   C     C_R   0.696264 0.803736 0.946259 0.039886
C33   C     C_R   0.303735 0.196262 0.053738 0.039998
C34   C     C_R   0.303752 0.803722 0.053775 0.039969
C35   C     C_R   0.859878 0.359882 0.109911 0.505300
C36   C     C_R   0.696250 0.196277 0.946228 0.040010
C37   C     C_R   0.054984 0.459908 0.528942 0.084470
C38   C     C_R   0.945035 0.538842 0.470993 0.075741
C39   C     C_R   0.554875 0.038970 0.528915 0.075763
C40   C     C_R   0.445108 0.959786 0.471151 0.084498
C41   C     C_R   0.054266 0.462580 0.581973 -0.146676
C42   C     C_R   0.945738 0.536509 0.418093 -0.156646
C43   C     C_R   0.554169 0.036650 0.581814 -0.156618
C44   C     C_R   0.445821 0.962453 0.418114 -0.146645
C45   C     C_R   0.999585 0.501359 0.552945 0.063246
C46   C     C_R   0.359877 0.140118 0.109910 0.506702
C47   C     C_R   0.000405 0.497833 0.447042 0.054555
C48   C     C_R   0.499595 0.997844 0.552958 0.054588
C49   C     C_R   0.500416 0.001354 0.447054 0.063280
C50   C     C_R   0.140118 0.359886 0.390165 0.503842
C51   C     C_R   0.859879 0.640111 0.609835 0.507088
C52   C     C_R   0.859864 0.359902 0.609837 0.504026
C53   C     C_R   0.140137 0.640097 0.390163 0.504741
C54   C     C_R   0.640136 0.859902 0.390163 0.504025
C55   C     C_R   0.359863 0.140098 0.609837 0.504737
C56   C     C_R   0.359882 0.859887 0.609835 0.503852
C57   C     C_R   0.640122 0.859882 0.890089 0.505298
C58   C     C_R   0.640121 0.140111 0.390165 0.507092
C59   C     C_R   0.000116 0.498887 0.391312 0.520193
C60   C     C_R   0.999885 0.500984 0.608685 0.535037
C61   C     C_R   0.500115 0.000981 0.391315 0.535056
C62   C     C_R   0.499884 0.998893 0.608689 0.520186
C63   C     C_R   0.999990 0.500058 0.108315 0.506275
C64   C     C_R   0.000010 0.499941 0.891685 0.506104
C65   C     C_R   0.499989 0.999941 0.108314 0.506106
C66   C     C_R   0.500011 0.000059 0.891685 0.506278
C67   C     C_3   0.000003 0.569258 0.016990 -0.108244
C68   C     C_R   0.640118 0.140122 0.890080 0.505433
C69   C     C_3   0.999997 0.430742 0.983010 -0.108010
C70   C     C_3   0.940173 0.534461 0.922736 -0.123616
C71   C     C_3   0.059828 0.465539 0.077265 -0.123389
C72   C     C_3   0.559825 0.034466 0.077262 -0.123616
C73   C     C_3   0.440175 0.965534 0.922737 -0.123388
C74   C     C_3   0.499993 0.069258 0.983006 -0.108248
C75   C     C_3   0.500007 0.930742 0.016993 -0.108012
C76   C     C_3   0.059837 0.534454 0.042502 -0.123657
C77   C     C_3   0.940163 0.465546 0.957498 -0.123716
C78   C     C_3   0.559838 0.965550 0.042504 -0.123717
C79   C     C_R   0.359882 0.859878 0.109920 0.504734
C80   C     C_3   0.440161 0.034449 0.957496 -0.123659
C81   C     C_3   0.000007 0.499719 0.949078 0.063940
C82   C     C_3   0.999993 0.500281 0.050922 0.063823
C83   C     C_3   0.500007 0.000281 0.949079 0.063825
C84   C     C_3   0.499993 0.999718 0.050921 0.063943
C85   C     C_R   0.256024 0.309455 0.539809 -0.136378
C86   C     C_R   0.743952 0.690521 0.460191 -0.135264
C87   C     C_R   0.743879 0.309542 0.460199 -0.136557
C88   C     C_R   0.256112 0.690468 0.539801 -0.135715
C89   C     C_R   0.756121 0.809542 0.539801 -0.136554
C90   C     C_R   0.803755 0.696276 0.553702 0.040066
C91   C     C_R   0.243888 0.190468 0.460199 -0.135717
C92   C     C_R   0.243976 0.809455 0.460191 -0.136362
C93   C     C_R   0.756048 0.190522 0.539809 -0.135262
C94   C     C_R   0.809566 0.756077 0.593224 -0.137166
C95   C     C_R   0.190442 0.243932 0.406776 -0.136905
C96   C     C_R   0.190523 0.755994 0.406767 -0.137232
C97   C     C_R   0.809499 0.243984 0.593234 -0.137142
C98   C     C_R   0.309477 0.255995 0.593233 -0.137235
C99   C     C_R   0.690500 0.743983 0.406766 -0.137143
C100  C     C_R   0.690434 0.256076 0.406776 -0.137170
H1    H     H_    0.108940 0.562739 0.076498 0.113068
H2    H     H_    0.391081 0.937242 0.858449 0.113966
H3    H     H_    0.499987 0.126213 0.968347 0.126828
H4    H     H_    0.500013 0.873787 0.031652 0.127054
H5    H     H_    0.261574 0.355147 0.571759 0.142176
H6    H     H_    0.738387 0.644815 0.428240 0.140197
H7    H     H_    0.738302 0.355256 0.428246 0.138587
H8    H     H_    0.261675 0.644767 0.571754 0.140986
H9    H     H_    0.761698 0.855257 0.571754 0.138594
H10   H     H_    0.238324 0.144767 0.428246 0.140981
H11   H     H_    0.238426 0.855147 0.428241 0.142190
H12   H     H_    0.891060 0.437261 0.923502 0.113058
H13   H     H_    0.761612 0.144816 0.571760 0.140198
H14   H     H_    0.855300 0.761623 0.665323 0.137799
H15   H     H_    0.144722 0.238399 0.334677 0.138468
H16   H     H_    0.144802 0.761526 0.334668 0.137821
H17   H     H_    0.855233 0.238439 0.665332 0.137320
H18   H     H_    0.355197 0.261527 0.665332 0.137815
H19   H     H_    0.644767 0.738438 0.334667 0.137317
H20   H     H_    0.644700 0.261622 0.334677 0.137796
H21   H     H_    0.355278 0.738400 0.665323 0.138468
H22   H     H_    0.738200 0.644446 0.047960 0.136743
H23   H     H_    0.608945 0.937269 0.076504 0.113057
H24   H     H_    0.261797 0.355552 0.952034 0.137133
H25   H     H_    0.261823 0.644424 0.952089 0.139055
H26   H     H_    0.738180 0.355574 0.047915 0.138110
H27   H     H_    0.238176 0.144424 0.047909 0.139060
H28   H     H_    0.761823 0.855575 0.952089 0.138116
H29   H     H_    0.761797 0.144447 0.952036 0.136750
H30   H     H_    0.238204 0.855552 0.047967 0.137143
H31   H     H_    0.144556 0.238035 0.954263 0.137685
H32   H     H_    0.855443 0.761964 0.045735 0.137365
H33   H     H_    0.855422 0.238055 0.045691 0.137372
H34   H     H_    0.391055 0.062731 0.923495 0.113065
H35   H     H_    0.144579 0.761943 0.954313 0.137462
H36   H     H_    0.644576 0.738054 0.954306 0.137370
H37   H     H_    0.355421 0.261943 0.045688 0.137457
H38   H     H_    0.355443 0.738035 0.045735 0.137683
H39   H     H_    0.644559 0.261963 0.954268 0.137362
H40   H     H_    0.095316 0.433111 0.644936 0.125112
H41   H     H_    0.904425 0.566188 0.355247 0.129274
H42   H     H_    0.595405 0.066433 0.644586 0.129184
H43   H     H_    0.404840 0.932890 0.355218 0.125028
H44   H     H_    0.083063 0.373050 0.513308 0.222747
H45   H     H_    0.000004 0.626213 0.031646 0.126832
H46   H     H_    0.147577 0.396633 0.620879 0.218060
H47   H     H_    0.839334 0.560763 0.380814 0.230427
H48   H     H_    0.894176 0.634812 0.433643 0.221465
H49   H     H_    0.660527 0.061240 0.619103 0.230415
H50   H     H_    0.605406 0.135086 0.565873 0.221483
H51   H     H_    0.417244 0.872891 0.487034 0.222716
H52   H     H_    0.352690 0.896254 0.379394 0.218078
H53   H     H_    0.999996 0.373787 0.968354 0.127055
H54   H     H_    0.891077 0.562752 0.858447 0.113374
H55   H     H_    0.108923 0.437248 0.141553 0.113963
H56   H     H_    0.608919 0.062758 0.141551 0.113375
N1    N     N_3   0.109380 0.417766 0.556506 -0.587566
N2    N     N_3   0.890482 0.580835 0.442820 -0.596837
N3    N     N_3   0.609321 0.081099 0.556977 -0.596916
N4    N     N_3   0.390813 0.917519 0.443694 -0.587618
O1    O     O_3   0.999990 0.500000 0.250040 -0.440113
O2    O     O_R   0.585480 0.853830 0.866170 -0.549789
O3    O     O_R   0.585480 0.146170 0.866170 -0.549429
O4    O     O_R   0.414520 0.853830 0.133830 -0.549637
O5    O     O_R   0.085470 0.353820 0.304740 -0.550545
O6    O     O_R   0.914530 0.646180 0.695260 -0.550392
O7    O     O_R   0.914530 0.353820 0.695260 -0.550357
O8    O     O_R   0.085470 0.646180 0.304740 -0.550389
O9    O     O_R   0.585470 0.853820 0.304740 -0.550358
O10   O     O_R   0.414530 0.146180 0.695260 -0.550390
O11   O     O_R   0.414530 0.853820 0.695260 -0.550549
O12   O     O_3   0.000010 0.500000 0.749960 -0.440440
O13   O     O_R   0.585470 0.146180 0.304740 -0.550394
O14   O     O_R   0.853810 0.414550 0.134600 -0.548535
O15   O     O_R   0.146190 0.585450 0.865400 -0.547183
O16   O     O_R   0.146190 0.414550 0.865400 -0.551076
O17   O     O_R   0.853810 0.585450 0.134600 -0.550269
O18   O     O_R   0.353810 0.914550 0.134600 -0.551076
O19   O     O_R   0.646190 0.085450 0.865400 -0.550269
O20   O     O_R   0.646190 0.914550 0.865400 -0.548530
O21   O     O_R   0.353810 0.085450 0.134600 -0.547177
O22   O     O_R   0.146170 0.585430 0.426970 -0.547248
O23   O     O_3   0.499990 0.000000 0.250040 -0.440444
O24   O     O_R   0.853830 0.414570 0.573030 -0.550584
O25   O     O_R   0.853830 0.585430 0.573030 -0.542773
O26   O     O_R   0.146170 0.414570 0.426970 -0.544599
O27   O     O_R   0.646170 0.085430 0.426970 -0.542770
O28   O     O_R   0.353830 0.914570 0.573030 -0.544580
O29   O     O_R   0.353830 0.085430 0.573030 -0.547262
O30   O     O_R   0.646170 0.914570 0.426970 -0.550585
O31   O     O_R   0.939250 0.500000 0.306600 -0.560841
O32   O     O_R   0.060750 0.500000 0.693400 -0.559722
O33   O     O_R   0.439250 0.000000 0.306600 -0.559677
O34   O     O_3   0.500010 0.000000 0.749960 -0.440115
O35   O     O_R   0.560750 0.000000 0.693400 -0.560803
O36   O     O_R   0.999990 0.560720 0.132740 -0.547877
O37   O     O_R   0.000010 0.439280 0.867260 -0.547770
O38   O     O_R   0.000010 0.560720 0.867260 -0.544335
O39   O     O_R   0.999990 0.439280 0.132740 -0.543747
O40   O     O_R   0.499990 0.060720 0.132740 -0.544337
O41   O     O_R   0.500010 0.939280 0.867260 -0.543747
O42   O     O_R   0.500010 0.060720 0.867260 -0.547879
O43   O     O_R   0.499990 0.939280 0.132740 -0.547771
O44   O     O_R   0.060720 0.500000 0.428060 -0.505675
O45   O     O_R   0.914520 0.646170 0.133830 -0.549426
O46   O     O_R   0.939280 0.500000 0.571940 -0.507223
O47   O     O_R   0.560720 0.000000 0.428060 -0.507261
O48   O     O_R   0.439280 0.000000 0.571940 -0.505711
O49   O     O_R   0.085480 0.353830 0.866170 -0.549634
O50   O     O_R   0.085480 0.646170 0.866170 -0.549526
O51   O     O_R   0.914520 0.353830 0.133830 -0.549789
O52   O     O_R   0.414520 0.146170 0.133830 -0.549527
Zn1   Zn    Zn3+2 0.000000 0.413230 0.206100 0.928805
Zn2   Zn    Zn3+2 0.086780 0.500000 0.792790 0.930053
Zn3   Zn    Zn3+2 0.413220 1.000000 0.207210 0.930076
Zn4   Zn    Zn3+2 0.586780 0.000000 0.792790 0.925647
Zn5   Zn    Zn3+2 0.086760 0.500000 0.380740 0.947373
Zn6   Zn    Zn3+2 0.913240 0.500000 0.619260 0.946867
Zn7   Zn    Zn3+2 0.586760 0.000000 0.380740 0.946874
Zn8   Zn    Zn3+2 0.413240 0.000000 0.619260 0.947373
Zn9   Zn    Zn3+2 1.000000 0.586770 0.793900 0.931097
Zn10  Zn    Zn3+2 1.000000 0.413230 0.793900 0.926611
Zn11  Zn    Zn3+2 0.000000 0.586770 0.206100 0.927661
Zn12  Zn    Zn3+2 0.500000 0.913230 0.206100 0.926605
Zn13  Zn    Zn3+2 0.500000 0.086770 0.793900 0.927651
Zn14  Zn    Zn3+2 0.500000 0.913230 0.793900 0.928807
Zn15  Zn    Zn3+2 0.500000 0.086770 0.206100 0.931096
Zn16  Zn    Zn3+2 0.913220 0.500000 0.207210 0.925634

loop_
_geom_bond_atom_site_label_1
_geom_bond_atom_site_label_2
_ccdc_geom_bond_type
C44   C49   A    
O48   Zn8   S    
C13   O16   A    
H52   N4    S    
C45   C60   S    
O31   Zn16  S    
C72   H56   S    
O1    Zn5   S    
C4    C53   S    
C59   O31   A    
C11   H24   S    
C74   C83   S    
C80   C84   S    
O30   Zn7   S    
C94   H14   S    
C66   O41   A    
H46   N1    S    
O27   Zn7   S    
C36   C68   S    
O46   Zn6   S    
C15   C19   A    
C7    C99   A    
C23   H36   S    
C51   C90   S    
C3    C9    A    
C55   O29   A    
O34   Zn13  S    
C2    C95   A    
C14   C30   A    
C38   C42   A    
C64   O38   A    
C37   C41   A    
C52   O7    A    
O34   Zn4   S    
C71   C76   S    
C88   H8    S    
C85   H5    S    
C75   C84   S    
O9    Zn12  S    
C11   C25   A    
C61   O33   A    
C6    C91   A    
C7    C89   A    
C89   H9    S    
C92   C96   A    
C80   H34   S    
O6    Zn9   S    
C2    C85   A    
C37   N1    S    
C89   C94   A    
C69   C71   S    
C70   C81   S    
O14   Zn16  S    
C41   H40   S    
C72   C78   S    
O12   Zn9   S    
C2    C50   S    
C8    C58   S    
C66   C83   S    
C4    C96   A    
O52   Zn15  S    
C69   C77   S    
C78   C83   S    
C26   C34   A    
C57   O2    A    
C56   O28   A    
C95   H15   S    
O23   Zn12  S    
C38   C45   A    
C77   C82   S    
O19   Zn4   S    
C67   H45   S    
C13   C28   S    
C98   H18   S    
C100  H20   S    
C17   C36   A    
C14   C27   A    
C37   C47   A    
C18   C22   A    
C1    O45   A    
C43   C48   A    
C79   O4    A    
C55   O10   A    
O29   Zn8   S    
C60   O32   A    
C71   C82   S    
C39   N3    S    
O24   Zn6   S    
C3    C88   A    
C42   H41   S    
O50   Zn9   S    
C74   C80   S    
C64   O37   A    
C70   C77   S    
C19   H31   S    
C33   C46   S    
C73   C75   S    
C54   O9    A    
C86   H6    S    
O49   Zn10  S    
C32   C57   S    
C20   H32   S    
C6    C55   S    
O12   Zn2   S    
C59   O44   A    
C9    C92   A    
C21   H33   S    
O2    Zn14  S    
C90   C94   A    
O42   Zn13  S    
C20   C29   A    
O28   Zn8   S    
O23   Zn3   S    
O41   Zn14  S    
O26   Zn5   S    
C47   C59   S    
C49   C61   S    
H50   N3    S    
C63   C82   S    
C17   H29   S    
C6    C98   A    
O15   Zn2   S    
C13   O49   A    
O34   Zn14  S    
O20   Zn4   S    
O38   Zn9   S    
O12   Zn10  S    
C38   N2    S    
C78   H23   S    
C72   C74   S    
O37   Zn10  S    
C86   C90   A    
O23   Zn15  S    
C24   O50   A    
C65   C84   S    
C39   C43   A    
C12   H25   S    
C26   H38   S    
C62   O48   A    
C91   C95   A    
O45   Zn11  S    
C17   C21   A    
C12   C26   A    
O40   Zn15  S    
C5    C87   A    
C77   H12   S    
C25   H37   S    
O7    Zn10  S    
C86   C99   A    
C35   O51   A    
C34   C79   S    
C65   O40   A    
C16   H28   S    
O4    Zn12  S    
C53   O8    A    
C48   C62   S    
C65   O43   A    
O11   Zn14  S    
C16   C20   A    
C71   H55   S    
C22   C31   A    
C50   O5    A    
C1    C29   S    
C85   C98   A    
C79   O18   A    
O32   Zn2   S    
C9    C56   S    
C93   H13   S    
C19   C28   A    
H49   N3    S    
O35   Zn4   S    
C72   C84   S    
C61   O47   A    
O18   Zn3   S    
O5    Zn1   S    
C73   H2    S    
C39   C49   A    
C5    C97   A    
C56   O11   A    
O13   Zn15  S    
C75   H4    S    
C10   C23   A    
O16   Zn2   S    
C51   O25   A    
C18   H30   S    
C58   O13   A    
O8    Zn11  S    
C50   O26   A    
C67   C82   S    
C93   C97   A    
O12   Zn6   S    
C46   O21   A    
C69   H53   S    
C87   C100  A    
C68   O3    A    
C76   H1    S    
C40   C48   A    
O1    Zn1   S    
O23   Zn7   S    
C54   O30   A    
C5    C52   S    
O51   Zn1   S    
C58   O27   A    
C70   H54   S    
C35   O14   A    
C91   H10   S    
C40   N4    S    
C8    C93   A    
C52   O24   A    
O25   Zn6   S    
C10   H22   S    
C76   C81   S    
C57   O20   A    
O34   Zn8   S    
O21   Zn3   S    
C92   H11   S    
C4    C88   A    
C27   C36   A    
C16   C32   A    
C30   C35   S    
C21   C30   A    
C22   H35   S    
C68   O19   A    
O47   Zn7   S    
C14   H26   S    
O44   Zn5   S    
C67   C70   S    
H51   N4    S    
O1    Zn16  S    
O39   Zn1   S    
C8    C100  A    
C24   C31   S    
C12   C31   A    
C53   O22   A    
C23   C32   A    
O17   Zn16  S    
C24   O15   A    
C10   C29   A    
C60   O46   A    
C11   C28   A    
C18   C34   A    
C44   H43   S    
C46   O52   A    
O1    Zn11  S    
C73   C80   S    
C63   O39   A    
O43   Zn12  S    
C62   O35   A    
C42   C47   A    
C97   H17   S    
C75   C78   S    
C27   H39   S    
C64   C81   S    
O36   Zn11  S    
C69   C81   S    
C99   H19   S    
C66   O42   A    
C40   C44   A    
C87   H7    S    
H48   N2    S    
O22   Zn5   S    
O10   Zn13  S    
C41   C45   A    
C63   O36   A    
C96   H16   S    
C43   H42   S    
C15   H27   S    
C67   C76   S    
C7    C54   S    
H44   N1    S    
O3    Zn13  S    
H47   N2    S    
C1    O17   A    
C73   C83   S    
C15   C33   A    
C3    H21   S    
O33   Zn3   S    
C25   C33   A    
C74   H3    S    
C51   O6    A    
