data_mof_unit_31563.cif
_audit_creation_date              2012-12-10T20:57:57-0500
_audit_creation_method            fapswitch 2.2
_symmetry_space_group_name_H-M    P1
_symmetry_Int_Tables_number       1
_space_group_crystal_system       triclinic
_cell_length_a                    18.20979
_cell_length_b                    18.266974
_cell_length_c                    18.364974
_cell_angle_alpha                 120.034426
_cell_angle_beta                  89.939998
_cell_angle_gamma                 119.98285
_cell_volume                      4320.76235654

loop_
_atom_site_label
_atom_site_type_symbol
_atom_type_description
_atom_site_fract_x
_atom_site_fract_y
_atom_site_fract_z
_atom_type_partial_charge
C1    C     C_R   0.359160 0.220025 0.361113 0.785165
C2    C     C_3   0.278868 0.580251 0.360375 -0.390640
C3    C     C_3   0.300620 0.501080 0.302277 0.173485
C4    C     C_3   0.198982 0.501486 0.200706 0.170923
C5    C     C_3   0.151224 0.392279 0.181050 -0.444693
C6    C     C_3   0.217192 0.578122 0.301235 -0.390432
C7    C     C_3   0.688844 0.938749 0.646527 -0.374032
C8    C     C_3   0.749998 0.058987 0.705040 -0.058614
C9    C     C_3   0.669986 0.937931 0.781848 -0.403849
C10   C     C_3   0.799563 0.941489 0.731781 -0.397663
C11   C     C_3   0.698887 0.897242 0.698871 0.172297
C12   C     C_R   0.641034 0.780918 0.640373 0.740414
C13   C     C_3   0.798877 0.102239 0.801870 0.167813
C14   C     C_3   0.729481 0.057656 0.843032 -0.397162
C15   C     C_3   0.857813 0.060867 0.792412 -0.427302
C16   C     C_3   0.676772 0.390302 0.238941 -0.399560
C17   C     C_3   0.736368 0.390236 0.178988 -0.401577
C18   C     C_3   0.682652 0.534489 0.245479 -0.401036
C19   C     C_3   0.799637 0.576032 0.360270 -0.390362
C20   C     C_3   0.698678 0.500220 0.302349 0.213902
C21   C     C_3   0.799985 0.500160 0.200798 0.215183
C22   C     C_3   0.742482 0.534634 0.185758 -0.403057
C23   C     C_R   0.359707 0.500946 0.641130 0.783314
C24   C     C_3   0.858919 0.576042 0.300879 -0.389800
C25   C     C_R   0.377873 0.173406 0.589107 -0.152476
C26   C     C_R   0.365987 0.127758 0.497677 0.242989
C27   C     C_R   0.289505 0.098983 0.441338 0.116094
C28   C     C_R   0.226997 0.115624 0.477553 -0.173914
C29   C     C_R   0.239947 0.160873 0.568374 -0.145196
C30   C     C_R   0.315326 0.189957 0.624116 -0.149838
C31   C     C_R   0.219718 0.944029 0.288301 -0.249876
C32   C     C_R   0.194777 0.892374 0.195725 -0.056011
C33   C     C_R   0.223641 0.949238 0.157975 -0.015107
C34   C     C_R   0.640796 0.499984 0.359494 0.738053
C35   C     C_R   0.278167 0.056072 0.214059 -0.263281
C36   C     C_R   0.302697 0.107698 0.306576 -0.063675
C37   C     C_R   0.272313 0.050905 0.344355 -0.012090
C38   C     C_R   0.249554 0.878916 0.011248 -0.132802
C39   C     C_R   0.223032 0.833897 0.919645 -0.144905
C40   C     C_R   0.143691 0.811874 0.877657 -0.098790
C41   C     C_R   0.090919 0.835268 0.927214 -0.141618
C42   C     C_R   0.117010 0.880015 0.018685 -0.128896
C43   C     C_R   0.196279 0.901631 0.061095 0.161910
C44   C     C_R   0.916296 0.698030 0.616483 -0.136478
C45   C     C_R   0.641898 0.500329 0.640223 0.789853
C46   C     C_R   0.867972 0.623945 0.634062 -0.115282
C47   C     C_R   0.843834 0.650720 0.711479 0.161602
C48   C     C_R   0.869539 0.752473 0.771581 -0.160681
C49   C     C_R   0.918283 0.826438 0.753977 -0.149912
C50   C     C_R   0.941306 0.799144 0.676322 -0.103193
C51   C     C_R   0.841949 0.570424 0.785383 -0.268461
C52   C     C_R   0.799039 0.499595 0.807260 -0.048465
C53   C     C_R   0.704194 0.429225 0.773963 -0.014568
C54   C     C_R   0.655424 0.430794 0.718156 -0.270343
C55   C     C_R   0.698352 0.501716 0.696485 -0.046770
C56   C     C_R   0.358047 0.500229 0.359460 0.750619
C57   C     C_R   0.792954 0.572696 0.730482 -0.018857
C58   C     C_R   0.607675 0.246596 0.727836 -0.180315
C59   C     C_R   0.554821 0.173903 0.745681 -0.161738
C60   C     C_R   0.546270 0.206666 0.830171 -0.119719
C61   C     C_R   0.589520 0.312163 0.896626 -0.124834
C62   C     C_R   0.641637 0.385124 0.878786 -0.085642
C63   C     C_R   0.652142 0.352788 0.794578 0.155598
C64   C     C_R   0.409670 0.826837 0.751997 -0.177861
C65   C     C_R   0.388598 0.753210 0.769536 0.228300
C66   C     C_R   0.308439 0.652123 0.712758 0.117667
C67   C     C_3   0.350096 0.531805 0.243178 -0.393230
C68   C     C_R   0.252433 0.626896 0.639566 -0.167147
C69   C     C_R   0.275406 0.700472 0.622230 -0.141916
C70   C     C_R   0.353690 0.800372 0.678550 -0.151434
C71   C     C_R   0.224829 0.569170 0.783479 -0.252808
C72   C     C_R   0.195508 0.498622 0.805749 -0.055179
C73   C     C_R   0.221374 0.429575 0.774237 -0.012777
C74   C     C_R   0.274933 0.432538 0.720718 -0.263749
C75   C     C_R   0.304027 0.502925 0.698217 -0.066667
C76   C     C_R   0.279316 0.573033 0.730907 0.000504
C77   C     C_R   0.243134 0.381023 0.873654 -0.111982
C78   C     C_3   0.290141 0.530494 0.181814 -0.045781
C79   C     C_R   0.216902 0.307816 0.892385 -0.129730
C80   C     C_R   0.142164 0.205820 0.831769 -0.104593
C81   C     C_R   0.093604 0.176833 0.752280 -0.150947
C82   C     C_R   0.119147 0.249968 0.733627 -0.161048
C83   C     C_R   0.193938 0.352496 0.794351 0.156781
C84   C     C_R   0.857151 0.499952 0.142929 0.738631
C85   C     C_R   0.138510 0.499490 0.861549 0.785914
C86   C     C_R   0.856759 0.218937 0.861662 0.728768
C87   C     C_R   0.138316 0.780007 0.141132 0.785911
C88   C     C_R   0.855767 0.500019 0.862373 0.789192
C89   C     C_3   0.210805 0.392251 0.241024 -0.405811
C90   C     C_R   0.139708 0.499983 0.142934 0.739213
H1    H     H_    0.367248 0.476811 0.201149 0.158007
H2    H     H_    0.152448 0.553615 0.315052 0.172635
H3    H     H_    0.174185 0.369040 0.282344 0.157458
H4    H     H_    0.085624 0.368213 0.192977 0.160392
H5    H     H_    0.617159 0.909187 0.623848 0.184534
H6    H     H_    0.707239 0.908580 0.585439 0.127562
H7    H     H_    0.802495 0.083360 0.674749 0.129875
H8    H     H_    0.598692 0.909568 0.760408 0.178373
H9    H     H_    0.686435 0.086378 0.855049 0.169919
H10   H     H_    0.808219 0.912499 0.769549 0.177404
H11   H     H_    0.414811 0.609744 0.286498 0.161362
H12   H     H_    0.823072 0.914898 0.673888 0.176815
H13   H     H_    0.909385 0.090713 0.763547 0.179211
H14   H     H_    0.894302 0.088808 0.859126 0.178472
H15   H     H_    0.674953 0.907691 0.819911 0.148786
H16   H     H_    0.765628 0.084604 0.909418 0.153364
H17   H     H_    0.604776 0.333919 0.196218 0.178768
H18   H     H_    0.688184 0.364372 0.278510 0.149378
H19   H     H_    0.776443 0.364067 0.189445 0.148210
H20   H     H_    0.692730 0.334028 0.107752 0.177646
H21   H     H_    0.610811 0.481133 0.202782 0.174858
H22   H     H_    0.699280 0.481635 0.114633 0.169295
H23   H     H_    0.817765 0.655961 0.406631 0.175040
H24   H     H_    0.813141 0.552829 0.401509 0.168719
H25   H     H_    0.900989 0.553143 0.313910 0.169453
H26   H     H_    0.905217 0.655980 0.318826 0.175725
H27   H     H_    0.698136 0.613377 0.289806 0.149515
H28   H     H_    0.787009 0.613650 0.201413 0.150330
H29   H     H_    0.325280 0.225349 0.694598 0.141143
H30   H     H_    0.435981 0.196530 0.633473 0.136389
H31   H     H_    0.274998 0.469208 0.111532 0.151505
H32   H     H_    0.168210 0.093761 0.435210 0.124556
H33   H     H_    0.191439 0.173479 0.595526 0.135030
H34   H     H_    0.196981 0.901235 0.317820 0.172478
H35   H     H_    0.300283 0.098921 0.184573 0.173945
H36   H     H_    0.311085 0.895680 0.043243 0.119338
H37   H     H_    0.263933 0.816251 0.881094 0.137952
H38   H     H_    0.123280 0.777059 0.806813 0.127165
H39   H     H_    0.029876 0.818890 0.894807 0.127716
H40   H     H_    0.075539 0.897624 0.056450 0.110028
H41   H     H_    0.978794 0.856438 0.662698 0.112997
H42   H     H_    0.224242 0.333773 0.198264 0.179266
H43   H     H_    0.934575 0.677177 0.556626 0.113015
H44   H     H_    0.848944 0.545830 0.587376 0.105762
H45   H     H_    0.851908 0.774314 0.831863 0.112865
H46   H     H_    0.938352 0.904958 0.800577 0.116160
H47   H     H_    0.914525 0.624524 0.810655 0.176010
H48   H     H_    0.582820 0.376399 0.692421 0.171352
H49   H     H_    0.613564 0.220265 0.662010 0.134271
H50   H     H_    0.520511 0.092134 0.693994 0.129167
H51   H     H_    0.505673 0.150268 0.843960 0.117510
H52   H     H_    0.582104 0.337277 0.961732 0.110879
H53   H     H_    0.136671 0.334135 0.109778 0.175449
H54   H     H_    0.674069 0.466611 0.930420 0.101725
H55   H     H_    0.370986 0.857558 0.665417 0.127350
H56   H     H_    0.469685 0.905069 0.795403 0.121014
H57   H     H_    0.190808 0.550028 0.595961 0.122785
H58   H     H_    0.232051 0.680242 0.565448 0.123299
H59   H     H_    0.205789 0.622658 0.807535 0.170544
H60   H     H_    0.294003 0.379100 0.696694 0.177022
H61   H     H_    0.301146 0.459836 0.920958 0.113229
H62   H     H_    0.254598 0.330041 0.953751 0.110801
H63   H     H_    0.245183 0.561900 0.405308 0.176061
H64   H     H_    0.122024 0.149182 0.846251 0.113461
H65   H     H_    0.036180 0.097680 0.705110 0.113457
H66   H     H_    0.080925 0.226860 0.672006 0.111641
H67   H     H_    0.342097 0.659703 0.403220 0.174813
H68   H     H_    0.247706 0.657606 0.319587 0.171650
O1    O     O_3   0.500000 0.500000 0.500000 -0.471076
O2    O     O_R   0.383400 0.560740 0.616060 -0.640364
O3    O     O_R   0.555060 0.439270 0.322940 -0.650187
O4    O     O_R   0.383950 0.268380 0.445700 -0.641265
O5    O     O_R   0.677590 0.731610 0.615290 -0.639832
O6    O     O_3   0.997750 0.500010 0.002220 -0.470684
O7    O     O_R   0.942690 0.560750 0.179280 -0.652365
O8    O     O_R   0.114340 0.439270 0.886160 -0.633372
O9    O     O_R   0.820160 0.268410 0.886930 -0.644886
O10   O     O_R   0.113800 0.731630 0.056520 -0.633209
O11   O     O_R   0.819390 0.439310 0.886160 -0.642347
O12   O     O_R   0.383400 0.268380 0.323710 -0.649633
O13   O     O_R   0.115110 0.560720 0.179280 -0.649928
O14   O     O_R   0.941380 0.560750 0.885620 -0.645096
O15   O     O_R   0.115110 0.439270 0.057830 -0.647595
O16   O     O_R   0.942690 0.268390 0.886930 -0.640707
O17   O     O_R   0.114340 0.731630 0.178520 -0.652332
O18   O     O_R   0.820160 0.439310 0.057830 -0.646342
O19   O     O_R   0.113800 0.560730 0.885620 -0.644848
O20   O     O_R   0.555060 0.731630 0.615290 -0.645338
O21   O     O_R   0.383950 0.439280 0.616600 -0.639571
O22   O     O_R   0.677590 0.560710 0.444390 -0.647510
O23   O     O_R   0.556370 0.439260 0.616600 -0.653810
O24   O     O_R   0.382640 0.439290 0.322940 -0.649243
O25   O     O_R   0.678360 0.560700 0.616060 -0.634335
O26   O     O_R   0.382640 0.560750 0.444390 -0.644782
Zn1   Zn    Zn3+2 0.456040 0.586770 0.543190 0.958643
Zn2   Zn    Zn3+2 0.456820 0.413240 0.543960 0.960942
Zn3   Zn    Zn3+2 0.631110 0.586750 0.543190 0.960012
Zn4   Zn    Zn3+2 0.456040 0.413240 0.369660 0.943560
Zn5   Zn    Zn3+2 0.041710 0.413240 0.959030 0.961183
Zn6   Zn    Zn3+2 0.866640 0.413270 0.959030 0.953544
Zn7   Zn    Zn3+2 0.040930 0.586780 0.958260 0.967075
Zn8   Zn    Zn3+2 0.041710 0.586770 0.132560 0.940188
N1    N     N_3   0.697310 0.097995 0.702008 -0.471457
H69   H     H_    0.656332 0.091624 0.741327 0.211315
H70   H     H_    0.740493 0.175752 0.725582 0.201423
N2    N     N_3   0.339495 0.629419 0.191573 -0.475469
H71   H     H_    0.300474 0.625933 0.146672 0.171850
H72   H     H_    0.354003 0.689797 0.256039 0.193251
C91   C     C_3   0.436207 0.112632 0.463298 -0.436329
C92   C     C_3   0.428440 0.023062 0.458472 -0.903320
H73   H     H_    0.480179 0.013039 0.432499 0.253066
H74   H     H_    0.439220 0.038818 0.525697 0.255808
H75   H     H_    0.360948 0.950160 0.412943 0.263443
H76   H     H_    0.430149 0.096946 0.396119 0.211007
H77   H     H_    0.504282 0.184857 0.508340 0.201039
C93   C     C_3   0.452721 0.784350 0.848102 -0.431372
C94   C     C_3   0.434680 0.837045 0.934169 -0.907671
H78   H     H_    0.440400 0.906131 0.946712 0.255361
H79   H     H_    0.366494 0.782383 0.930170 0.261931
H80   H     H_    0.484674 0.862260 0.991020 0.253745
H81   H     H_    0.447713 0.716392 0.837500 0.207722
H82   H     H_    0.523091 0.838327 0.855580 0.194341

loop_
_geom_bond_atom_site_label_1
_geom_bond_atom_site_label_2
_ccdc_geom_bond_type
C58   H49   S    
C66   C68   A    
C9    H8    S    
C88   O14   A    
C73   C74   A    
C48   H45   S    
C34   O22   A    
C35   C36   A    
C8    H7    S    
C34   O3    A    
C17   H20   S    
C77   H61   S    
C72   C85   S    
C45   O23   A    
C7    C8    S    
O21   Zn2   S    
C71   H59   S    
C53   C54   A    
C7    C11   S    
C7    H6    S    
C90   O15   A    
C45   O25   A    
C26   C27   A    
C8    C13   S    
O10   Zn7   S    
O19   Zn7   S    
C85   O8    A    
O2    Zn1   S    
O1    Zn2   S    
C36   C37   A    
C31   H34   S    
O3    Zn4   S    
C10   C15   S    
C92   H75   S    
C71   C76   A    
C28   H32   S    
N2    H71   S    
C5    H53   S    
C47   C57   S    
C30   H29   S    
C19   H23   S    
C9    H15   S    
C40   H38   S    
C29   H33   S    
C1    O12   A    
C91   H77   S    
O7    Zn8   S    
O26   Zn1   S    
O5    Zn3   S    
C41   C42   A    
O1    Zn3   S    
C35   H35   S    
C78   H31   S    
C84   O7    A    
C16   H17   S    
C6    H68   S    
C54   C55   A    
O20   Zn1   S    
C93   H81   S    
C47   C48   A    
C16   C17   S    
N1    H70   S    
C90   O13   A    
C92   H73   S    
C94   H80   S    
C51   C57   A    
C64   C70   A    
C15   H14   S    
O6    Zn7   S    
C23   O21   A    
C69   C70   A    
C82   H66   S    
C59   C60   A    
C21   C22   S    
O6    Zn8   S    
C2    C6    S    
C67   C78   S    
O11   Zn6   S    
O6    Zn6   S    
C38   H36   S    
C44   C46   A    
C5    H4    S    
C4    C90   S    
C77   C79   A    
O14   Zn7   S    
C38   C39   A    
C39   H37   S    
C74   C75   A    
C51   C52   A    
C33   C43   S    
C52   C88   S    
C18   H21   S    
N2    H72   S    
C10   C11   S    
C62   H54   S    
O17   Zn8   S    
O4    Zn2   S    
C9    C14   S    
C93   C94   S    
C80   C81   A    
C78   N2    S    
C65   C93   S    
C56   O26   A    
C19   H24   S    
C58   C59   A    
C32   C87   S    
C81   C82   A    
C94   H78   S    
C60   C61   A    
C86   O16   A    
O1    Zn4   S    
C13   C86   S    
C75   C76   A    
C4    C78   S    
C62   C63   A    
O22   Zn3   S    
O25   Zn3   S    
C60   H51   S    
C46   H44   S    
C3    C56   S    
O18   Zn6   S    
C31   C32   A    
C21   C84   S    
C10   H12   S    
C16   C20   S    
C66   C76   S    
C23   O2    A    
C67   H1    S    
C8    N1    S    
C42   H40   S    
C70   H55   S    
O24   Zn4   S    
C10   H10   S    
C26   C91   S    
C9    C11   S    
C18   H27   S    
C68   H57   S    
C51   H47   S    
C4    C6    S    
C40   C41   A    
C49   H46   S    
C1    O4    A    
C82   C83   A    
C2    H63   S    
C22   H22   S    
C13   C15   S    
C87   O10   A    
C91   H76   S    
C49   C50   A    
C42   C43   A    
O6    Zn5   S    
C25   H30   S    
C39   C40   A    
C7    H5    S    
C52   C53   A    
C67   H11   S    
C44   C50   A    
C25   C30   A    
C22   H28   S    
O9    Zn6   S    
C46   C47   A    
C28   C29   A    
C88   O11   A    
C64   H56   S    
C18   C22   S    
C68   C69   A    
C3    C67   S    
C86   O9    A    
C58   C63   A    
C23   C75   S    
C72   C73   A    
C17   H19   S    
O23   Zn2   S    
C24   H26   S    
C87   O17   A    
C89   H42   S    
C81   H65   S    
C3    C89   S    
O8    Zn5   S    
C32   C33   A    
O1    Zn1   S    
C19   C20   S    
C55   C57   A    
C19   C24   S    
C25   C26   A    
C20   C34   S    
C38   C43   A    
C84   O18   A    
C64   C65   A    
C12   O5    A    
C41   H39   S    
C53   C63   S    
C14   H9    S    
C54   H48   S    
C56   O24   A    
C59   H50   S    
C27   C37   S    
C2    H67   S    
C48   C49   A    
C4    C5    S    
C44   H43   S    
O15   Zn5   S    
C33   C35   A    
O13   Zn8   S    
C2    C3    S    
C18   C20   S    
C6    H2    S    
C65   C66   A    
C93   H82   S    
C89   H3    S    
C61   C62   A    
C17   C21   S    
C91   C92   S    
C50   H41   S    
C16   H18   S    
O16   Zn5   S    
C29   C30   A    
C79   C80   A    
C31   C37   A    
C61   H52   S    
C14   H16   S    
C71   C72   A    
C45   C55   S    
C24   H25   S    
C85   O19   A    
N1    H69   S    
C21   C24   S    
O12   Zn4   S    
C27   C28   A    
C94   H79   S    
C69   H58   S    
C77   C83   A    
C74   H60   S    
C1    C36   S    
C15   H13   S    
C12   O20   A    
C13   C14   S    
C80   H64   S    
C73   C83   S    
C92   H74   S    
C5    C89   S    
C11   C12   S    
C79   H62   S    
