data_mof_unit_16896.cif
_audit_creation_date              2012-12-10T17:33:42-0500
_audit_creation_method            fapswitch 2.2
_symmetry_space_group_name_H-M    P1
_symmetry_Int_Tables_number       1
_space_group_crystal_system       triclinic
_cell_length_a                    11.703081
_cell_length_b                    12.36759
_cell_length_c                    13.357368
_cell_angle_alpha                 116.964103
_cell_angle_beta                  77.090326
_cell_angle_gamma                 101.181832
_cell_volume                      1670.03204387

loop_
_atom_site_label
_atom_site_type_symbol
_atom_type_description
_atom_site_fract_x
_atom_site_fract_y
_atom_site_fract_z
_atom_type_partial_charge
C1    C     C_R   0.515200 0.854711 0.286622 0.802063
C2    C     C_R   0.495232 0.228593 0.830742 -0.044707
C3    C     C_R   0.463080 0.815482 0.103117 -0.190517
C4    C     C_R   0.436223 0.735959 0.995613 0.324707
C5    C     C_R   0.450790 0.612428 0.950527 -0.201566
C6    C     C_R   0.500273 0.567443 0.010028 0.032374
C7    C     C_R   0.539018 0.652520 0.114222 0.085164
C8    C     C_R   0.514467 0.441637 0.969637 0.100368
C9    C     C_R   0.573556 0.405887 0.030086 0.153423
C10   C     C_R   0.625186 0.493829 0.122203 -0.204117
C11   C     C_R   0.609169 0.615651 0.163134 -0.154816
C12   C     C_R   0.715675 0.999783 0.499740 0.820120
C13   C     C_R   0.474675 0.350140 0.870040 -0.215893
C14   C     C_R   0.546014 0.194162 0.895671 -0.154453
C15   C     C_R   0.510741 0.774118 0.165107 -0.131967
C16   C     C_R   0.693902 0.353794 0.339992 -0.310806
C17   C     C_R   0.331418 0.755581 0.632729 0.026331
C18   C     C_R   0.278317 0.650875 0.645613 0.243828
C19   C     C_R   0.334187 0.543098 0.588733 0.192825
C20   C     C_R   0.450769 0.545902 0.527537 -0.101393
C21   C     C_R   0.494903 0.653320 0.509484 0.241468
C22   C     C_R   0.522735 0.445910 0.475825 0.015968
C23   C     C_R   0.485894 0.145279 0.712573 0.792510
C24   C     C_R   0.627481 0.452277 0.400190 0.118442
C25   C     C_R   0.666265 0.556866 0.384165 -0.262746
C26   C     C_R   0.599510 0.653181 0.434990 -0.125360
C27   C     C_R   0.501027 0.342420 0.499352 0.027142
C28   C     C_R   0.660254 0.249476 0.357173 0.462587
C29   C     C_R   0.284325 0.000219 0.500251 0.818439
C30   C     C_1   0.837483 0.999707 0.499715 -0.130906
C31   C     C_1   0.940053 0.999835 0.499773 0.045379
C32   C     C_1   0.059982 0.000078 0.499933 0.052423
C33   C     C_1   0.162531 0.000215 0.500093 -0.120912
C34   C     C_R   0.585495 0.282638 0.994824 -0.169834
Cu1   Cu    Cu3+1 0.526510 0.098270 0.475420 1.013883
Cu2   Cu    Cu3+1 0.473490 0.901730 0.524580 0.962341
H1    H     H_    0.563005 0.100522 0.865599 0.178873
H2    H     H_    0.771469 0.357509 0.279031 0.173133
H3    H     H_    0.437225 0.339115 0.569720 0.177731
H4    H     H_    0.285710 0.836594 0.673843 0.179721
H5    H     H_    0.630569 0.724193 0.409480 0.188202
H6    H     H_    0.680009 0.467414 0.160679 0.145816
H7    H     H_    0.629647 0.255328 0.041636 0.155543
H8    H     H_    0.442988 0.909022 0.139639 0.190861
H9    H     H_    0.424986 0.555262 0.868245 0.164757
N1    N     N_R   0.566700 0.246290 0.438210 -0.218251
N2    N     N_R   0.434010 0.754320 0.561170 -0.232858
O1    O     O_R   0.533340 0.972510 0.318140 -0.542919
O2    O     O_R   0.488570 0.806530 0.359650 -0.593969
O3    O     O_R   0.685190 0.083000 0.479260 -0.525147
O4    O     O_R   0.640410 0.917020 0.520770 -0.607007
O5    O     O_R   0.511430 0.193470 0.640350 -0.587438
O6    O     O_R   0.466660 0.027490 0.681860 -0.573548
O7    O     O_R   0.359590 0.082980 0.479230 -0.555648
O8    O     O_R   0.314810 0.917000 0.520740 -0.584232
H10   H     H_    0.748628 0.563858 0.329774 0.150603
Br1   Br    Br    0.234456 0.394183 0.574913 -0.456917
Br2   Br    Br    0.124146 0.658174 0.735129 -0.369462
H11   H     H_    0.431676 0.370895 0.818385 0.147287
Br3   Br    Br    0.374245 0.796496 0.912595 -0.492432
H12   H     H_    0.655878 0.682192 0.230440 0.131508
Br4   Br    Br    0.753462 0.116321 0.266370 -0.455997

loop_
_geom_bond_atom_site_label_1
_geom_bond_atom_site_label_2
_ccdc_geom_bond_type
C14   C34   A    
C12   O3    A    
C21   C26   A    
C1    O1    A    
C16   C28   A    
C6    C7    A    
C13   H11   S    
C10   H6    S    
C9    C10   A    
C19   C20   A    
C25   H10   S    
C30   C31   T    
C32   C33   T    
C4    Br3   S    
Cu1   O3    S    
C7    C15   A    
C17   C18   A    
C16   C24   A    
Cu2   O8    S    
C19   Br1   S    
Cu1   O7    S    
C7    C11   A    
C28   N1    A    
C23   O5    A    
C9    C34   A    
Cu2   O4    S    
C5    H9    S    
C1    C15   S    
Cu1   O1    S    
C27   N1    A    
C20   C22   A    
C23   O6    A    
C22   C27   A    
C11   H12   S    
C5    C6    A    
C2    C14   A    
C22   C24   A    
C3    H8    S    
C29   O7    A    
C34   H7    S    
C3    C4    A    
C8    C13   A    
C29   C33   S    
Cu1   O5    S    
C12   O4    A    
C3    C15   A    
C24   C25   A    
Cu2   N2    S    
C14   H1    S    
C18   C19   A    
C10   C11   A    
C16   H2    S    
C2    C23   S    
C2    C13   A    
C18   Br2   S    
C8    C9    A    
C6    C8    A    
Cu2   O6    S    
C29   O8    A    
C12   C30   S    
C25   C26   A    
C17   H4    S    
Cu1   N1    S    
C1    O2    A    
C20   C21   A    
C31   C32   S    
Cu2   O2    S    
C17   N2    A    
C26   H5    S    
C27   H3    S    
C4    C5    A    
C21   N2    A    
Cu1   Cu2   S    
C28   Br4   S    
