data_mof_unit_54068.cif
_audit_creation_date              2012-12-11T17:04:42-0500
_audit_creation_method            fapswitch 2.2
_symmetry_space_group_name_H-M    P1
_symmetry_Int_Tables_number       1
_space_group_crystal_system       triclinic
_cell_length_a                    17.304295
_cell_length_b                    24.240258
_cell_length_c                    14.855455
_cell_angle_alpha                 90.298761
_cell_angle_beta                  125.431661
_cell_angle_gamma                 89.981396
_cell_volume                      5077.19535957

loop_
_atom_site_label
_atom_site_type_symbol
_atom_type_description
_atom_site_fract_x
_atom_site_fract_y
_atom_site_fract_z
_atom_type_partial_charge
C1    C     C_R   0.851089 0.652555 0.906426 -0.155966
C2    C     C_R   0.191847 0.624198 0.093712 -0.146013
C3    C     C_R   0.351089 0.152555 0.906426 -0.155966
C4    C     C_R   0.691847 0.124198 0.093712 -0.146013
C5    C     C_R   0.882589 0.316759 0.001945 0.079483
C6    C     C_R   0.184606 0.362114 0.995823 0.071117
C7    C     C_R   0.382589 0.816759 0.001945 0.079483
C8    C     C_R   0.684606 0.862114 0.995823 0.071117
C9    C     C_R   0.950467 0.501648 0.276010 0.071616
C10   C     C_R   0.932647 0.501542 0.630214 0.082522
C11   C     C_R   0.450467 0.001648 0.276010 0.071616
C12   C     C_R   0.432647 0.001542 0.630214 0.082522
C13   C     C_R   0.674943 0.499887 0.722608 0.031153
C14   C     C_R   0.307865 0.500980 0.361730 0.042861
C15   C     C_R   0.174943 0.999887 0.722608 0.031153
C16   C     C_R   0.807865 0.000980 0.361730 0.042862
C17   C     C_3   0.510110 0.448236 0.590281 -0.166841
C18   C     C_3   0.478712 0.467174 0.474890 -0.150517
C19   C     C_3   0.010111 0.948236 0.590280 -0.166840
C20   C     C_3   0.978712 0.967175 0.474889 -0.150516
C21   C     C_3   0.429435 0.482222 0.579815 -0.147487
C22   C     C_3   0.543085 0.518140 0.524409 -0.138490
C23   C     C_3   0.929435 0.982222 0.579815 -0.147488
C24   C     C_3   0.043084 0.018140 0.524409 -0.138491
C25   C     C_3   0.400002 0.501112 0.465849 0.184347
C26   C     C_3   0.573980 0.499367 0.639193 0.184452
C27   C     C_3   0.900002 0.001112 0.465849 0.184347
C28   C     C_3   0.073980 0.999367 0.639193 0.184452
C29   C     C_3   0.463869 0.552201 0.515000 -0.167603
C30   C     C_3   0.495840 0.533473 0.631152 -0.152299
C31   C     C_3   0.963869 0.052201 0.515001 -0.167603
C32   C     C_3   0.995840 0.033473 0.631153 -0.152298
C33   C     C_R   0.892312 0.233723 0.104666 0.161415
C34   C     C_R   0.235220 0.311874 0.892031 0.163912
C35   C     C_R   0.392312 0.733723 0.104666 0.161415
C36   C     C_R   0.735220 0.811874 0.892031 0.163912
C37   C     C_R   0.863429 0.258376 0.004783 0.032287
C38   C     C_R   0.257281 0.334249 0.991558 0.034416
C39   C     C_R   0.363429 0.758376 0.004783 0.032287
C40   C     C_R   0.757281 0.834249 0.991558 0.034416
C41   C     C_R   0.802950 0.228022 0.906619 -0.205754
C42   C     C_R   0.344982 0.320135 0.089597 -0.202908
C43   C     C_R   0.302950 0.728022 0.906619 -0.205754
C44   C     C_R   0.844982 0.820135 0.089597 -0.202908
C45   C     C_R   0.945645 0.348730 0.092906 -0.159852
C46   C     C_R   0.095845 0.377181 0.905088 -0.147462
C47   C     C_R   0.445645 0.848730 0.092906 -0.159852
C48   C     C_R   0.595845 0.877181 0.905088 -0.147462
C49   C     C_R   0.254120 0.682129 0.907142 -0.202072
C50   C     C_R   0.894579 0.774246 0.090495 -0.205343
C51   C     C_R   0.754120 0.182129 0.907142 -0.202073
C52   C     C_R   0.394579 0.274247 0.090495 -0.205343
C53   C     C_R   0.265400 0.667223 0.005576 0.033183
C54   C     C_R   0.856679 0.743187 0.993044 0.032838
C55   C     C_R   0.765400 0.167223 0.005576 0.033184
C56   C     C_R   0.356679 0.243187 0.993044 0.032838
C57   C     C_R   0.343611 0.688882 0.105189 0.163719
C58   C     C_R   0.784625 0.767033 0.892846 0.159044
C59   C     C_R   0.843611 0.188882 0.105189 0.163719
C60   C     C_R   0.284625 0.267033 0.892846 0.159044
C61   C     C_3   0.354025 0.709178 0.207307 -0.524467
C62   C     C_3   0.697720 0.742077 0.792458 -0.523292
C63   C     C_3   0.854024 0.209178 0.207307 -0.524466
C64   C     C_3   0.197720 0.242077 0.792458 -0.523292
C65   C     C_3   0.907727 0.257875 0.206864 -0.523504
C66   C     C_3   0.143511 0.290845 0.791777 -0.522590
C67   C     C_3   0.407727 0.757875 0.206864 -0.523504
C68   C     C_3   0.643511 0.790845 0.791777 -0.522590
C69   C     C_R   0.891452 0.553136 0.464147 0.159913
C70   C     C_R   0.895861 0.553371 0.374403 0.166052
C71   C     C_R   0.391452 0.053136 0.464147 0.159913
C72   C     C_R   0.395861 0.053371 0.374403 0.166052
C73   C     C_R   0.894540 0.503233 0.513109 0.029502
C74   C     C_R   0.902637 0.503602 0.330909 0.032811
C75   C     C_R   0.394540 0.003233 0.513109 0.029502
C76   C     C_R   0.402637 0.003602 0.330909 0.032811
C77   C     C_R   0.875323 0.454309 0.451854 -0.206355
C78   C     C_R   0.878964 0.454556 0.360130 -0.201225
C79   C     C_R   0.375323 0.954309 0.451854 -0.206355
C80   C     C_R   0.378964 0.954556 0.360130 -0.201225
C81   C     C_3   0.956965 0.604140 0.415326 -0.524153
C82   C     C_3   0.951538 0.603950 0.512838 -0.525475
C83   C     C_3   0.456965 0.104141 0.415326 -0.524153
C84   C     C_3   0.451538 0.103950 0.512838 -0.525474
C85   C     C_R   0.978710 0.547162 0.246013 -0.147791
C86   C     C_R   0.948655 0.546796 0.695337 -0.161280
C87   C     C_R   0.478710 0.047162 0.246013 -0.147791
C88   C     C_R   0.448655 0.046796 0.695337 -0.161280
C89   C     C_R   0.731138 0.454013 0.749320 -0.126391
C90   C     C_R   0.258573 0.454937 0.301996 -0.156194
C91   C     C_R   0.231138 0.954013 0.749320 -0.126390
C92   C     C_R   0.758573 0.954937 0.301996 -0.156194
C93   C     C_R   0.982452 0.455007 0.251745 -0.126011
C94   C     C_R   0.948589 0.455400 0.693268 -0.143518
C95   C     C_R   0.482452 0.955007 0.251745 -0.126011
C96   C     C_R   0.448589 0.955400 0.693268 -0.143518
C97   C     C_R   0.730164 0.546507 0.749396 -0.142536
C98   C     C_R   0.258982 0.546765 0.302795 -0.147600
C99   C     C_R   0.230164 0.046507 0.749396 -0.142536
C100  C     C_R   0.758982 0.046765 0.302795 -0.147600
C101  C     C_R   0.851425 0.348504 0.909649 -0.134676
C102  C     C_R   0.188225 0.374800 0.089685 -0.123971
C103  C     C_R   0.351425 0.848504 0.909649 -0.134676
C104  C     C_R   0.688226 0.874800 0.089685 -0.123971
C105  C     C_R   0.941498 0.653432 0.089642 -0.144190
C106  C     C_R   0.098721 0.626333 0.909001 -0.125860
C107  C     C_R   0.441498 0.153432 0.089642 -0.144190
C108  C     C_R   0.598721 0.126333 0.909001 -0.125860
C109  C     C_R   0.879592 0.684874 0.997088 0.081242
C110  C     C_R   0.189014 0.639178 0.002154 0.072243
C111  C     C_R   0.379592 0.184874 0.997088 0.081241
C112  C     C_R   0.689014 0.139178 0.002154 0.072243
H1    H     H_    0.817672 0.666348 0.822625 0.100198
H2    H     H_    0.251547 0.625984 0.178758 0.109309
H3    H     H_    0.317672 0.166348 0.822625 0.100198
H4    H     H_    0.751547 0.125984 0.178758 0.109309
H5    H     H_    0.530637 0.405697 0.623173 0.107646
H6    H     H_    0.470063 0.440218 0.408903 0.110026
H7    H     H_    0.030637 0.905697 0.623171 0.107646
H8    H     H_    0.970063 0.940219 0.408903 0.110027
H9    H     H_    0.444066 0.594885 0.482744 0.105398
H10   H     H_    0.505764 0.560324 0.697890 0.113375
H11   H     H_    0.944065 0.094885 0.482745 0.105398
H12   H     H_    0.005764 0.060323 0.697890 0.113375
H13   H     H_    0.784027 0.243064 0.827876 0.124616
H14   H     H_    0.369106 0.339380 0.167662 0.124255
H15   H     H_    0.284027 0.743064 0.827876 0.124616
H16   H     H_    0.869106 0.839380 0.167662 0.124255
H17   H     H_    0.199483 0.663530 0.828826 0.126326
H18   H     H_    0.954918 0.759763 0.169202 0.124236
H19   H     H_    0.699483 0.163530 0.828826 0.126326
H20   H     H_    0.454918 0.259763 0.169202 0.124236
H21   H     H_    0.399072 0.681544 0.279085 0.188368
H22   H     H_    0.675589 0.702624 0.809291 0.200742
H23   H     H_    0.899072 0.181544 0.279085 0.188368
H24   H     H_    0.175589 0.202624 0.809291 0.200742
H25   H     H_    0.285757 0.721650 0.192705 0.200331
H26   H     H_    0.701483 0.741239 0.720249 0.188114
H27   H     H_    0.785757 0.221650 0.192705 0.200331
H28   H     H_    0.201483 0.241239 0.720249 0.188114
H29   H     H_    0.983802 0.258026 0.277928 0.188338
H30   H     H_    0.090984 0.278677 0.808483 0.199995
H31   H     H_    0.483802 0.758026 0.277928 0.188338
H32   H     H_    0.590984 0.778677 0.808483 0.199995
H33   H     H_    0.869793 0.297507 0.192282 0.199382
H34   H     H_    0.115668 0.317868 0.718870 0.191159
H35   H     H_    0.369793 0.797507 0.192282 0.199382
H36   H     H_    0.615668 0.817868 0.718870 0.191159
H37   H     H_    0.869614 0.414997 0.481641 0.125374
H38   H     H_    0.875834 0.415455 0.322689 0.126788
H39   H     H_    0.369614 0.914997 0.481641 0.125374
H40   H     H_    0.375834 0.915455 0.322689 0.126788
H41   H     H_    0.920448 0.640087 0.360191 0.191191
H42   H     H_    0.021657 0.596423 0.592101 0.199477
H43   H     H_    0.420448 0.140088 0.360191 0.191191
H44   H     H_    0.521657 0.096423 0.592101 0.199477
H45   H     H_    0.996034 0.334566 0.176335 0.101937
H46   H     H_    0.069717 0.375612 0.819464 0.111147
H47   H     H_    0.496034 0.834566 0.176335 0.101937
H48   H     H_    0.569716 0.875612 0.819464 0.111147
H49   H     H_    0.962423 0.589777 0.247886 0.111641
H50   H     H_    0.926549 0.588652 0.667866 0.100926
H51   H     H_    0.462423 0.089777 0.247886 0.111641
H52   H     H_    0.426549 0.088652 0.667866 0.100926
H53   H     H_    0.709110 0.411298 0.732891 0.094172
H54   H     H_    0.272774 0.412758 0.330620 0.093178
H55   H     H_    0.209110 0.911298 0.732891 0.094171
H56   H     H_    0.772774 0.912758 0.330620 0.093178
H57   H     H_    0.972475 0.412355 0.263396 0.092873
H58   H     H_    0.928998 0.413400 0.663657 0.084601
H59   H     H_    0.472475 0.912355 0.263396 0.092873
H60   H     H_    0.428998 0.913400 0.663657 0.084601
H61   H     H_    0.706886 0.588946 0.732873 0.101055
H62   H     H_    0.272523 0.588939 0.332397 0.087133
H63   H     H_    0.206886 0.088946 0.732873 0.101055
H64   H     H_    0.772523 0.088938 0.332397 0.087133
H65   H     H_    0.812636 0.334170 0.825093 0.082954
H66   H     H_    0.246848 0.368650 0.174701 0.090514
H67   H     H_    0.312636 0.834170 0.825093 0.082954
H68   H     H_    0.746848 0.868650 0.174701 0.090514
H69   H     H_    0.987945 0.668296 0.173738 0.085187
H70   H     H_    0.071674 0.632027 0.823449 0.092614
H71   H     H_    0.487945 0.168296 0.173738 0.085187
H72   H     H_    0.571674 0.132027 0.823449 0.092614
H73   H     H_    0.379740 0.467670 0.599060 0.112599
H74   H     H_    0.591261 0.532781 0.502858 0.114006
H75   H     H_    0.879740 0.967669 0.599060 0.112600
H76   H     H_    0.091261 0.032782 0.502858 0.114006
N1    N     N_R   0.892620 0.603790 0.941770 -0.036317
N2    N     N_R   0.107380 0.603790 0.058230 -0.040114
N3    N     N_R   0.392620 0.103790 0.941770 -0.036317
N4    N     N_R   0.607380 0.103790 0.058230 -0.040114
N5    N     N_R   0.952270 0.397640 0.058010 -0.037270
N6    N     N_R   0.047730 0.397640 0.941990 -0.040160
N7    N     N_R   0.452270 0.897640 0.058010 -0.037270
N8    N     N_R   0.547730 0.897640 0.941990 -0.040160
N9    N     N_R   0.026310 0.529110 0.206760 -0.040152
N10   N     N_R   0.973690 0.529110 0.793240 -0.037022
N11   N     N_R   0.526310 0.029110 0.206760 -0.040152
N12   N     N_R   0.473690 0.029110 0.793240 -0.037022
N13   N     N_R   0.818570 0.472310 0.793020 -0.039234
N14   N     N_R   0.181430 0.472310 0.206980 -0.034544
N15   N     N_R   0.318570 0.972310 0.793020 -0.039234
N16   N     N_R   0.681430 0.972310 0.206980 -0.034544
N17   N     N_R   0.026930 0.472300 0.207330 -0.039535
N18   N     N_R   0.973070 0.472300 0.792670 -0.037805
N19   N     N_R   0.526930 0.972300 0.207330 -0.039535
N20   N     N_R   0.473070 0.972300 0.792670 -0.037805
N21   N     N_R   0.817960 0.529130 0.792460 -0.038438
N22   N     N_R   0.182040 0.529130 0.207540 -0.035287
N23   N     N_R   0.317960 0.029130 0.792460 -0.038438
N24   N     N_R   0.682040 0.029130 0.207540 -0.035287
N25   N     N_R   0.894850 0.397640 0.943830 -0.037418
N26   N     N_R   0.105150 0.397640 0.056170 -0.039513
N27   N     N_R   0.394850 0.897640 0.943830 -0.037418
N28   N     N_R   0.605150 0.897640 0.056170 -0.039513
N29   N     N_R   0.950040 0.603780 0.055950 -0.037983
N30   N     N_R   0.049960 0.603780 0.944050 -0.039925
N31   N     N_R   0.450040 0.103780 0.055950 -0.037983
N32   N     N_R   0.549960 0.103780 0.944050 -0.039925
Ni1   Ni    Ni4+2 0.934160 0.565860 0.869070 0.206604
Ni2   Ni    Ni4+2 0.065840 0.565860 0.130930 0.208695
Ni3   Ni    Ni4+2 0.434160 0.065860 0.869070 0.206604
Ni4   Ni    Ni4+2 0.565840 0.065860 0.130930 0.208695
Ni5   Ni    Ni4+2 0.067260 0.435560 0.132230 0.208880
Ni6   Ni    Ni4+2 0.932740 0.435560 0.867770 0.206908
Ni7   Ni    Ni4+2 0.567260 0.935560 0.132230 0.208880
Ni8   Ni    Ni4+2 0.432740 0.935560 0.867770 0.206908
H77   H     H_    0.030317 0.596606 0.440249 0.199628
H78   H     H_    0.911389 0.639598 0.513432 0.188378
H79   H     H_    0.530317 0.096606 0.440249 0.199628
H80   H     H_    0.411389 0.139598 0.513432 0.188378

loop_
_geom_bond_atom_site_label_1
_geom_bond_atom_site_label_2
_ccdc_geom_bond_type
C53   C110  S    
C58   C62   S    
C87   H51   S    
N8    Ni8   S    
N22   Ni2   S    
C22   C29   S    
C5    C37   S    
C55   C112  S    
N10   N18   A    
C2    N2    A    
N21   Ni1   S    
C4    N4    A    
C89   N13   A    
C19   C20   S    
C94   N18   A    
C87   N11   A    
C72   C76   A    
C67   H31   S    
C34   C66   S    
C63   C65   S    
C81   C82   S    
C33   C65   S    
C99   N23   A    
C77   C78   A    
C48   H48   S    
C93   H57   S    
C50   C54   A    
C75   C79   A    
C97   N21   A    
C17   C26   S    
C14   C98   A    
C47   N7    A    
N3    N31   A    
C38   C42   A    
C82   H42   S    
C55   C59   A    
C11   C76   S    
N2    Ni2   S    
C64   H28   S    
C98   H62   S    
C10   C73   S    
N1    Ni1   S    
C96   N20   A    
C103  H67   S    
C83   H43   S    
C10   C94   A    
C11   C95   A    
C46   H46   S    
C91   N15   A    
C81   H41   S    
N27   Ni8   S    
C103  N27   A    
C57   C61   S    
C70   C81   S    
N26   Ni5   S    
C32   H12   S    
C85   H49   S    
C14   C90   A    
C21   C25   S    
C69   C82   S    
C50   H18   S    
C9    C85   A    
N31   Ni4   S    
C52   C56   A    
N9    N17   A    
C102  N26   A    
C2    C110  A    
C30   H10   S    
C11   C87   A    
C29   H9    S    
C70   C74   A    
C65   H33   S    
C6    C38   S    
C49   H17   S    
C69   C73   A    
C86   H50   S    
C23   C27   S    
C18   H6    S    
C56   C111  S    
N7    N27   A    
C68   H36   S    
C17   H5    S    
C1    C109  A    
C16   C27   S    
C82   H78   S    
C19   H7    S    
C33   C59   A    
C7    C103  A    
C90   H54   S    
C34   C60   A    
N5    Ni5   S    
N15   N23   A    
N20   Ni8   S    
C18   C25   S    
C1    H1    S    
N14   N22   A    
N2    N30   A    
N13   N21   A    
N15   Ni8   S    
N11   Ni4   S    
C95   N19   A    
N1    N29   A    
C91   H55   S    
N14   Ni5   S    
C71   C84   S    
C25   C29   S    
N13   Ni6   S    
C5    C101  A    
C59   C63   S    
N28   Ni7   S    
C97   H61   S    
C108  H72   S    
C27   C31   S    
C52   H20   S    
C84   H44   S    
C41   H13   S    
N6    Ni6   S    
C36   C40   A    
N10   Ni1   S    
C45   H45   S    
C15   C91   A    
C104  N28   A    
N9    Ni2   S    
C61   H21   S    
C77   H37   S    
C53   C57   A    
C19   C23   S    
C16   C100  A    
C47   H47   S    
C88   H52   S    
C5    C45   A    
C100  N24   A    
C33   C37   A    
C56   C60   A    
C46   N6    A    
C107  H71   S    
C45   N5    A    
C63   H23   S    
C22   H74   S    
C35   C39   A    
C21   H73   S    
C8    C48   A    
N18   Ni6   S    
C29   C30   S    
C3    N3    A    
C98   N22   A    
C61   C67   S    
C83   C84   S    
C28   C32   S    
C12   C88   A    
N23   Ni3   S    
N16   N24   A    
N11   N19   A    
C17   C18   S    
C99   H63   S    
C13   C97   A    
C62   H26   S    
N16   Ni7   S    
N17   Ni5   S    
C19   C28   S    
C8    C104  A    
C89   H53   S    
C22   C26   S    
C86   N10   A    
C107  N31   A    
N19   Ni7   S    
C106  N30   A    
C41   C51   A    
N24   Ni4   S    
C26   C30   S    
C4    C112  A    
C105  N29   A    
C67   H35   S    
C102  H66   S    
C13   C26   S    
C16   C92   A    
C76   C80   A    
C9    C74   S    
N4    N32   A    
C43   H15   S    
C9    C93   A    
C72   C83   S    
C20   H8    S    
C78   H38   S    
N30   Ni1   S    
C79   H39   S    
C93   N17   A    
C106  C110  A    
C44   C50   A    
N29   Ni2   S    
C80   H40   S    
C105  C109  A    
C62   H22   S    
C44   H16   S    
C51   H19   S    
C6    C46   A    
C13   C89   A    
C34   C38   A    
N12   Ni3   S    
C107  C111  A    
C4    H4    S    
C31   C32   S    
C43   C49   A    
C24   C28   S    
C15   C99   A    
C92   N16   A    
N6    N26   A    
C39   C43   A    
C36   C68   S    
C10   C86   A    
N5    N25   A    
C100  H64   S    
C66   H30   S    
C20   C27   S    
C63   H27   S    
N3    Ni3   S    
C21   C30   S    
C74   C78   A    
C36   C58   A    
C23   H75   S    
C60   C64   S    
C24   H76   S    
C23   C32   S    
C88   N12   A    
C18   C22   S    
C24   C31   S    
C31   H11   S    
C71   C72   A    
C64   C66   S    
C3    H3    S    
C65   H29   S    
C71   C75   A    
C2    H2    S    
C61   H25   S    
C15   C28   S    
C104  H68   S    
C101  N25   A    
C83   H79   S    
N8    N28   A    
C48   N8    A    
N7    Ni7   S    
N4    Ni4   S    
C68   H32   S    
C51   C55   A    
C62   C68   S    
C6    C102  A    
C14   C25   S    
C37   C41   A    
C69   C70   A    
C84   H80   S    
C17   C21   S    
C92   H56   S    
C66   H34   S    
C49   C53   A    
C101  H65   S    
C35   C67   S    
C42   H14   S    
C3    C111  A    
C79   C80   A    
C108  N32   A    
C108  C112  A    
C40   C44   A    
C54   C58   A    
C54   C109  S    
C73   C77   A    
N12   N20   A    
C35   C57   A    
C96   H60   S    
C12   C75   S    
C42   C52   A    
C7    C39   S    
C85   N9    A    
C12   C96   A    
C81   H77   S    
C64   H24   S    
C8    C40   S    
C105  H69   S    
N25   Ni6   S    
C95   H59   S    
C20   C24   S    
N32   Ni3   S    
C94   H58   S    
C106  H70   S    
C7    C47   A    
C90   N14   A    
C1    N1    A    
