data_mof_unit_9887.cif
_audit_creation_date              2012-12-10T20:49:43-0500
_audit_creation_method            fapswitch 2.2
_symmetry_space_group_name_H-M    P1
_symmetry_Int_Tables_number       1
_space_group_crystal_system       triclinic
_cell_length_a                    8.100757
_cell_length_b                    8.934435
_cell_length_c                    16.874621
_cell_angle_alpha                 89.986365
_cell_angle_beta                  85.272152
_cell_angle_gamma                 90.004315
_cell_volume                      1217.15666178

loop_
_atom_site_label
_atom_site_type_symbol
_atom_type_description
_atom_site_fract_x
_atom_site_fract_y
_atom_site_fract_z
_atom_type_partial_charge
C1    C     C_R   0.499999 0.782043 0.500027 0.942220
C2    C     C_R   0.499999 0.217957 0.499994 0.942222
C3    C     C_1   0.500002 0.934821 0.500024 -0.178924
C4    C     C_1   0.499996 0.065182 0.500016 -0.176664
C5    C     C_R   0.477562 0.493223 0.653183 0.869106
C6    C     C_R   0.522583 0.504763 0.346694 0.869913
C7    C     C_R   0.465326 0.458938 0.737406 -0.079238
C8    C     C_R   0.536220 0.526244 0.261274 -0.083804
C9    C     C_R   0.319976 0.489405 0.785205 -0.126333
C10   C     C_R   0.400091 0.582604 0.224931 -0.135310
C11   C     C_R   0.314398 0.461789 0.866242 -0.057106
C12   C     C_R   0.408935 0.599106 0.143415 -0.059564
C13   C     C_R   0.453630 0.402882 0.899107 0.004604
C14   C     C_R   0.552616 0.556611 0.097519 0.011842
C15   C     C_R   0.594603 0.357853 0.850490 0.051810
C16   C     C_R   0.695153 0.509054 0.133322 0.043903
C17   C     C_R   0.599240 0.387970 0.769409 -0.120775
C18   C     C_R   0.685160 0.494921 0.216086 -0.137269
C19   C     C_2   0.463376 0.418717 0.984183 -0.111221
C20   C     C_2   0.540328 0.541495 0.012577 -0.106955
H1    H     H_    0.300202 0.636035 0.115470 0.155434
H2    H     H_    0.206403 0.495916 0.904125 0.144617
H3    H     H_    0.214236 0.540548 0.760601 0.163183
H4    H     H_    0.285653 0.611353 0.259336 0.161793
H5    H     H_    0.791119 0.454923 0.245155 0.191015
H6    H     H_    0.708293 0.357876 0.731194 0.188222
N1    N     N_1   0.926360 0.500000 0.499990 -0.027833
N2    N     N_1   0.073640 0.500000 0.500010 -0.027646
O1    O     O_R   0.363150 0.714660 0.500000 -0.615532
O2    O     O_R   0.636850 0.285340 0.500000 -0.614966
O3    O     O_R   0.636850 0.714660 0.500000 -0.610619
O4    O     O_R   0.363150 0.285340 0.500000 -0.609402
O5    O     O_R   0.346950 0.500000 0.615800 -0.617318
O6    O     O_R   0.653050 0.500000 0.384200 -0.624923
O7    O     O_R   0.620700 0.500000 0.615800 -0.617679
O8    O     O_R   0.379300 0.500000 0.384200 -0.615300
Zn1   Zn    Zn3+2 0.317220 0.500000 0.500010 1.007199
Zn2   Zn    Zn3+2 0.682780 0.500000 0.499990 1.004514
C21   C     C_2   0.739418 0.287329 0.884399 0.368719
H7    H     H_    0.733638 0.257124 0.946826 0.070307
O9    O     O_2   0.867000 0.261467 0.842948 -0.568449
C22   C     C_2   0.850704 0.468666 0.085138 0.359063
H8    H     H_    0.859809 0.479638 0.020945 0.054706
O10   O     O_2   0.971552 0.423227 0.116657 -0.565513
C23   C     C_2   0.610283 0.669597 0.963571 0.381327
H9    H     H_    0.680610 0.754971 0.991854 0.068375
O11   O     O_2   0.589008 0.684387 0.893267 -0.545542
C24   C     C_2   0.391938 0.291703 0.033372 0.439477
H10   H     H_    0.316254 0.209361 0.005906 0.079691
O12   O     O_2   0.419081 0.273932 0.102812 -0.539376

loop_
_geom_bond_atom_site_label_1
_geom_bond_atom_site_label_2
_ccdc_geom_bond_type
C1    C3    S    
C2    C4    S    
C22   O10   D    
C15   C17   A    
C16   C22   S    
C8    C18   A    
C11   C13   A    
C11   H2    S    
C20   C23   S    
O3    Zn2   S    
C2    O2    A    
C19   C20   D    
C1    O1    A    
C21   O9    D    
O6    Zn2   S    
C23   H9    S    
C9    C11   A    
C15   C21   S    
C18   H5    S    
C10   C12   A    
N2    Zn1   S    
C6    C8    S    
C17   H6    S    
C5    O7    A    
C2    O4    A    
C24   O12   D    
O8    Zn1   S    
C12   C14   A    
C7    C9    A    
C13   C15   A    
C14   C16   A    
C22   H8    S    
C13   C19   S    
N1    Zn2   S    
C3    C4    T    
C21   H7    S    
C14   C20   S    
C1    O3    A    
O7    Zn2   S    
O2    Zn2   S    
C16   C18   A    
C23   O11   D    
O1    Zn1   S    
N1    N2    T    
C5    C7    S    
C19   C24   S    
C24   H10   S    
C9    H3    S    
C10   H4    S    
O4    Zn1   S    
C12   H1    S    
C8    C10   A    
O5    Zn1   S    
C6    O6    A    
C6    O8    A    
C7    C17   A    
C5    O5    A    
