data_mof_unit_42930.cif
_audit_creation_date              2012-12-11T16:50:52-0500
_audit_creation_method            fapswitch 2.2
_symmetry_space_group_name_H-M    P1
_symmetry_Int_Tables_number       1
_space_group_crystal_system       triclinic
_cell_length_a                    6.922506
_cell_length_b                    28.832132
_cell_length_c                    32.133528
_cell_angle_alpha                 100.879779
_cell_angle_beta                  89.751237
_cell_angle_gamma                 90.57117
_cell_volume                      6297.93655631

loop_
_atom_site_label
_atom_site_type_symbol
_atom_type_description
_atom_site_fract_x
_atom_site_fract_y
_atom_site_fract_z
_atom_type_partial_charge
O1    O     O_R   0.494350 0.453170 0.452520 -0.545347
O2    O     O_R   0.820980 0.455850 0.538220 -0.500957
O3    O     O_R   0.994300 0.546830 0.547480 -0.549413
C1    C     C_R   0.651385 0.445429 0.551551 0.791029
O4    O     O_R   0.823860 0.447590 0.452270 -0.546393
O5    O     O_R   0.997200 0.538510 0.460920 -0.547280
C2    C     C_R   0.654602 0.434782 0.436490 0.745373
O6    O     O_R   0.491440 0.461490 0.539080 -0.544012
O7    O     O_3   0.661790 0.529840 0.502940 -0.370253
V1    V     V_3+5 0.935470 0.494460 0.499450 1.514832
O8    O     O_R   0.327090 0.544150 0.461780 -0.544630
C3    C     C_R   0.158927 0.554357 0.448310 0.761982
O9    O     O_R   0.324210 0.552410 0.547730 -0.509216
C4    C     C_R   0.155563 0.565501 0.563323 0.772091
V2    V     V_3+5 0.435840 0.505540 0.500550 1.507102
O10   O     O_3   0.159650 0.470160 0.497060 -0.361124
C5    C     C_R   0.213598 0.889079 0.873394 0.627421
C6    C     C_R   0.222029 0.853008 0.837606 -0.255616
H1    H     H_    0.352992 0.849049 0.818739 0.204179
C7    C     C_R   0.062853 0.822974 0.825618 -0.224894
C8    C     C_R   0.894150 0.829534 0.850575 0.580763
C9    C     C_R   0.884996 0.865532 0.886550 0.531540
C10   C     C_R   0.044619 0.895963 0.898500 -0.419136
C11   C     C_R   0.923408 0.777559 0.757546 -0.081721
H2    H     H_    0.796668 0.799681 0.762025 0.151091
C12   C     C_R   0.935967 0.742184 0.721254 -0.092354
H3    H     H_    0.818582 0.737945 0.698647 0.147465
C13   C     C_R   0.099956 0.713343 0.713771 0.136910
C14   C     C_R   0.251918 0.721098 0.743256 -0.143213
H4    H     H_    0.379720 0.699344 0.738531 0.175739
C15   C     C_R   0.239490 0.756523 0.779499 -0.127688
H5    H     H_    0.358060 0.761287 0.801827 0.192386
C16   C     C_R   0.074687 0.785024 0.787193 0.184700
C17   C     C_R   0.286633 0.669863 0.651559 -0.267262
H6    H     H_    0.407603 0.693448 0.661442 0.158681
C18   C     C_R   0.304038 0.634408 0.614875 0.404103
C19   C     C_R   0.145146 0.604008 0.601505 -0.177493
C20   C     C_R   0.972881 0.610188 0.625284 -0.294319
H7    H     H_    0.849534 0.587159 0.616161 0.188711
C21   C     C_R   0.957278 0.645322 0.661584 0.646822
C22   C     C_R   0.114145 0.675700 0.675117 -0.066991
C23   C     C_R   0.077541 0.658435 0.285087 0.698683
N1    N     N_R   0.124976 0.677167 0.326203 -0.530630
C24   C     C_R   0.165200 0.724407 0.338533 0.794061
C25   C     C_R   0.159390 0.755004 0.308882 -0.281124
C26   C     C_R   0.110918 0.736174 0.266462 -0.090449
C27   C     C_R   0.069358 0.687476 0.254448 -0.004114
C28   C     C_R   0.203583 0.803549 0.320295 0.698734
C29   C     C_R   0.202370 0.832928 0.290166 0.316576
C30   C     C_R   0.144354 0.814779 0.247732 -0.260150
C31   C     C_R   0.102901 0.765969 0.235970 -0.049543
C32   C     C_R   0.052563 0.746738 0.193684 -0.001167
C33   C     C_R   0.012666 0.698112 0.182178 -0.115362
C34   C     C_R   0.020772 0.668895 0.212152 -0.108747
C35   C     C_R   0.121194 0.843692 0.216872 0.737995
N2    N     N_R   0.077146 0.824136 0.175625 -0.526401
C36   C     C_R   0.043740 0.776549 0.163732 0.620860
O11   O     O_2   0.038228 0.611831 0.273865 -0.489104
O12   O     O_2   0.211184 0.741562 0.379311 -0.424471
O13   O     O_2   0.136146 0.891066 0.228076 -0.467103
O14   O     O_2   0.002443 0.758011 0.122949 -0.496780
H8    H     H_    0.974132 0.682420 0.149924 0.184605
H9    H     H_    0.988466 0.631649 0.202030 0.183515
C37   C     C_R   0.889964 0.859192 0.123869 -0.187245
H10   H     H_    0.762643 0.840290 0.131454 0.227567
C38   C     C_R   0.877214 0.888494 0.093748 0.629914
C39   C     C_R   0.041160 0.913647 0.083356 -0.290592
C40   C     C_R   0.216819 0.908261 0.103880 -0.284965
H11   H     H_    0.345544 0.927069 0.096945 0.226616
C41   C     C_R   0.228963 0.878950 0.133916 0.713867
C42   C     C_R   0.065325 0.854219 0.144309 0.134263
C43   C     C_R   0.971811 0.640609 0.381909 0.666226
C44   C     C_R   0.979653 0.610480 0.411377 -0.276240
H12   H     H_    0.852131 0.606343 0.430034 0.177658
C45   C     C_R   0.150920 0.586498 0.417115 -0.228717
C46   C     C_R   0.313662 0.593142 0.392369 -0.259372
H13   H     H_    0.447214 0.574975 0.395778 0.174090
C47   C     C_R   0.304544 0.622542 0.362294 0.669990
C48   C     C_R   0.133801 0.646607 0.356982 0.098413
C49   C     C_R   0.570641 0.223848 0.837909 0.659630
N3    N     N_R   0.579616 0.175912 0.824924 -0.559922
C50   C     C_R   0.594650 0.155819 0.782946 0.627169
C51   C     C_R   0.609549 0.184383 0.751658 -0.186196
C52   C     C_R   0.600118 0.234099 0.764629 -0.094471
C53   C     C_R   0.588018 0.254338 0.808292 -0.201523
C54   C     C_R   0.629770 0.165025 0.707786 0.298857
C55   C     C_R   0.623688 0.194308 0.677773 0.681742
C56   C     C_R   0.610837 0.243672 0.690258 -0.215707
C57   C     C_R   0.601826 0.263660 0.733844 -0.176301
C58   C     C_R   0.593078 0.313212 0.746615 -0.218927
C59   C     C_R   0.586156 0.332952 0.790129 0.685293
C60   C     C_R   0.589473 0.304350 0.820700 0.305112
C61   C     C_R   0.610108 0.273805 0.660283 0.689069
N4    N     N_R   0.602906 0.321796 0.673247 -0.581159
C62   C     C_R   0.595381 0.341799 0.715396 0.692279
O15   O     O_2   0.539758 0.241558 0.879297 -0.467695
O16   O     O_2   0.590990 0.108335 0.771753 -0.495866
O17   O     O_2   0.616268 0.255431 0.618463 -0.433667
O18   O     O_2   0.591234 0.389257 0.726926 -0.428237
C63   C     C_R   0.446319 0.377435 0.632875 0.463000
C64   C     C_R   0.463182 0.407647 0.603541 -0.209228
H14   H     H_    0.337188 0.427235 0.597333 0.216583
C65   C     C_R   0.638732 0.412879 0.582490 -0.287969
C66   C     C_R   0.799521 0.386764 0.591431 0.623727
C67   C     C_R   0.784310 0.356756 0.620801 -0.148053
H15   H     H_    0.909507 0.337134 0.627355 0.191852
C68   C     C_R   0.609947 0.351906 0.641992 0.135933
C69   C     C_R   0.405282 0.120637 0.861647 -0.068837
H16   H     H_    0.281387 0.122798 0.841662 0.170621
C70   C     C_R   0.394723 0.092182 0.892286 -0.168451
H17   H     H_    0.263200 0.072149 0.894618 0.180356
C71   C     C_R   0.552159 0.088856 0.919052 -0.235777
C72   C     C_R   0.721404 0.116229 0.915111 0.330583
C73   C     C_R   0.735248 0.143056 0.882889 0.410424
C74   C     C_R   0.574381 0.145981 0.856340 0.176176
C75   C     C_R   0.717737 0.132586 0.109076 0.593812
C76   C     C_R   0.734308 0.168465 0.145167 0.364809
C77   C     C_R   0.577704 0.177202 0.174247 -0.276536
C78   C     C_R   0.409360 0.149292 0.166313 0.598716
C79   C     C_R   0.394388 0.113595 0.130190 0.530307
C80   C     C_R   0.548691 0.104570 0.101139 -0.496988
C81   C     C_R   0.579509 0.263188 0.208596 0.557249
C82   C     C_R   0.590256 0.299552 0.245006 0.326128
C83   C     C_R   0.607082 0.287620 0.285466 0.066098
C84   C     C_R   0.613293 0.239839 0.288958 -0.133482
H18   H     H_    0.625855 0.230196 0.319814 0.186036
C85   C     C_R   0.601630 0.204143 0.252885 -0.137760
H19   H     H_    0.606761 0.167549 0.256410 0.191072
C86   C     C_R   0.585563 0.215457 0.212496 0.016209
C87   C     C_R   0.785284 0.330542 0.349472 0.590004
C88   C     C_R   0.798221 0.366312 0.385594 -0.248509
H20   H     H_    0.930133 0.369960 0.403975 0.170960
C89   C     C_R   0.642245 0.396672 0.398106 -0.161728
C90   C     C_R   0.473161 0.390588 0.373418 -0.266763
H21   H     H_    0.351595 0.413710 0.382529 0.135245
C91   C     C_R   0.459940 0.355248 0.336525 0.419047
C92   C     C_R   0.617419 0.324999 0.324412 -0.006566
O19   O     O_R   0.699170 0.038480 0.960880 -0.548508
O20   O     O_R   0.366800 0.052460 0.047690 -0.508166
O21   O     O_R   0.193520 0.961530 0.039110 -0.550879
C93   C     C_R   0.536168 0.065578 0.063290 0.843109
O22   O     O_R   0.369630 0.044100 0.961740 -0.539931
O23   O     O_R   0.196370 0.953120 0.952550 -0.512637
C94   C     C_R   0.539729 0.055441 0.949252 0.723748
O24   O     O_R   0.696320 0.046890 0.047450 -0.522206
O25   O     O_3   0.528890 0.970170 0.997080 -0.349644
V3    V     V_3+5 0.255190 0.005530 0.000540 1.670122
O26   O     O_R   0.866460 0.947530 0.952310 -0.507171
C95   C     C_R   0.035162 0.934604 0.936584 0.813158
O27   O     O_R   0.863630 0.955880 0.038270 -0.510501
C96   C     C_R   0.031828 0.945606 0.051784 0.801424
V4    V     V_3+5 0.754830 0.994440 0.999470 1.698503
O28   O     O_3   0.031000 0.029830 0.002920 -0.366365
F1    F     F_    0.370290 0.917799 0.882701 -0.624039
O29   O     O_3   0.473219 0.629612 0.591547 -0.627261
H22   H     H_    0.568456 0.653640 0.605083 0.305623
F2    F     F_    0.790247 0.648463 0.684198 -0.685560
F3    F     F_    0.255790 0.822875 0.360600 -0.547072
O30   O     O_3   0.263595 0.878903 0.303393 -0.543652
H23   H     H_    0.358763 0.885845 0.282215 0.351561
F4    F     F_    0.704731 0.891659 0.074634 -0.648318
F5    F     F_    0.400904 0.874456 0.152791 -0.649177
F6    F     F_    0.806500 0.664094 0.377647 -0.589301
F7    F     F_    0.461637 0.627435 0.338075 -0.594580
O31   O     O_3   0.658700 0.117647 0.692835 -0.549677
H24   H     H_    0.768636 0.108220 0.708969 0.341730
F8    F     F_    0.638152 0.173813 0.636190 -0.553211
F9    F     F_    0.582541 0.380517 0.803723 -0.552043
O32   O     O_3   0.598433 0.326855 0.862435 -0.543980
H25   H     H_    0.706050 0.312416 0.875594 0.350967
O33   O     O_3   0.268236 0.373976 0.651609 -0.607523
H26   H     H_    0.270373 0.348384 0.668224 0.304975
F10   F     F_    0.739549 0.800167 0.840957 -0.644536
F11   F     F_    0.971553 0.389701 0.571633 -0.658405
O34   O     O_3   0.876003 0.118243 0.942366 -0.596630
H27   H     H_    0.825150 0.116886 0.970970 0.317374
O35   O     O_3   0.907359 0.166667 0.879124 -0.598550
H28   H     H_    0.906859 0.179749 0.852792 0.293184
F12   F     F_    0.868583 0.125577 0.081477 -0.585042
O36   O     O_3   0.906546 0.193532 0.150626 -0.529188
H29   H     H_    0.909913 0.214124 0.178945 0.340853
F13   F     F_    0.257952 0.156886 0.193690 -0.598430
F14   F     F_    0.720583 0.869743 0.910100 -0.577644
F15   F     F_    0.229905 0.087152 0.124271 -0.587463
F16   F     F_    0.563479 0.274060 0.169416 -0.630219
O37   O     O_3   0.587745 0.346743 0.242046 -0.601881
H30   H     H_    0.575579 0.349574 0.211933 0.369325
F17   F     F_    0.938170 0.301622 0.338567 -0.643134
O38   O     O_3   0.294468 0.349347 0.312153 -0.576355
H31   H     H_    0.198943 0.373456 0.324665 0.320471

loop_
_geom_bond_atom_site_label_1
_geom_bond_atom_site_label_2
_ccdc_geom_bond_type
O33   H26   S    
C47   C48   A    
C45   C46   A    
C47   F7    S    
O31   H24   S    
C44   H12   S    
C1    O6    A    
C23   O11   S    
N3    C50   A    
C83   C92   S    
C58   C62   A    
C25   C26   A    
N2    C36   A    
O23   V3    S    
C67   C68   A    
O20   V3    S    
C12   H3    S    
C49   C53   A    
C69   C74   A    
C13   C14   A    
C11   C12   A    
C17   H6    S    
C43   C48   A    
O5    C3    A    
C20   H7    S    
C87   F17   S    
C34   H9    S    
C24   O12   S    
N1    C48   S    
V2    O10   S    
C1    C65   S    
C13   C22   S    
C69   H16   S    
C5    C6    A    
C6    H1    S    
O32   H25   S    
C37   C42   A    
C77   C78   A    
C71   C72   A    
C70   H17   S    
O8    V2    S    
C52   C53   A    
C55   F8    S    
C51   C52   A    
C40   H11   S    
C15   C16   A    
C41   C42   A    
O1    V2    S    
C49   O15   S    
C14   H4    S    
O7    V1    S    
C81   C86   A    
C17   C18   A    
C76   O36   S    
C93   O24   A    
C72   O34   S    
C35   O13   S    
N2    C42   S    
C38   C39   A    
C10   C95   S    
O37   H30   S    
C64   C65   A    
C8    C9    A    
C63   O33   S    
C44   C45   A    
C9    F14   S    
N4    C62   A    
C54   O31   S    
C5    F1    S    
C41   F5    S    
O21   V3    S    
C66   C67   A    
C53   C60   A    
C73   C74   A    
C77   C86   S    
N4    C68   S    
C75   C80   A    
C39   C96   S    
C39   C40   A    
O24   V4    S    
C64   H14   S    
C80   C93   S    
C21   F2    S    
C82   C83   A    
C11   H2    S    
C72   C73   A    
C59   C60   A    
O4    C2    A    
C2    C89   S    
C54   C55   A    
C43   C44   A    
C81   F16   S    
C90   C91   A    
O19   V4    S    
C33   C34   A    
C28   F3    S    
C26   C31   A    
C31   C32   A    
C38   F4    S    
C78   F13   S    
C37   C38   A    
O2    C1    A    
N1    C24   A    
C85   C86   A    
C17   C22   A    
C19   C20   A    
C11   C16   A    
C33   H8    S    
C59   F9    S    
O30   H23   S    
C60   O32   S    
O8    C3    A    
C73   O35   S    
N3    C74   S    
C35   N2    A    
C30   C31   A    
C79   C80   A    
C61   N4    A    
C5    C10   A    
C46   H13   S    
C79   F15   S    
O21   C96   A    
O3    C4    A    
O35   H28   S    
C27   C34   A    
O25   V4    S    
C7    C16   S    
C28   C29   A    
C50   C51   A    
O6    V2    S    
C8    F10   S    
O9    V2    S    
C84   H18   S    
C50   O16   S    
O27   V4    S    
C3    C45   S    
C23   N1    A    
C85   H19   S    
O2    V1    S    
C51   C54   A    
C65   C66   A    
O22   C94   A    
C32   C33   A    
O25   V3    S    
C25   C28   A    
C56   C61   A    
C18   C19   A    
C63   C68   A    
C7    C8    A    
O1    C2    A    
O22   V3    S    
C15   H5    S    
C62   O18   S    
C24   C25   A    
O26   V4    S    
C46   C47   A    
C49   N3    A    
C88   C89   A    
O5    V1    S    
C66   F11   S    
C78   C79   A    
C36   O14   S    
C90   H21   S    
C67   H15   S    
C12   C13   A    
C30   C35   A    
O27   C96   A    
C91   O38   S    
C37   H10   S    
C71   C94   S    
C82   O37   S    
C87   C88   A    
C57   C58   A    
O4    V1    S    
C14   C15   A    
O34   H27   S    
O19   C94   A    
C76   C77   A    
C4    C19   S    
C20   C21   A    
O20   C93   A    
C58   C59   A    
C89   C90   A    
V1    O10   S    
O3    V1    S    
C63   C64   A    
C43   F6    S    
C69   C70   A    
C75   C76   A    
C6    C7    A    
O26   C95   A    
O7    V2    S    
O38   H31   S    
V3    O28   S    
C70   C71   A    
C26   C27   A    
C32   C36   A    
O23   C95   A    
C23   C27   A    
C56   C57   A    
C55   C56   A    
C40   C41   A    
C29   C30   A    
C52   C57   A    
C75   F12   S    
O29   H22   S    
C84   C85   A    
C9    C10   A    
C91   C92   A    
C21   C22   A    
V4    O28   S    
C81   C82   A    
O9    C4    A    
C87   C92   A    
C29   O30   S    
C61   O17   S    
O36   H29   S    
C88   H20   S    
C18   O29   S    
C83   C84   A    
