data_mof_unit_29090.cif
_audit_creation_date              2012-10-26T19:02:33-0400
_audit_creation_method            fapswitch 2.2
_symmetry_space_group_name_H-M    P1
_symmetry_Int_Tables_number       1
_space_group_crystal_system       triclinic
_cell_length_a                    17.274975
_cell_length_b                    8.683441
_cell_length_c                    7.454132
_cell_angle_alpha                 102.73669
_cell_angle_beta                  91.697257
_cell_angle_gamma                 93.07752
_cell_volume                      1088.09230512

loop_
_atom_site_label
_atom_site_type_symbol
_atom_type_description
_atom_site_fract_x
_atom_site_fract_y
_atom_site_fract_z
_atom_type_partial_charge
C1    C     C_R   0.497625 0.199768 0.453734 0.551868
C2    C     C_R   0.776925 0.514388 0.637654 -0.107008
C3    C     C_R   0.143765 0.505379 0.358840 0.020348
C4    C     C_R   0.856233 0.494624 0.641162 0.020347
C5    C     C_R   0.107427 0.551325 0.527378 0.050999
C6    C     C_R   0.892571 0.448656 0.472627 0.051001
C7    C     C_R   0.150917 0.582449 0.694506 -0.131886
C8    C     C_R   0.849081 0.417520 0.305501 -0.131886
C9    C     C_R   0.230431 0.562902 0.696186 -0.143082
C10   C     C_R   0.769568 0.437075 0.303818 -0.143082
C11   C     C_2   0.023821 0.563753 0.532638 -0.138829
C12   C     C_R   0.502375 0.800231 0.546266 0.551867
C13   C     C_2   0.976178 0.436227 0.467369 -0.138833
C14   C     C_3   0.899779 0.516506 0.824736 -0.405016
C15   C     C_3   0.100216 0.483514 0.175267 -0.404984
C16   C     C_2   0.496500 0.032021 0.427516 -0.155433
C17   C     C_2   0.503500 0.967979 0.572484 -0.155433
C18   C     C_R   0.351017 0.503346 0.523414 0.544402
C19   C     C_R   0.648983 0.496654 0.476586 0.544402
C20   C     C_R   0.266876 0.514174 0.529790 0.000428
C21   C     C_R   0.733123 0.485824 0.470210 0.000427
C22   C     C_R   0.223074 0.485627 0.362345 -0.107011
Cu1   Cu    Cu3+1 0.508700 0.517250 0.683000 0.953554
Cu2   Cu    Cu3+1 0.491300 0.482750 0.317000 0.953554
H1    H     H_    0.250815 0.449554 0.232531 0.131013
H2    H     H_    0.510093 0.039154 0.712365 0.134093
H3    H     H_    0.439071 0.377835 0.957238 0.237108
H4    H     H_    0.560929 0.622164 0.042762 0.237108
H5    H     H_    0.859792 0.534465 0.940422 0.116579
H6    H     H_    0.931987 0.410011 0.829118 0.135278
H7    H     H_    0.940984 0.621936 0.848571 0.125793
H8    H     H_    0.140208 0.465539 0.059578 0.116574
H9    H     H_    0.058998 0.378086 0.151432 0.125792
H10   H     H_    0.068015 0.590036 0.170892 0.135269
H11   H     H_    0.749184 0.550479 0.767464 0.131017
H12   H     H_    0.736684 0.412180 0.173613 0.129400
H13   H     H_    0.263315 0.587785 0.826392 0.129397
H14   H     H_    0.998524 0.323435 0.403689 0.124139
H15   H     H_    0.001475 0.676544 0.596320 0.124143
H16   H     H_    0.122898 0.620267 0.823560 0.104303
H17   H     H_    0.877100 0.379690 0.176448 0.104303
H18   H     H_    0.489907 0.960846 0.287635 0.134093
N1    N     N_2   0.478180 0.456750 0.041980 -0.259045
N2    N     N_2   0.521820 0.543250 0.958020 -0.259045
O1    O     O_R   0.505650 0.286040 0.618880 -0.503582
O2    O     O_R   0.494350 0.713960 0.381120 -0.503582
O3    O     O_R   0.490960 0.256910 0.309800 -0.498127
O4    O     O_R   0.509040 0.743090 0.690200 -0.498127
O5    O     O_R   0.394600 0.516230 0.672450 -0.507086
O6    O     O_R   0.605400 0.483770 0.327550 -0.507086
O7    O     O_R   0.379910 0.487100 0.363380 -0.510216
O8    O     O_R   0.620090 0.512900 0.636620 -0.510216

loop_
_geom_bond_atom_site_label_1
_geom_bond_atom_site_label_2
_ccdc_geom_bond_type
C2    H11   S    
C12   C17   S    
C2    C4    A    
N1    N2    D    
Cu1   O1    S    
H3    N1    S    
C12   O2    A    
C9    C20   A    
C12   O4    A    
C14   H7    S    
Cu1   Cu2   S    
Cu2   O2    S    
C7    C9    A    
Cu2   O3    S    
Cu2   O7    S    
C9    H13   S    
Cu1   O8    S    
C15   H8    S    
C1    C16   S    
C6    C13   S    
C4    C14   S    
C11   C13   D    
C19   O6    A    
C1    O1    A    
C13   H14   S    
C2    C21   A    
C17   H2    S    
C4    C6    A    
C19   C21   S    
C10   H12   S    
C18   O7    A    
C5    C11   S    
C18   C20   S    
C10   C21   A    
Cu2   O6    S    
C11   H15   S    
Cu1   O5    S    
C20   C22   A    
C14   H5    S    
C16   H18   S    
C3    C15   S    
C8    H17   S    
C8    C10   A    
C5    C7    A    
Cu2   N1    S    
C1    O3    A    
C3    C22   A    
C6    C8    A    
Cu1   O4    S    
C15   H10   S    
C14   H6    S    
C7    H16   S    
C19   O8    A    
H4    N2    S    
Cu1   N2    S    
C18   O5    A    
C15   H9    S    
C16   C17   D    
C3    C5    A    
C22   H1    S    
