data_mof_unit_55941.cif
_audit_creation_date              2012-12-10T18:05:12-0500
_audit_creation_method            fapswitch 2.2
_symmetry_space_group_name_H-M    P1
_symmetry_Int_Tables_number       1
_space_group_crystal_system       triclinic
_cell_length_a                    9.486679
_cell_length_b                    10.764096
_cell_length_c                    17.008514
_cell_angle_alpha                 87.732337
_cell_angle_beta                  92.825998
_cell_angle_gamma                 91.062713
_cell_volume                      1733.12292898

loop_
_atom_site_label
_atom_site_type_symbol
_atom_type_description
_atom_site_fract_x
_atom_site_fract_y
_atom_site_fract_z
_atom_type_partial_charge
C1    C     C_R   0.498377 0.261686 0.492177 0.821522
C2    C     C_R   0.501924 0.736495 0.510622 0.835276
C3    C     C_R   0.376915 0.933234 0.525865 0.148849
C4    C     C_R   0.628690 0.061277 0.489354 0.141317
C5    C     C_R   0.504739 0.870634 0.523519 -0.199771
C6    C     C_R   0.497651 0.124805 0.486047 -0.164163
C7    C     C_R   0.074816 0.419779 0.549482 0.245791
C8    C     C_R   0.925314 0.581418 0.451230 0.248538
C9    C     C_R   0.926477 0.420273 0.548876 -0.049474
C10   C     C_R   0.073452 0.579353 0.450863 -0.054895
C11   C     C_R   0.516339 0.509782 0.651082 0.841652
C12   C     C_R   0.483176 0.487110 0.348909 0.856309
C13   C     C_R   0.520710 0.521234 0.738224 -0.210853
C14   C     C_R   0.470095 0.450242 0.264027 -0.201312
C15   C     C_R   0.393469 0.510156 0.777783 0.078308
C16   C     C_R   0.588831 0.423926 0.217698 0.036399
C17   C     C_R   0.397346 0.453583 0.853644 0.127360
C18   C     C_R   0.560954 0.377854 0.141287 0.138720
C19   C     C_R   0.522648 0.469606 0.901909 0.211185
C20   C     C_R   0.431468 0.409111 0.101166 0.269068
C21   C     C_R   0.646102 0.518444 0.867231 0.083068
C22   C     C_R   0.313481 0.426238 0.145902 0.076970
C23   C     C_R   0.648073 0.535929 0.784208 0.098925
C24   C     C_R   0.331684 0.428954 0.228637 0.095721
C25   C     C_R   0.369981 0.054888 0.493614 0.102795
C26   C     C_R   0.631987 0.938652 0.520667 0.104933
Cu1   Cu    Cu3+1 0.640660 0.500020 0.500000 0.976033
Cu2   Cu    Cu3+1 0.359340 0.499980 0.500000 0.972534
H1    H     H_    0.870628 0.357111 0.587958 0.160695
H2    H     H_    0.129430 0.643244 0.412283 0.171318
N1    N     N_2   0.529498 0.447543 0.985334 -0.241948
N2    N     N_2   0.416183 0.423622 0.017247 -0.228141
N3    N     N_R   0.852070 0.500030 0.499980 -0.179610
N4    N     N_R   0.147930 0.499970 0.500020 -0.185838
O1    O     O_R   0.618740 0.319660 0.500000 -0.587013
O2    O     O_R   0.381260 0.680340 0.500000 -0.581617
O3    O     O_R   0.381170 0.319630 0.500010 -0.555481
O4    O     O_R   0.618830 0.680370 0.499990 -0.553522
O5    O     O_R   0.631780 0.498870 0.613920 -0.545686
O6    O     O_R   0.368220 0.501130 0.386080 -0.539890
O7    O     O_R   0.394210 0.498840 0.613930 -0.573801
O8    O     O_R   0.605790 0.501160 0.386070 -0.575615
C27   C     C_3   0.744052 0.450316 0.241697 -0.362697
C28   C     C_3   0.808618 0.548344 0.185911 -0.786798
H3    H     H_    0.813818 0.513450 0.125691 0.238992
H4    H     H_    0.745122 0.634215 0.183278 0.269392
H5    H     H_    0.917651 0.572217 0.207643 0.271603
H6    H     H_    0.764906 0.483707 0.300526 0.268383
H7    H     H_    0.806984 0.364904 0.243291 0.197466
C29   C     C_3   0.262998 0.581186 0.747497 -0.305330
C30   C     C_3   0.230182 0.685802 0.801757 -0.833190
H8    H     H_    0.203607 0.649361 0.860987 0.264341
H9    H     H_    0.322647 0.750191 0.807857 0.244619
H10   H     H_    0.139099 0.739462 0.776039 0.263379
H11   H     H_    0.278520 0.629490 0.689997 0.217139
H12   H     H_    0.171088 0.517770 0.739089 0.243909
C31   C     C_3   0.661164 0.287744 0.105705 -0.372707
C32   C     C_3   0.584089 0.169473 0.078960 -0.829341
H13   H     H_    0.526771 0.125183 0.128431 0.250570
H14   H     H_    0.508116 0.189998 0.028674 0.259688
H15   H     H_    0.661822 0.102586 0.059556 0.241186
H16   H     H_    0.716877 0.331734 0.056043 0.207513
H17   H     H_    0.744524 0.255267 0.148811 0.202330
C33   C     C_3   0.291424 0.348552 0.869641 -0.340596
C34   C     C_3   0.146655 0.391580 0.891824 -0.820550
H18   H     H_    0.079445 0.417195 0.838906 0.265676
H19   H     H_    0.156685 0.471870 0.930252 0.264811
H20   H     H_    0.091228 0.314191 0.923267 0.230675
H21   H     H_    0.276870 0.292549 0.816242 0.213101
H22   H     H_    0.334058 0.281880 0.915843 0.203359
C35   C     C_3   0.774688 0.552795 0.919414 -0.359035
C36   C     C_3   0.770978 0.689518 0.939682 -0.793600
H23   H     H_    0.768359 0.750057 0.885247 0.271133
H24   H     H_    0.676202 0.707050 0.973203 0.255315
H25   H     H_    0.866432 0.714195 0.976478 0.232210
H26   H     H_    0.780628 0.495629 0.974933 0.192234
H27   H     H_    0.874327 0.533422 0.891351 0.224389
C37   C     C_3   0.169418 0.441597 0.104093 -0.364679
C38   C     C_3   0.145460 0.577261 0.078416 -0.837018
H28   H     H_    0.041492 0.585515 0.046054 0.233751
H29   H     H_    0.228785 0.611988 0.039099 0.264425
H30   H     H_    0.146067 0.635733 0.130804 0.268102
H31   H     H_    0.160583 0.381447 0.052881 0.207253
H32   H     H_    0.080926 0.409474 0.139798 0.227815
I1    I     I_    0.837771 0.603344 0.731450 -0.508391
I2    I     I_    0.149871 0.377062 0.295322 -0.496149
C39   C     C_3   0.228134 0.096558 0.456517 -0.357129
C40   C     C_3   0.189273 0.024234 0.382648 -0.815392
H33   H     H_    0.265578 0.047585 0.336579 0.262001
H34   H     H_    0.190318 0.922322 0.395069 0.259584
H35   H     H_    0.081946 0.050228 0.359377 0.257989
H36   H     H_    0.143979 0.083344 0.499282 0.218898
H37   H     H_    0.226439 0.194876 0.436482 0.261346
C41   C     C_3   0.763280 0.889803 0.566229 -0.369573
C42   C     C_3   0.813274 0.977312 0.631225 -0.838515
H38   H     H_    0.865473 0.061869 0.606096 0.252933
H39   H     H_    0.722664 0.004914 0.665281 0.259327
H40   H     H_    0.890309 0.929684 0.672772 0.258595
H41   H     H_    0.740627 0.799461 0.596933 0.247886
H42   H     H_    0.849191 0.874024 0.526356 0.218076
C43   C     C_3   0.280346 0.897841 0.592511 -0.384596
C44   C     C_3   0.147620 0.824217 0.568319 -0.803385
H43   H     H_    0.098066 0.860409 0.512043 0.254449
H44   H     H_    0.171218 0.724915 0.564627 0.275826
H45   H     H_    0.070692 0.829349 0.614892 0.248554
H46   H     H_    0.339646 0.843573 0.639895 0.187733
H47   H     H_    0.247688 0.983639 0.620604 0.218810
C45   C     C_3   0.761886 0.116058 0.453137 -0.348030
C46   C     C_3   0.734725 0.157541 0.366803 -0.806986
H48   H     H_    0.692298 0.078388 0.332383 0.258718
H49   H     H_    0.658896 0.234822 0.360547 0.247430
H50   H     H_    0.835538 0.190098 0.341896 0.245950
H51   H     H_    0.809304 0.192616 0.487506 0.218101
H52   H     H_    0.846111 0.046182 0.453167 0.207697
I3    I     I_    0.170029 0.288505 0.630829 -0.485785
I4    I     I_    0.831934 0.721082 0.374864 -0.449849

loop_
_geom_bond_atom_site_label_1
_geom_bond_atom_site_label_2
_ccdc_geom_bond_type
C43   H47   S    
C39   C40   S    
C26   C41   S    
C43   C44   S    
C5    C26   A    
C40   H34   S    
C42   H38   S    
C19   N1    S    
C42   H40   S    
C31   H16   S    
Cu1   N3    S    
C4    C45   S    
C21   C35   S    
C41   H41   S    
C19   C21   A    
C46   H49   S    
C17   C33   S    
C35   H26   S    
C6    C25   A    
Cu2   O6    S    
Cu1   O4    S    
C7    I3    S    
Cu2   O7    S    
C25   C39   S    
C45   C46   S    
C13   C23   A    
C44   H45   S    
C15   C17   A    
C15   C29   S    
C14   C24   A    
C10   H2    S    
C12   O8    A    
C37   H31   S    
Cu1   O5    S    
C34   H19   S    
C33   H22   S    
C27   H6    S    
C18   C20   A    
C28   H5    S    
C1    O3    A    
C3    C43   S    
C32   H15   S    
Cu2   N4    S    
C39   H36   S    
C9    N3    A    
C44   H43   S    
C36   H25   S    
C28   H4    S    
C31   H17   S    
C1    C6    S    
C3    C25   A    
C22   C37   S    
C4    C6    A    
C46   H50   S    
C38   H29   S    
C37   C38   S    
C27   H7    S    
Cu1   O1    S    
C32   H13   S    
C29   H12   S    
C30   H8    S    
C30   H9    S    
C45   H51   S    
C12   O6    A    
C44   H44   S    
C27   C28   S    
C2    O4    A    
C18   C31   S    
N1    N2    D    
C40   H35   S    
C41   H42   S    
C34   H20   S    
C29   C30   S    
C10   N4    A    
C16   C18   A    
C33   H21   S    
C11   O5    A    
C16   C27   S    
C36   H24   S    
C20   C22   A    
C13   C15   A    
C7    N4    A    
C14   C16   A    
C2    C5    S    
C35   H27   S    
C28   H3    S    
C1    O1    A    
C20   N2    S    
C2    O2    A    
C43   H46   S    
C7    C9    A    
C12   C14   S    
C36   H23   S    
C3    C5    A    
C38   H30   S    
C4    C26   A    
C42   H39   S    
C9    H1    S    
C29   H11   S    
C30   H10   S    
C45   H52   S    
C33   C34   S    
C21   C23   A    
C35   C36   S    
C46   H48   S    
C11   C13   S    
Cu1   O8    S    
C31   C32   S    
C24   I2    S    
Cu2   O3    S    
C39   H37   S    
C17   C19   A    
C11   O7    A    
C22   C24   A    
C8    N3    A    
C41   C42   S    
C8    I4    S    
C38   H28   S    
C37   H32   S    
C40   H33   S    
Cu2   O2    S    
C8    C10   A    
C34   H18   S    
C23   I1    S    
Cu1   Cu2   S    
C32   H14   S    
