data_mof_unit_18776.cif
_audit_creation_date              2012-12-10T17:45:33-0500
_audit_creation_method            fapswitch 2.2
_symmetry_space_group_name_H-M    P1
_symmetry_Int_Tables_number       1
_space_group_crystal_system       triclinic
_cell_length_a                    11.520488
_cell_length_b                    10.612037
_cell_length_c                    10.003269
_cell_angle_alpha                 90.174874
_cell_angle_beta                  90.163165
_cell_angle_gamma                 92.732933
_cell_volume                      1221.5559774

loop_
_atom_site_label
_atom_site_type_symbol
_atom_type_description
_atom_site_fract_x
_atom_site_fract_y
_atom_site_fract_z
_atom_type_partial_charge
C1    C     C_R   0.502064 0.260946 0.500021 0.856266
C2    C     C_R   0.508932 0.871773 0.500651 -0.073570
C3    C     C_R   0.307380 0.385954 0.135747 0.188470
C4    C     C_R   0.282330 0.500385 0.499852 0.883133
C5    C     C_R   0.201028 0.374134 0.067341 0.038762
C6    C     C_R   0.202030 0.373590 0.929088 -0.332202
C7    C     C_R   0.308053 0.384399 0.862207 0.167083
C8    C     C_R   0.406222 0.443730 0.927466 0.065391
C9    C     C_R   0.405840 0.444586 0.071368 0.057316
C10   C     C_R   0.588293 0.555026 0.071959 -0.164008
C11   C     C_R   0.588199 0.556250 0.929194 0.160269
C12   C     C_R   0.805022 0.081563 0.641491 -0.174665
C13   C     C_R   0.502355 0.739105 0.500172 0.848522
C14   C     C_R   0.717724 0.500862 0.500157 0.861871
C15   C     C_1   0.161724 0.500189 0.499628 -0.201339
C16   C     C_1   0.059410 0.500098 0.499874 0.002379
C17   C     C_1   0.940620 0.500303 0.500334 0.001110
C18   C     C_1   0.838318 0.500622 0.500475 -0.188886
C19   C     C_R   0.707806 0.141993 0.595404 -0.207766
C20   C     C_R   0.805543 0.949611 0.641988 0.167198
C21   C     C_R   0.707855 0.879234 0.595398 -0.194157
C22   C     C_R   0.608449 0.939515 0.549435 0.051446
C23   C     C_R   0.608427 0.071497 0.549280 0.090754
C24   C     C_R   0.508797 0.128719 0.500461 -0.075078
C25   C     C_R   0.412074 0.059291 0.452492 -0.223836
C26   C     C_R   0.412452 0.930522 0.451648 -0.201429
H1    H     H_    0.335345 0.104779 0.418238 0.135720
H2    H     H_    0.685853 0.714552 0.890880 0.161085
H3    H     H_    0.759091 0.580294 0.888855 0.164424
H4    H     H_    0.971472 0.950596 0.716107 0.172871
H5    H     H_    0.880621 0.834914 0.773119 0.178175
H6    H     H_    0.251128 0.293553 0.304002 0.187420
H7    H     H_    0.330244 0.209346 0.198077 0.157608
H8    H     H_    0.066790 0.248618 0.102136 0.181923
H9    H     H_    0.033748 0.401778 0.113415 0.199428
H10   H     H_    0.124315 0.339925 0.876168 0.157343
H11   H     H_    0.711686 0.243893 0.595446 0.149447
H12   H     H_    0.880055 0.137934 0.676154 0.130019
H13   H     H_    0.711186 0.777506 0.594616 0.152103
H14   H     H_    0.336622 0.876274 0.415137 0.147184
H15   H     H_    0.660309 0.600686 0.125831 0.147711
H16   H     H_    0.334589 0.209507 0.795356 0.166866
H17   H     H_    0.246225 0.290314 0.696898 0.160870
N1    N     N_R   0.498930 0.498800 0.142780 -0.102216
N2    N     N_R   0.498900 0.498720 0.857170 -0.096156
N3    N     N_3   0.322359 0.298433 0.754268 -0.368784
N4    N     N_3   0.681745 0.620257 0.859908 -0.402386
N5    N     N_3   0.905103 0.885377 0.687294 -0.459441
N6    N     N_3   0.323706 0.298568 0.241363 -0.376475
N7    N     N_3   0.096467 0.337374 0.137244 -0.467476
O1    O     O_R   0.500000 0.316780 0.614690 -0.601204
O2    O     O_R   0.499990 0.316750 0.385360 -0.590917
O3    O     O_R   0.334450 0.500030 0.614670 -0.595815
O4    O     O_R   0.334440 0.500000 0.385330 -0.599941
O5    O     O_R   0.500010 0.683250 0.614640 -0.603176
O6    O     O_R   0.500000 0.683220 0.385310 -0.609820
O7    O     O_R   0.665560 0.500000 0.614670 -0.599390
O8    O     O_R   0.665550 0.499970 0.385330 -0.612539
Zn1   Zn    Zn3+2 0.500010 0.500020 0.653130 0.971393
Zn2   Zn    Zn3+2 0.499990 0.499980 0.346870 0.961109

loop_
_geom_bond_atom_site_label_1
_geom_bond_atom_site_label_2
_ccdc_geom_bond_type
C2    C22   A    
C19   C23   A    
C23   C24   A    
H2    N4    S    
C6    C7    A    
C3    C9    A    
O5    Zn1   S    
C4    O3    A    
C25   H1    S    
C19   H11   S    
C14   C18   S    
C11   N4    S    
C21   H13   S    
C13   O6    A    
C12   C20   A    
H9    N7    S    
C17   C18   T    
O3    Zn1   S    
C7    C8    A    
C2    C26   A    
O4    Zn2   S    
C21   C22   A    
C24   C25   A    
C10   H15   S    
C1    O1    A    
C26   H14   S    
C20   N5    S    
N1    Zn2   S    
C12   C19   A    
H4    N5    S    
C1    O2    A    
H3    N4    S    
O8    Zn2   S    
H5    N5    S    
C4    C15   S    
C12   H12   S    
C5    C6    A    
C14   O8    A    
H17   N3    S    
C5    N7    S    
C11   N2    A    
O7    Zn1   S    
H8    N7    S    
C10   C11   A    
C10   N1    A    
C15   C16   T    
C3    N6    S    
C7    N3    S    
C3    C5    A    
O1    Zn1   S    
C20   C21   A    
C1    C24   S    
H16   N3    S    
C2    C13   S    
C14   O7    A    
C22   C23   A    
N2    Zn1   S    
C9    N1    A    
O2    Zn2   S    
C4    O4    A    
C25   C26   A    
C8    N2    A    
H6    N6    S    
H7    N6    S    
O6    Zn2   S    
C16   C17   S    
C6    H10   S    
C8    C9    A    
C13   O5    A    
