data_mof_unit_31376.cif
_audit_creation_date              2012-12-10T16:45:23-0500
_audit_creation_method            fapswitch 2.2
_symmetry_space_group_name_H-M    P1
_symmetry_Int_Tables_number       1
_space_group_crystal_system       triclinic
_cell_length_a                    7.418813
_cell_length_b                    8.682915
_cell_length_c                    15.909524
_cell_angle_alpha                 94.292315
_cell_angle_beta                  74.594575
_cell_angle_gamma                 103.292853
_cell_volume                      961.445284686

loop_
_atom_site_label
_atom_site_type_symbol
_atom_type_description
_atom_site_fract_x
_atom_site_fract_y
_atom_site_fract_z
_atom_type_partial_charge
C1    C     C_R   0.545235 0.800253 0.502594 0.885045
C2    C     C_R   0.454765 0.199747 0.497406 0.885046
C3    C     C_R   0.387038 0.296993 0.040801 -0.204297
C4    C     C_R   0.612954 0.703007 0.959201 -0.204296
C5    C     C_R   0.251714 0.248498 0.993456 -0.203022
C6    C     C_R   0.748279 0.751502 0.006545 -0.203021
C7    C     C_2   0.570656 0.968234 0.503911 -0.351071
C8    C     C_2   0.429344 0.031766 0.496089 -0.351070
C9    C     C_R   0.383017 0.489404 0.666393 0.791397
C10   C     C_R   0.616983 0.510596 0.333607 0.791398
C11   C     C_R   0.309619 0.466284 0.761856 -0.136358
C12   C     C_R   0.690381 0.533715 0.238144 -0.136358
C13   C     C_R   0.119846 0.282888 0.875792 -0.228179
C14   C     C_R   0.880150 0.717112 0.124208 -0.228179
C15   C     C_R   0.145988 0.346425 0.794724 -0.044657
C16   C     C_R   0.854010 0.653575 0.205276 -0.044658
C17   C     C_R   0.424687 0.542401 0.818164 -0.089612
C18   C     C_R   0.575313 0.457596 0.181837 -0.089608
C19   C     C_R   0.390338 0.483045 0.903796 0.040317
C20   C     C_R   0.609658 0.516954 0.096205 0.040317
C21   C     C_R   0.249773 0.340899 0.926083 0.138787
C22   C     C_R   0.750222 0.659101 0.073918 0.138786
C23   C     C_R   0.501700 0.547253 0.964762 0.066750
C24   C     C_R   0.498294 0.452746 0.035239 0.066750
Cu1   Cu    Cu3+1 0.322120 0.483240 0.490330 0.994951
Cu2   Cu    Cu3+1 0.677880 0.516760 0.509670 0.994951
H1    H     H_    0.158383 0.131840 0.004882 0.135708
H2    H     H_    0.841609 0.868160 0.995120 0.135708
H3    H     H_    0.005631 0.179595 0.896901 0.137469
H4    H     H_    0.994364 0.820405 0.103098 0.137469
H5    H     H_    0.404911 0.208284 0.079805 0.159499
H6    H     H_    0.595081 0.791714 0.920196 0.159497
H7    H     H_    0.706676 0.039915 0.511344 0.191023
H8    H     H_    0.293324 0.960085 0.488656 0.191023
H9    H     H_    0.003625 0.614264 0.568942 0.236545
H10   H     H_    0.996375 0.385736 0.431058 0.236544
N1    N     N_2   0.945180 0.542040 0.524240 -0.204050
N2    N     N_2   0.054820 0.457960 0.475760 -0.204050
O1    O     O_R   0.384450 0.714270 0.493720 -0.585291
O2    O     O_R   0.615550 0.285730 0.506280 -0.585291
O3    O     O_R   0.684880 0.742590 0.510050 -0.572155
O4    O     O_R   0.315120 0.257410 0.489950 -0.572155
O5    O     O_R   0.265540 0.477900 0.617090 -0.585796
O6    O     O_R   0.734460 0.522100 0.382910 -0.585796
O7    O     O_R   0.565970 0.506210 0.633420 -0.560859
O8    O     O_R   0.434030 0.493790 0.366580 -0.560860
C25   C     C_1   0.408213 0.334938 0.218487 0.247964
N3    N     N_1   0.275106 0.237828 0.248604 -0.281769
C26   C     C_1   0.591793 0.665053 0.781514 0.247972
N4    N     N_1   0.724905 0.762157 0.751397 -0.281771
C27   C     C_1   0.984379 0.728085 0.257136 0.278912
N5    N     N_1   0.089016 0.787855 0.298497 -0.257257
C28   C     C_1   0.015619 0.271917 0.742863 0.278913
N6    N     N_1   0.910982 0.212146 0.701503 -0.257259

loop_
_geom_bond_atom_site_label_1
_geom_bond_atom_site_label_2
_ccdc_geom_bond_type
Cu1   O4    S    
C10   O8    A    
C19   C23   A    
C23   C24   A    
Cu2   N1    S    
C9    O7    A    
N1    N2    D    
C6    H2    S    
Cu1   N2    S    
C7    H7    S    
C25   N3    T    
C16   C27   S    
C18   C25   S    
Cu1   O5    S    
C11   C15   A    
H10   N2    S    
C13   C21   A    
C7    C8    D    
C8    H8    S    
C28   N6    T    
Cu1   O1    S    
C3    H5    S    
C9    C11   S    
Cu2   O2    S    
C3    C24   A    
C4    H6    S    
C10   C12   S    
C2    O4    A    
C15   C28   S    
C1    O3    A    
C19   C21   A    
C14   H4    S    
C18   C20   A    
C13   C15   A    
C14   C22   A    
C14   C16   A    
C9    O5    A    
C13   H3    S    
Cu2   O6    S    
C27   N5    T    
C6    C22   A    
C17   C19   A    
C2    O2    A    
C5    C21   A    
C4    C6    A    
C26   N4    T    
C17   C26   S    
C4    C23   A    
C1    O1    A    
C11   C17   A    
C1    C7    S    
Cu2   O7    S    
H9    N1    S    
Cu1   Cu2   S    
C5    H1    S    
C10   O6    A    
Cu1   O8    S    
C20   C24   A    
C2    C8    S    
C12   C16   A    
Cu2   O3    S    
C20   C22   A    
C3    C5    A    
C12   C18   A    
