data_mof_unit_36763.cif
_audit_creation_date              2012-12-11T14:21:04-0500
_audit_creation_method            fapswitch 2.2
_symmetry_space_group_name_H-M    P1
_symmetry_Int_Tables_number       1
_space_group_crystal_system       triclinic
_cell_length_a                    22.015728
_cell_length_b                    7.208472
_cell_length_c                    14.980053
_cell_angle_alpha                 90.410369
_cell_angle_beta                  107.298163
_cell_angle_gamma                 90.036545
_cell_volume                      2269.73716522

loop_
_atom_site_label
_atom_site_type_symbol
_atom_type_description
_atom_site_fract_x
_atom_site_fract_y
_atom_site_fract_z
_atom_type_partial_charge
O1    O     O_R   0.584770 0.505770 0.002090 -0.533276
O2    O     O_R   0.415230 0.005770 0.997910 -0.529430
O3    O     O_R   0.467060 0.173340 0.861950 -0.523335
O4    O     O_R   0.532940 0.673340 0.138050 -0.533071
C1    C     C_R   0.454463 0.343728 0.826051 0.748669
C2    C     C_R   0.545677 0.845135 0.173750 0.757168
O5    O     O_R   0.587510 0.175890 0.993210 -0.536412
O6    O     O_R   0.412490 0.675890 0.006790 -0.543139
O7    O     O_R   0.536540 0.008150 0.130100 -0.528877
O8    O     O_R   0.463460 0.508150 0.869900 -0.536049
C3    C     C_R   0.612188 0.344870 0.994878 0.759958
C4    C     C_R   0.387608 0.844858 0.004316 0.760777
O9    O     O_3   0.483140 0.340040 0.044760 -0.377105
O10   O     O_3   0.516860 0.840040 0.955240 -0.371896
V1    V     V_3+5 0.503130 0.064190 0.991700 1.576296
V2    V     V_3+5 0.496870 0.564190 0.008300 1.555241
C5    C     C_2   0.215287 0.739337 0.005559 -0.144539
C6    C     C_2   0.784106 0.239490 0.991624 -0.147432
C7    C     C_2   0.176573 0.888605 0.981461 0.046734
C8    C     C_2   0.822739 0.389642 0.016373 0.047894
C9    C     C_2   0.279853 0.722287 0.993456 -0.071955
C10   C     C_2   0.719288 0.222141 0.002720 -0.059598
C11   C     C_2   0.322982 0.860412 0.014196 -0.218739
C12   C     C_2   0.676335 0.360021 0.983352 -0.231108
H1    H     H_    0.293376 0.587301 0.973018 0.161245
H2    H     H_    0.705623 0.087070 0.022036 0.178941
H3    H     H_    0.311006 0.991374 0.040706 0.171814
H4    H     H_    0.687995 0.490350 0.956673 0.174273
C13   C     C_R   0.928314 0.876735 0.724027 -0.074122
C14   C     C_R   0.073565 0.387614 0.275964 -0.073741
C15   C     C_R   0.574701 0.857064 0.275065 -0.111271
C16   C     C_R   0.426747 0.353110 0.724383 -0.108290
C17   C     C_R   0.933275 0.751163 0.576287 -0.158959
C18   C     C_R   0.065381 0.394812 0.433228 -0.157519
C19   C     C_R   0.963572 0.798243 0.669227 0.140807
C20   C     C_R   0.036144 0.392031 0.337017 0.139488
C21   C     C_R   0.863222 0.910486 0.684853 -0.239517
C22   C     C_R   0.139892 0.378444 0.311568 -0.237628
C23   C     C_R   0.830985 0.856565 0.591736 0.101418
C24   C     C_R   0.170647 0.378980 0.409049 0.102152
C25   C     C_R   0.867516 0.775988 0.537833 0.085201
C26   C     C_R   0.131865 0.390303 0.469577 0.086245
C27   C     C_R   0.763636 0.874165 0.551193 0.026889
C28   C     C_R   0.238351 0.372394 0.448546 0.026461
C29   C     C_R   0.735439 0.827205 0.455213 0.066228
C30   C     C_R   0.265379 0.367824 0.547588 0.065577
C31   C     C_R   0.772671 0.732271 0.407961 -0.107671
C32   C     C_R   0.225206 0.396792 0.604001 -0.103687
C33   C     C_R   0.837715 0.711546 0.447492 -0.141543
C34   C     C_R   0.159654 0.402687 0.565974 -0.136818
C35   C     C_R   0.723117 0.926561 0.604276 -0.193297
C36   C     C_R   0.280082 0.376509 0.392983 -0.189744
C37   C     C_R   0.657282 0.929161 0.565499 0.191063
C38   C     C_R   0.345649 0.391626 0.432834 0.194564
C39   C     C_R   0.629650 0.894830 0.469374 0.016368
C40   C     C_R   0.372232 0.390048 0.530437 0.017898
C41   C     C_R   0.669368 0.859537 0.411733 0.021579
C42   C     C_R   0.332583 0.354597 0.587682 0.023293
C43   C     C_R   0.563244 0.899438 0.429295 -0.117442
C44   C     C_R   0.437465 0.423495 0.572307 -0.116108
C45   C     C_R   0.535876 0.875578 0.333471 0.137027
C46   C     C_R   0.463659 0.417088 0.669052 0.140111
C47   C     C_R   0.641381 0.862975 0.312912 0.050846
C48   C     C_R   0.362201 0.308264 0.682760 0.052964
H5    H     H_    0.740776 0.956663 0.677951 0.147185
H6    H     H_    0.263368 0.376556 0.317832 0.147871
H7    H     H_    0.531726 0.922138 0.471459 0.187115
H8    H     H_    0.468209 0.462179 0.531097 0.184743
O11   O     O_R   0.036450 0.233070 0.130130 -0.537016
O12   O     O_R   0.963550 0.733070 0.869870 -0.535415
O13   O     O_R   0.912470 0.560570 0.006790 -0.524431
O14   O     O_R   0.087530 0.060570 0.993210 -0.527236
C49   C     C_R   0.887482 0.392288 0.004757 0.704246
C50   C     C_R   0.112370 0.892145 0.994817 0.703795
O15   O     O_R   0.032920 0.562940 0.138050 -0.535565
O16   O     O_R   0.967080 0.062940 0.861950 -0.537446
O17   O     O_R   0.084790 0.730500 0.002090 -0.544632
O18   O     O_R   0.915210 0.230500 0.997910 -0.547034
C51   C     C_R   0.044823 0.394788 0.174503 0.726125
C52   C     C_R   0.955677 0.893190 0.825513 0.725205
O19   O     O_3   0.016820 0.396170 0.955260 -0.371472
O20   O     O_3   0.983180 0.896170 0.044740 -0.371996
V3    V     V_3+5 0.996880 0.672090 0.008300 1.524908
V4    V     V_3+5 0.003120 0.172090 0.991700 1.517186
H9    H     H_    0.198061 0.617754 0.033067 0.138827
H10   H     H_    0.801815 0.116797 0.965108 0.138844
I1    I     I_    0.062263 0.741678 0.723826 -0.370106
I2    I     I_    0.935528 0.389922 0.288372 -0.364826
H11   H     H_    0.838892 0.972959 0.730117 0.111335
H12   H     H_    0.165813 0.371567 0.260941 0.109132
H13   H     H_    0.751332 0.665062 0.341335 0.176821
H14   H     H_    0.244202 0.423625 0.678109 0.171328
I3    I     I_    0.197983 0.122629 0.908571 -0.342852
I4    I     I_    0.799589 0.628496 0.086094 -0.335125
H15   H     H_    0.864657 0.640752 0.407720 0.173025
H16   H     H_    0.130536 0.420707 0.612391 0.168207
I5    I     I_    0.694445 0.944067 0.219496 -0.365976
I6    I     I_    0.318262 0.119912 0.755731 -0.354217
I7    I     I_    0.435441 0.893979 0.278514 -0.336402
I8    I     I_    0.560592 0.493780 0.727446 -0.328926
I9    I     I_    0.603781 0.995674 0.658488 -0.347185
I10   I     I_    0.401244 0.402251 0.338914 -0.342652
H17   H     H_    0.960892 0.688789 0.534950 0.146865
H18   H     H_    0.035980 0.401234 0.479778 0.145874

loop_
_geom_bond_atom_site_label_1
_geom_bond_atom_site_label_2
_ccdc_geom_bond_type
C39   C43   A    
C15   C45   A    
C18   C26   A    
O2    C4    A    
O16   V4    S    
C2    O7    A    
O3    V1    S    
C23   C25   A    
C20   I2    S    
O5    C3    A    
C4    C11   S    
C29   C41   A    
C6    H10   S    
C5    H9    S    
C17   C19   A    
O17   V3    S    
C3    C12   S    
C14   C22   A    
C44   C46   A    
C35   H5    S    
C29   C31   A    
C8    I4    S    
C43   H7    S    
C19   I1    S    
O15   V3    S    
C28   C30   A    
C50   O17   A    
O1    C3    A    
C49   O18   A    
C11   H3    S    
C48   I6    S    
C12   H4    S    
C18   C20   A    
C7    I3    S    
C1    C16   S    
C28   C36   A    
C32   C34   A    
C2    C15   S    
O6    V2    S    
C17   H17   S    
C30   C42   A    
C45   I7    S    
C25   C33   A    
C36   C38   A    
C41   C47   A    
O13   V3    S    
C37   C39   A    
C42   C48   A    
C38   C40   A    
C43   C45   A    
O12   C52   A    
C15   C47   A    
C16   C48   A    
O14   C50   A    
C37   I9    S    
O13   C49   A    
C23   C27   A    
C18   H18   S    
C40   C44   A    
C35   C37   A    
O4    V2    S    
O2    V1    S    
C22   H12   S    
O6    C4    A    
O1    V2    S    
C33   H15   S    
O12   V3    S    
C27   C29   A    
O14   V4    S    
C26   C34   A    
C46   I8    S    
C14   C51   S    
O4    C2    A    
C39   C41   A    
C10   H2    S    
C10   C12   D    
O11   C51   A    
O19   V4    S    
C36   H6    S    
C9    H1    S    
C6    C10   S    
C31   H13   S    
C38   I10   S    
C7    C50   S    
O16   C52   A    
C24   C26   A    
O3    C1    A    
C21   H11   S    
C31   C33   A    
C13   C19   A    
C14   C20   A    
C17   C25   A    
C9    C11   D    
O7    V1    S    
C16   C46   A    
C1    O8    A    
C21   C23   A    
O11   V4    S    
O8    V2    S    
C22   C24   A    
C34   H16   S    
C13   C52   S    
C27   C35   A    
O5    V1    S    
C5    C7    D    
C40   C42   A    
C8    C49   S    
C6    C8    D    
C5    C9    S    
C30   C32   A    
O18   V4    S    
C24   C28   A    
C44   H8    S    
C47   I5    S    
O20   V3    S    
C32   H14   S    
O9    V2    S    
C13   C21   A    
O10   V1    S    
O15   C51   A    
