data_mof_unit_36571.cif
_audit_creation_date              2012-12-10T18:54:30-0500
_audit_creation_method            fapswitch 2.2
_symmetry_space_group_name_H-M    P1
_symmetry_Int_Tables_number       1
_space_group_crystal_system       triclinic
_cell_length_a                    11.042203
_cell_length_b                    10.015715
_cell_length_c                    23.239791
_cell_angle_alpha                 89.175565
_cell_angle_beta                  92.666243
_cell_angle_gamma                 91.589527
_cell_volume                      2566.22652736

loop_
_atom_site_label
_atom_site_type_symbol
_atom_type_description
_atom_site_fract_x
_atom_site_fract_y
_atom_site_fract_z
_atom_type_partial_charge
C1    C     C_R   0.260143 0.498472 0.497661 0.864410
C2    C     C_R   0.740078 0.501052 0.501460 0.850702
C3    C     C_R   0.553292 0.548700 0.232670 -0.070097
C4    C     C_R   0.463747 0.566330 0.766977 -0.050383
C5    C     C_R   0.574172 0.544939 0.292369 -0.090195
C6    C     C_R   0.445363 0.569659 0.707096 -0.054637
C7    C     C_R   0.479533 0.502127 0.326920 -0.097236
C8    C     C_R   0.520821 0.495749 0.673338 -0.154512
C9    C     C_R   0.368294 0.456928 0.300964 -0.109375
C10   C     C_R   0.610721 0.414812 0.699930 -0.166457
C11   C     C_R   0.362590 0.422431 0.242561 0.377663
C12   C     C_R   0.610241 0.388400 0.759501 0.344961
C13   C     C_R   0.454594 0.473819 0.207334 0.092076
C14   C     C_R   0.538343 0.468125 0.793401 0.088506
C15   C     C_R   0.059947 0.375189 0.502160 -0.078218
C16   C     C_R   0.941105 0.621441 0.494372 -0.088259
C17   C     C_R   0.934657 0.377503 0.506682 -0.072979
C18   C     C_R   0.065015 0.617733 0.486057 -0.069808
C19   C     C_R   0.873515 0.500839 0.502041 -0.123688
C20   C     C_R   0.126883 0.496270 0.494405 -0.112225
C21   C     C_R   0.490651 0.067315 0.549855 0.314995
C22   C     C_R   0.508792 0.932315 0.450051 0.321157
C23   C     C_R   0.487879 0.070737 0.449729 0.295241
C24   C     C_R   0.514770 0.929330 0.550089 0.312534
C25   C     C_R   0.496197 0.500891 0.389585 0.903114
C26   C     C_R   0.504583 0.499118 0.610474 0.886478
C27   C     C_R   0.626908 0.465266 0.891197 0.690633
C28   C     C_R   0.363386 0.483884 0.109652 0.669948
C29   C     C_R   0.417585 0.406666 0.873343 0.610864
C30   C     C_R   0.557598 0.389402 0.127175 0.627430
C31   C     C_R   0.396475 0.413000 0.932338 -0.164056
C32   C     C_R   0.581534 0.400921 0.068589 -0.171269
C33   C     C_R   0.498263 0.423916 0.970776 -0.092142
C34   C     C_R   0.482146 0.424252 0.030143 -0.095307
C35   C     C_R   0.614965 0.447089 0.950741 -0.150947
C36   C     C_R   0.370024 0.461274 0.050200 -0.149299
C37   C     C_R   0.279968 0.427346 0.954284 0.306779
C38   C     C_R   0.700067 0.410010 0.047353 0.303503
C39   C     C_R   0.273874 0.484285 0.009286 0.286339
C40   C     C_R   0.712281 0.465385 0.991581 0.298815
N1    N     N_R   0.529274 0.442094 0.854021 -0.351656
N2    N     N_R   0.455494 0.444156 0.146906 -0.351272
N3    N     N_R   0.500000 0.857200 0.500000 -0.230779
N4    N     N_R   0.500000 0.142800 0.500000 -0.230282
O1    O     O_R   0.316770 0.614620 0.500000 -0.633671
O2    O     O_R   0.683230 0.385380 0.500000 -0.634907
O3    O     O_R   0.683230 0.614620 0.500000 -0.543289
O4    O     O_R   0.316770 0.385380 0.500000 -0.546255
O5    O     O_R   0.499970 0.614690 0.416160 -0.545579
O6    O     O_R   0.500030 0.385310 0.583840 -0.553535
O7    O     O_R   0.500030 0.614690 0.583840 -0.561696
O8    O     O_R   0.499970 0.385310 0.416160 -0.542510
O9    O     O_2   0.734547 0.502987 0.870332 -0.443130
O10   O     O_2   0.266551 0.542427 0.130355 -0.417695
O11   O     O_2   0.327665 0.373590 0.834618 -0.455000
O12   O     O_2   0.635937 0.330357 0.164965 -0.463101
Zn1   Zn    Zn3+2 0.500000 0.653120 0.500000 1.103028
Zn2   Zn    Zn3+2 0.500000 0.346880 0.500000 1.104267
S1    S     S_3+6 0.144203 0.375523 0.915952 0.176853
O13   O     O_2   0.160293 0.240969 0.889915 -0.173330
O14   O     O_2   0.042268 0.363065 0.956046 -0.173281
O15   O     O_3   0.109634 0.487270 0.863420 -0.477909
H1    H     H_    0.026229 0.462007 0.849391 0.418245
S2    S     S_3+6 0.831824 0.365620 0.089504 0.185999
O16   O     O_2   0.816195 0.224121 0.111037 -0.196575
O17   O     O_2   0.941919 0.373224 0.054370 -0.130905
O18   O     O_3   0.853462 0.469176 0.145623 -0.480861
H2    H     H_    0.875879 0.411350 0.179136 0.402703
S3    S     S_3+6 0.188570 0.630490 0.014946 0.184425
O19   O     O_2   0.081620 0.600889 0.050814 -0.052832
O20   O     O_2   0.265980 0.738302 0.043785 -0.245108
O21   O     O_3   0.141204 0.687573 0.949616 -0.418607
H3    H     H_    0.216015 0.719047 0.931152 0.362585
S4    S     S_3+6 0.803639 0.612646 0.984817 0.174146
O22   O     O_2   0.912689 0.583762 0.951687 -0.082820
O23   O     O_2   0.732672 0.718007 0.952391 -0.258252
O24   O     O_3   0.847398 0.672530 0.049917 -0.417725
H4    H     H_    0.778335 0.725097 0.061720 0.370220
C41   C     C_1   0.633660 0.627771 0.197366 0.260945
N5    N     N_1   0.697257 0.692365 0.169445 -0.100102
C42   C     C_1   0.400868 0.658686 0.801870 0.301423
N6    N     N_1   0.350825 0.732495 0.829674 -0.117944
C43   C     C_1   0.694208 0.577111 0.317081 0.298803
N7    N     N_1   0.790899 0.601028 0.336217 -0.130169
C44   C     C_1   0.344336 0.641865 0.680797 0.319537
N8    N     N_1   0.263592 0.698903 0.659785 -0.113933
C45   C     C_1   0.258392 0.457143 0.332484 0.285701
N9    N     N_1   0.169692 0.459343 0.357055 -0.196166
C46   C     C_1   0.703747 0.359700 0.666082 0.323983
N10   N     N_1   0.778571 0.315998 0.639305 -0.150050
S5    S     S_3+6 0.248655 0.305144 0.217083 0.136595
O25   O     O_2   0.291178 0.228905 0.166935 -0.201512
O26   O     O_2   0.219567 0.206945 0.264312 -0.223190
O27   O     O_3   0.121416 0.384616 0.196460 -0.439184
H5    H     H_    0.094723 0.427055 0.231764 0.348849
S6    S     S_3+6 0.692342 0.250645 0.789866 0.119103
O28   O     O_2   0.633669 0.195504 0.842543 -0.222659
O29   O     O_2   0.696656 0.139878 0.747128 -0.187283
O30   O     O_3   0.835276 0.300902 0.808185 -0.452516
H6    H     H_    0.869712 0.333044 0.771744 0.349470
C47   C     C_1   0.115382 0.244818 0.503462 0.327980
N11   N     N_1   0.156340 0.139596 0.504274 -0.112183
C48   C     C_1   0.887938 0.752182 0.497200 0.356798
N12   N     N_1   0.847954 0.857392 0.499752 -0.088817
C49   C     C_1   0.871997 0.250232 0.517896 0.275007
N13   N     N_1   0.822725 0.149035 0.526760 -0.121933
C50   C     C_1   0.125527 0.739975 0.466107 0.262145
N14   N     N_1   0.173065 0.837198 0.450174 -0.123045
S7    S     S_3+6 0.403009 0.115400 0.608125 0.107863
O31   O     O_2   0.319726 0.227088 0.592617 -0.289902
O32   O     O_2   0.326208 0.997030 0.626053 -0.270422
O33   O     O_3   0.494812 0.159129 0.664536 -0.474183
H7    H     H_    0.440364 0.169189 0.696804 0.395701
S8    S     S_3+6 0.590026 0.879436 0.390692 0.102080
O34   O     O_2   0.657560 0.997396 0.365622 -0.259095
O35   O     O_2   0.681575 0.778733 0.409552 -0.299677
O36   O     O_3   0.493639 0.815741 0.339333 -0.498922
H8    H     H_    0.532519 0.835071 0.302458 0.387950
S9    S     S_3+6 0.399295 0.125593 0.388671 0.123604
O37   O     O_2   0.478783 0.186976 0.344119 -0.208736
O38   O     O_2   0.331293 0.007988 0.362017 -0.234397
O39   O     O_3   0.297116 0.234426 0.408144 -0.560121
H9    H     H_    0.218367 0.201201 0.391000 0.379359
S10   S     S_3+6 0.610417 0.877758 0.609650 0.116897
O40   O     O_2   0.690537 0.994668 0.628152 -0.222872
O41   O     O_2   0.534608 0.837295 0.659188 -0.249749
O42   O     O_3   0.701243 0.753033 0.594308 -0.553123
H10   H     H_    0.741209 0.726977 0.631678 0.367124

loop_
_geom_bond_atom_site_label_1
_geom_bond_atom_site_label_2
_ccdc_geom_bond_type
C38   C40   A    
C45   N9    T    
C47   N11   T    
C8    C26   S    
C3    C41   S    
C42   N6    T    
C44   N8    T    
C2    O2    A    
O1    Zn1   S    
C6    C44   S    
S4    O23   D    
C26   O6    A    
C23   S9    S    
C5    C43   S    
S5    O26   D    
S6    O30   S    
C24   S10   S    
O5    Zn1   S    
C15   C17   A    
S3    O20   D    
C18   C50   S    
C13   N2    S    
C33   C35   A    
C4    C42   S    
O30   H6    S    
C10   C46   S    
N4    Zn2   S    
S1    O15   S    
S4    O24   S    
S6    O29   D    
C50   N14   T    
C31   C33   A    
O7    Zn1   S    
C32   C38   A    
C18   C20   A    
C3    C13   A    
S1    O13   D    
O2    Zn2   S    
O27   H5    S    
O33   H7    S    
S8    O34   D    
C38   S2    S    
S9    O38   D    
C15   C20   A    
O8    Zn2   S    
S1    O14   D    
S4    O22   D    
O18   H2    S    
O6    Zn2   S    
S2    O18   S    
C4    C6    A    
S7    O33   S    
S5    O25   D    
C5    C7    A    
C28   O10   S    
C6    C8    A    
C29   O11   S    
C27   C35   A    
O24   H4    S    
C30   O12   S    
C23   N4    A    
C31   C37   A    
S2    O17   D    
S3    O21   S    
O15   H1    S    
C17   C49   S    
O3    Zn1   S    
C21   N4    A    
C27   N1    A    
C16   C48   S    
S8    O35   D    
C43   N7    T    
C22   S8    S    
S6    O28   D    
C33   C34   A    
C39   S3    S    
C15   C47   S    
C9    C11   A    
C37   S1    S    
C10   C12   A    
S10   O42   S    
C8    C10   A    
C12   C14   A    
C14   N1    S    
O42   H10   S    
S10   O41   D    
S9    O39   S    
C7    C9    A    
C1    C20   S    
C29   N1    A    
C2    C19   S    
C36   C39   A    
C30   N2    A    
O21   H3    S    
C3    C5    A    
C21   S7    S    
S9    O37   D    
C27   O9    S    
C1    O4    A    
O4    Zn2   S    
C2    O3    A    
C49   N13   T    
C7    C25   S    
S2    O16   D    
S7    O32   D    
C35   C40   A    
O39   H9    S    
C25   O8    A    
C29   C31   A    
C26   O7    A    
C9    C45   S    
S5    O27   S    
C30   C32   A    
C11   C13   A    
C1    O1    A    
C16   C19   A    
C28   N2    A    
C17   C19   A    
C40   S4    S    
C34   C36   A    
C4    C14   A    
S3    O19   D    
C25   O5    A    
S8    O36   S    
N3    Zn1   S    
C41   N5    T    
C11   S5    S    
C37   C39   A    
C28   C36   A    
C16   C18   A    
C21   C24   A    
S7    O31   D    
C48   N12   T    
C24   N3    A    
C22   C23   A    
C12   S6    S    
C46   N10   T    
O36   H8    S    
C22   N3    A    
C32   C34   A    
S10   O40   D    
