data_mof_unit_10620.cif
_audit_creation_date              2012-12-10T20:35:49-0500
_audit_creation_method            fapswitch 2.2
_symmetry_space_group_name_H-M    P1
_symmetry_Int_Tables_number       1
_space_group_crystal_system       triclinic
_cell_length_a                    15.736361
_cell_length_b                    10.673158
_cell_length_c                    9.86028
_cell_angle_alpha                 89.547271
_cell_angle_beta                  90.978587
_cell_angle_gamma                 89.634605
_cell_volume                      1655.77140602

loop_
_atom_site_label
_atom_site_type_symbol
_atom_type_description
_atom_site_fract_x
_atom_site_fract_y
_atom_site_fract_z
_atom_type_partial_charge
C1    C     C_R   0.503129 0.260019 0.500625 0.914062
C2    C     C_3   0.953252 0.491731 0.652674 -0.404442
C3    C     C_3   0.917363 0.495906 0.505839 0.287739
C4    C     C_3   0.948082 0.617582 0.435099 -0.492886
C5    C     C_3   0.046708 0.624576 0.439047 0.351949
C6    C     C_1   0.825961 0.495564 0.506244 -0.085934
C7    C     C_1   0.174185 0.501707 0.499170 -0.035138
C8    C     C_1   0.249442 0.501550 0.497789 -0.144529
C9    C     C_R   0.517246 0.062582 0.623898 0.141840
C10   C     C_R   0.518854 0.129087 0.502298 -0.182999
C11   C     C_R   0.537778 0.067458 0.381620 -0.338006
C12   C     C_R   0.338281 0.500531 0.499121 0.910609
C13   C     C_R   0.538393 0.937536 0.378812 0.444572
C14   C     C_R   0.518273 0.871685 0.498969 -0.226150
C15   C     C_R   0.516843 0.934865 0.622156 0.070441
C16   C     C_3   0.455120 0.926955 0.735686 -0.437392
C17   C     C_3   0.455737 0.068928 0.737560 -0.490317
C18   C     C_R   0.425168 0.498140 0.068612 0.184744
C19   C     C_R   0.573639 0.511657 0.073761 -0.143783
C20   C     C_R   0.573603 0.512032 0.929933 -0.147551
C21   C     C_R   0.425589 0.497276 0.926523 0.126601
C22   C     C_3   0.359869 0.398298 0.918772 -0.716481
C23   C     C_R   0.503064 0.740239 0.499314 0.892119
C24   C     C_3   0.355776 0.402631 0.075193 0.865196
C25   C     C_R   0.661742 0.499365 0.501099 0.882248
C26   C     C_3   0.051252 0.491623 0.650726 -0.376450
C27   C     C_3   0.047471 0.390334 0.412245 0.023133
C28   C     C_3   0.950389 0.379359 0.429687 -0.461913
C29   C     C_1   0.750636 0.497066 0.504133 -0.203009
C30   C     C_3   0.082748 0.500131 0.501731 0.245847
H1    H     H_    0.930838 0.406248 0.706335 0.164337
H2    H     H_    0.075112 0.572760 0.710082 0.206301
H3    H     H_    0.930264 0.574406 0.709999 0.180074
H4    H     H_    0.925186 0.619574 0.327625 0.131182
H5    H     H_    0.544920 0.118589 0.287116 0.204355
H6    H     H_    0.392786 0.887455 0.703469 0.201692
H7    H     H_    0.483979 0.883651 0.828613 0.214198
H8    H     H_    0.393763 0.111992 0.706579 0.197036
H9    H     H_    0.485209 0.107671 0.831389 0.198225
H10   H     H_    0.633261 0.519835 0.128839 0.156264
H11   H     H_    0.076145 0.408284 0.705762 0.165288
H12   H     H_    0.633135 0.520363 0.877656 0.154726
H13   H     H_    0.301800 0.433758 0.865107 0.209998
H14   H     H_    0.386349 0.310372 0.876588 0.189850
H15   H     H_    0.056383 0.419539 0.304849 0.096778
H16   H     H_    0.934074 0.292679 0.486599 0.189403
H17   H     H_    0.918875 0.372783 0.327987 0.150172
H18   H     H_    0.069916 0.632425 0.333028 0.050728
H19   H     H_    0.920250 0.700960 0.485530 0.190196
N1    N     N_R   0.499430 0.499140 0.142800 -0.105520
N2    N     N_R   0.499430 0.499180 0.857150 -0.087305
O1    O     O_R   0.500010 0.316790 0.614690 -0.619384
O2    O     O_R   0.500000 0.316760 0.385350 -0.578515
O3    O     O_R   0.377150 0.500020 0.614720 -0.622118
O4    O     O_R   0.377140 0.499990 0.385380 -0.559881
O5    O     O_R   0.500000 0.683240 0.614650 -0.619988
O6    O     O_R   0.499990 0.683210 0.385310 -0.567270
O7    O     O_R   0.622860 0.500010 0.614620 -0.625644
O8    O     O_R   0.622850 0.499980 0.385280 -0.636929
Zn1   Zn    Zn3+2 0.500010 0.500020 0.653130 0.944626
Zn2   Zn    Zn3+2 0.499990 0.499980 0.346870 1.012920
O9    O     O_3   0.543582 0.878735 0.254763 -0.579740
C31   C     C_3   0.629596 0.871550 0.216726 0.112408
H20   H     H_    0.660586 0.789807 0.268441 0.144612
H21   H     H_    0.666219 0.957840 0.241688 0.114577
C32   C     C_3   0.633493 0.853606 0.064046 -0.843727
H22   H     H_    0.607446 0.937933 0.010803 0.247051
H23   H     H_    0.700419 0.839087 0.033583 0.199809
H24   H     H_    0.595537 0.771045 0.033391 0.265444
O10   O     O_3   0.282939 0.461802 0.129078 -0.608475
C33   C     C_3   0.206380 0.399193 0.096695 0.112871
H25   H     H_    0.184924 0.348040 0.188113 0.169449
H26   H     H_    0.210551 0.331552 0.012237 0.110314
C34   C     C_3   0.139303 0.495928 0.055083 -0.914353
H27   H     H_    0.157299 0.541889 0.958371 0.255813
H28   H     H_    0.076775 0.449807 0.040532 0.205918
H29   H     H_    0.133936 0.568487 0.134324 0.260151
O11   O     O_3   0.385017 0.297680 0.153158 -0.599127
C35   C     C_3   0.354907 0.180781 0.106391 0.059473
H30   H     H_    0.409861 0.126568 0.068058 0.171368
H31   H     H_    0.306837 0.185870 0.023039 0.103511
C36   C     C_3   0.317081 0.108344 0.224209 -0.797690
H32   H     H_    0.364384 0.098422 0.308310 0.270290
H33   H     H_    0.260296 0.158222 0.262268 0.236119
H34   H     H_    0.298063 0.013523 0.190107 0.215645
N3    N     N_2   0.091714 0.269697 0.425515 -0.298516
H35   H     H_    0.073369 0.206474 0.352137 0.213340
C37   C     C_3   0.106260 0.211918 0.557205 -0.793196
H36   H     H_    0.130330 0.114948 0.543895 0.228216
H37   H     H_    0.046650 0.207479 0.615467 0.233527
H38   H     H_    0.156649 0.262513 0.613878 0.243749
O12   O     O_3   0.073959 0.728189 0.517940 -0.607141
C38   C     C_3   0.075026 0.840078 0.439910 0.091844
H39   H     H_    0.056286 0.918435 0.506594 0.162720
H40   H     H_    0.028739 0.840899 0.352932 0.115092
C39   C     C_3   0.164426 0.864748 0.389409 -0.873148
H41   H     H_    0.184883 0.788571 0.320905 0.256348
H42   H     H_    0.165127 0.955040 0.332793 0.212185
H43   H     H_    0.209834 0.870106 0.476685 0.263354

loop_
_geom_bond_atom_site_label_1
_geom_bond_atom_site_label_2
_ccdc_geom_bond_type
C32   H23   S    
C31   H21   S    
C28   H17   S    
C26   H2    S    
C38   H39   S    
C18   C21   A    
C19   C20   A    
C3    C6    S    
C24   O10   S    
C7    C8    T    
O3    Zn1   S    
C28   H16   S    
C34   H28   S    
C18   C24   S    
C3    C28   S    
C20   N2    A    
N3    C37   S    
C32   H24   S    
O7    Zn1   S    
C15   C16   S    
C39   H43   S    
C17   H9    S    
C1    O2    A    
O1    Zn1   S    
O2    Zn2   S    
C22   H14   S    
C13   O9    S    
C16   C17   S    
C34   H29   S    
C39   H42   S    
O10   C33   S    
C9    C10   A    
C16   H7    S    
C27   H15   S    
C32   H22   S    
C31   C32   S    
C38   H40   S    
C7    C30   S    
C21   C22   S    
C27   C30   S    
C25   C29   S    
C5    H18   S    
C4    H4    S    
O8    Zn2   S    
C34   H27   S    
C12   O4    A    
C23   O5    A    
C35   H30   S    
C10   C11   A    
C33   H26   S    
N3    H35   S    
O5    Zn1   S    
C2    H1    S    
C14   C23   S    
C27   N3    S    
O9    C31   S    
C33   C34   S    
C22   H13   S    
C37   H38   S    
C8    C12   S    
C39   H41   S    
C2    C26   S    
C2    H3    S    
C9    C17   S    
C37   H37   S    
C26   C30   S    
C38   C39   S    
C36   H33   S    
C22   C24   S    
C25   O7    A    
C3    C4    S    
C21   N2    A    
C18   N1    A    
C35   H31   S    
C5    C30   S    
C24   O11   S    
C23   O6    A    
O11   C35   S    
C1    C10   S    
C4    C5    S    
C35   C36   S    
C20   H12   S    
O6    Zn2   S    
C36   H34   S    
C4    H19   S    
C11   H5    S    
C2    C3    S    
C9    C15   A    
C33   H25   S    
C16   H6    S    
C11   C13   A    
C19   N1    A    
O4    Zn2   S    
O12   C38   S    
C17   H8    S    
C1    O1    A    
C5    O12   S    
C19   H10   S    
C31   H20   S    
C6    C29   T    
C37   H36   S    
C36   H32   S    
C27   C28   S    
N1    Zn2   S    
C14   C15   A    
N2    Zn1   S    
C25   O8    A    
C13   C14   A    
C12   O3    A    
C26   H11   S    
