data_mof_unit_52362.cif
_audit_creation_date              2012-12-11T15:52:24-0500
_audit_creation_method            fapswitch 2.2
_symmetry_space_group_name_H-M    P1
_symmetry_Int_Tables_number       1
_space_group_crystal_system       triclinic
_cell_length_a                    11.316735
_cell_length_b                    11.321748
_cell_length_c                    18.735273
_cell_angle_alpha                 89.954852
_cell_angle_beta                  90.080152
_cell_angle_gamma                 119.993453
_cell_volume                      2078.99530276

loop_
_atom_site_label
_atom_site_type_symbol
_atom_type_description
_atom_site_fract_x
_atom_site_fract_y
_atom_site_fract_z
_atom_type_partial_charge
Br1   Br    Br    0.451841 0.213025 0.459081 -0.453549
Br2   Br    Br    0.787693 0.238388 0.459065 -0.453528
Br3   Br    Br    0.761430 0.548288 0.459216 -0.453711
Br4   Br    Br    0.837658 0.324932 0.625442 -0.249844
Br5   Br    Br    0.487531 0.162373 0.625529 -0.250050
Br6   Br    Br    0.675288 0.512713 0.625680 -0.249796
C1    C     C_R   0.520715 0.456597 0.147635 0.538712
C2    C     C_3   0.102395 0.760941 0.433132 -0.098850
C3    C     C_3   0.658506 0.897401 0.433373 -0.099187
C4    C     C_3   0.239057 0.341503 0.433128 -0.099193
C5    C     C_R   0.519232 0.457067 0.352979 0.627718
C6    C     C_R   0.542984 0.062169 0.352994 0.627350
C7    C     C_R   0.937888 0.480777 0.352976 0.627618
C8    C     C_R   0.419351 0.544967 0.639613 0.515807
C9    C     C_R   0.125781 0.580740 0.639676 0.516122
C10   C     C_R   0.454862 0.874191 0.639653 0.515812
C11   C     C_R   0.498734 0.973478 0.927501 0.021327
C12   C     C_R   0.543318 0.064401 0.147682 0.538178
C13   C     C_R   0.046079 0.530582 0.931361 0.014648
C14   C     C_R   0.469572 0.514693 0.931084 0.011555
C15   C     C_R   0.004987 0.501496 0.079458 0.024472
C16   C     C_R   0.506689 0.012623 0.075733 0.020509
C17   C     C_R   0.499094 0.502755 0.079068 0.024252
C18   C     C_R   0.457661 0.060314 0.956322 -0.000910
C19   C     C_R   0.002060 0.404567 0.963537 -0.002911
C20   C     C_R   0.596298 0.594987 0.963008 -0.001097
C21   C     C_R   0.980016 0.389805 0.036422 0.011051
C22   C     C_R   0.461229 0.078850 0.029204 0.005621
C23   C     C_R   0.936253 0.479405 0.147771 0.534014
C24   C     C_R   0.611257 0.587463 0.035821 0.013715
C25   C     C_R   0.560251 0.935654 0.046605 -0.157685
C26   C     C_R   0.072469 0.632073 0.049159 -0.154826
C27   C     C_R   0.368214 0.441517 0.048993 -0.160720
C28   C     C_R   0.092292 0.646246 0.975548 -0.156211
C29   C     C_R   0.556132 0.916078 0.973230 -0.153681
C30   C     C_R   0.353652 0.446600 0.975335 -0.163290
C31   C     C_3   0.330334 0.067037 0.947308 -0.268226
C32   C     C_3   0.877749 0.271331 0.947533 -0.268249
C33   C     C_3   0.728302 0.601118 0.946910 -0.268226
C34   C     C_R   0.450373 0.524015 0.855182 0.558264
C35   C     C_3   0.852611 0.255047 0.027298 -0.247639
C36   C     C_3   0.330966 0.082413 0.027962 -0.261726
C37   C     C_3   0.744874 0.592100 0.026679 -0.247470
C38   C     C_R   0.478771 0.920582 0.567288 -0.039007
C39   C     C_R   0.079387 0.558293 0.567289 -0.039264
C40   C     C_R   0.441868 0.521008 0.567267 -0.038865
C41   C     C_R   0.999465 0.501626 0.423581 0.029080
C42   C     C_R   0.502447 0.000745 0.423614 0.029581
C43   C     C_R   0.498445 0.497735 0.423582 0.029752
C44   C     C_R   0.507624 0.851113 0.513890 -0.129869
C45   C     C_R   0.074177 0.549865 0.855340 0.558492
C46   C     C_R   0.148895 0.656601 0.513863 -0.130022
C47   C     C_R   0.343561 0.492274 0.513757 -0.130066
C48   C     C_R   0.101870 0.629783 0.443487 -0.092976
C49   C     C_R   0.527949 0.898172 0.443536 -0.093112
C50   C     C_R   0.370304 0.472079 0.443416 -0.093107
C51   C     C_R   0.480286 0.072209 0.478715 0.176409
C52   C     C_R   0.928053 0.407928 0.478690 0.176271
C53   C     C_R   0.592193 0.519992 0.478773 0.176410
C54   C     C_R   0.958743 0.440050 0.550514 0.220716
C55   C     C_R   0.481500 0.041371 0.550544 0.220280
C56   C     C_R   0.478643 0.931583 0.853587 0.561672
C57   C     C_R   0.560123 0.518586 0.550598 0.220405
C58   C     C_2   0.741933 0.898073 0.561454 0.650850
C59   C     C_2   0.101833 0.843882 0.561054 0.650510
C60   C     C_2   0.156311 0.258105 0.561094 0.650659
C61   C     C_2   0.188761 0.850503 0.372584 0.595428
C62   C     C_2   0.661596 0.810968 0.372855 0.595750
C63   C     C_2   0.149399 0.338268 0.372509 0.595855
C64   C     C_3   0.630580 0.833835 0.506268 -0.141293
C65   C     C_3   0.166060 0.796731 0.506033 -0.141256
C66   C     C_3   0.203375 0.369408 0.505972 -0.141387
Cr1   Cr    Cr6+3 0.769160 0.541570 0.250690 1.127722
Cr2   Cr    Cr6+3 0.458430 0.227590 0.250690 1.128279
Cr3   Cr    Cr6+3 0.772410 0.230840 0.250690 1.129057
Cr4   Cr    Cr6+3 0.541570 0.769160 0.749310 1.112130
Cr5   Cr    Cr6+3 0.227590 0.458430 0.749310 1.112067
Cr6   Cr    Cr6+3 0.230840 0.772410 0.749310 1.107631
H1    H     H_    0.605881 0.891499 0.080412 0.149528
H2    H     H_    0.759879 0.258332 0.043460 0.140618
H3    H     H_    0.345986 0.182849 0.044888 0.163036
H4    H     H_    0.740489 0.495483 0.042921 0.138607
H5    H     H_    0.349380 0.160607 0.918234 0.162935
H6    H     H_    0.798983 0.282729 0.917671 0.152947
H7    H     H_    0.714933 0.510206 0.917166 0.152778
H8    H     H_    0.862333 0.169811 0.050359 0.159244
H9    H     H_    0.245973 0.992821 0.055060 0.139839
H10   H     H_    0.831267 0.686489 0.049484 0.155383
H11   H     H_    0.597145 0.729096 0.500325 0.118363
H12   H     H_    0.098567 0.721689 0.081003 0.142330
H13   H     H_    0.270823 0.868145 0.500051 0.118484
H14   H     H_    0.132136 0.402978 0.499996 0.118418
H15   H     H_    0.001437 0.752958 0.432085 0.204507
H16   H     H_    0.751564 0.998193 0.432407 0.204347
H17   H     H_    0.247051 0.248578 0.432204 0.204248
H18   H     H_    0.740771 0.072762 0.565879 0.354069
H19   H     H_    0.927258 0.667921 0.565822 0.354150
H20   H     H_    0.332200 0.259166 0.565637 0.353955
H21   H     H_    0.230140 0.711049 0.327910 0.307337
H22   H     H_    0.480951 0.770173 0.327825 0.307335
H23   H     H_    0.278456 0.379546 0.081076 0.150624
H24   H     H_    0.288945 0.518990 0.327675 0.307388
H25   H     H_    0.139693 0.747441 0.953091 0.134504
H26   H     H_    0.592766 0.850836 0.952676 0.148516
H27   H     H_    0.251821 0.393236 0.952941 0.149766
H28   H     H_    0.242906 0.971274 0.926936 0.148863
H29   H     H_    0.903265 0.196295 0.924630 0.157983
H30   H     H_    0.804574 0.701013 0.923818 0.156312
O1    O     O_R   0.911480 0.572650 0.170990 -0.526398
O2    O     O_R   0.528970 0.640340 0.824320 -0.492051
O3    O     O_R   0.111370 0.471030 0.824320 -0.492276
O4    O     O_R   0.359660 0.888630 0.824320 -0.500031
O5    O     O_R   0.909980 0.572450 0.331530 -0.480732
O6    O     O_R   0.427550 0.337530 0.331530 -0.480779
O7    O     O_R   0.662470 0.090020 0.331530 -0.480541
O8    O     O_R   0.572450 0.909980 0.668470 -0.448065
O9    O     O_R   0.337530 0.427550 0.668470 -0.447250
O10   O     O_R   0.090020 0.662470 0.668470 -0.447142
O11   O     O_R   0.638950 0.528780 0.324500 -0.408460
O12   O     O_R   0.427350 0.338830 0.170990 -0.525285
O13   O     O_R   0.471220 0.110170 0.324500 -0.409006
O14   O     O_R   0.889830 0.361050 0.324500 -0.408318
O15   O     O_R   0.528780 0.638950 0.675500 -0.445989
O16   O     O_R   0.110170 0.471220 0.675500 -0.445604
O17   O     O_R   0.361050 0.889830 0.675500 -0.445997
O18   O     O_3   0.666667 0.333333 0.250560 -0.313070
O19   O     O_3   0.333333 0.666667 0.749440 -0.387761
O20   O     O_2   0.782881 0.828686 0.589688 -0.353207
O21   O     O_R   0.794580 0.031178 0.584483 -0.544329
O22   O     O_2   0.171190 0.954393 0.589029 -0.353383
O23   O     O_R   0.661170 0.088520 0.170990 -0.524359
O24   O     O_R   0.968783 0.763384 0.584177 -0.544554
O25   O     O_2   0.045887 0.217069 0.589125 -0.353420
O26   O     O_R   0.236899 0.205581 0.584277 -0.544299
O27   O     O_2   0.201167 0.963448 0.366531 -0.422497
O28   O     O_R   0.248101 0.807101 0.320944 -0.678731
O29   O     O_2   0.762101 0.798418 0.366935 -0.422269
O30   O     O_R   0.558822 0.751753 0.321086 -0.678198
O31   O     O_2   0.036463 0.237656 0.366431 -0.421926
O32   O     O_R   0.192726 0.441033 0.320815 -0.677944
O33   O     O_R   0.572650 0.911480 0.829010 -0.508295
O34   O     O_R   0.338830 0.427350 0.829010 -0.509131
O35   O     O_R   0.088520 0.661170 0.829010 -0.509633
O36   O     O_R   0.640340 0.528970 0.175680 -0.498917
O37   O     O_R   0.471030 0.111370 0.175680 -0.498555
O38   O     O_R   0.888630 0.359660 0.175680 -0.498963

loop_
_geom_bond_atom_site_label_1
_geom_bond_atom_site_label_2
_ccdc_geom_bond_type
C63   O31   D    
C42   C49   A    
C39   C54   A    
Cr1   O11   S    
C34   O34   A    
Cr3   O14   S    
Cr2   O37   S    
C62   O30   S    
C6    C42   S    
C12   O37   A    
C5    O11   A    
C35   H2    S    
C59   O22   D    
C62   O29   D    
C42   C51   A    
C8    C40   S    
C35   H8    S    
C27   H23   S    
C37   H10   S    
C23   O1    A    
Cr6   O10   S    
Cr5   O9    S    
C14   C34   S    
C1    C17   S    
C20   C33   S    
C52   C54   A    
Cr1   O18   S    
Cr2   O6    S    
C31   C36   S    
C27   C30   A    
Cr1   O5    S    
C32   H29   S    
Cr5   O3    S    
C5    O6    A    
Cr5   O34   S    
C60   O26   S    
C60   C66   S    
C6    O13   A    
Cr3   O23   S    
C58   O20   D    
C44   C49   A    
C19   C32   S    
C3    C49   S    
C58   C64   S    
C4    C50   S    
C10   O17   A    
C10   C38   S    
Cr5   O19   S    
C6    O7    A    
Cr4   O33   S    
C63   O32   S    
C15   C21   A    
C16   C22   A    
C12   O23   A    
C36   H3    S    
Cr6   O19   S    
C10   O8    A    
C1    O36   A    
C46   C48   A    
Cr3   O38   S    
C33   H30   S    
C15   C26   A    
C26   H12   S    
C11   C18   A    
C9    O16   A    
C17   C24   A    
C3    C64   S    
C32   C35   S    
C29   H26   S    
C16   C25   A    
C2    C48   S    
C23   O38   A    
C7    C41   S    
C33   C37   S    
C39   C46   A    
C17   C27   A    
C59   C65   S    
C15   C23   S    
C26   C28   A    
Br6   C57   S    
C61   O27   D    
C5    C43   S    
Br1   C51   S    
C11   C56   S    
C60   O25   D    
C21   C35   S    
C8    O9    A    
Br4   C54   S    
C18   C31   S    
Br5   C55   S    
H24   O32   S    
C25   H1    S    
H22   O30   S    
C41   C48   A    
C20   C24   A    
C25   C29   A    
C24   C37   S    
C64   H11   S    
Cr3   O7    S    
C33   H7    S    
C56   O33   A    
C59   O24   S    
C47   C50   A    
C38   C44   A    
C37   H4    S    
C2    C65   S    
C45   O3    A    
C8    O15   A    
C32   H6    S    
C30   H27   S    
C12   C16   S    
Cr4   O15   S    
C1    O12   A    
C2    H15   S    
C18   C22   A    
H19   O24   S    
C13   C28   A    
C34   O2    A    
Br2   C52   S    
C51   C55   A    
C45   O35   A    
C38   C55   A    
C19   C21   A    
C43   C50   A    
Cr2   O12   S    
H20   O26   S    
C53   C57   A    
C28   H25   S    
C43   C53   A    
C9    O10   A    
C40   C57   A    
Cr3   O18   S    
C61   O28   S    
C44   C64   S    
C3    C62   S    
C31   H28   S    
Cr5   O16   S    
Cr6   O35   S    
C41   C52   A    
C7    O14   A    
C47   C66   S    
Cr2   O18   S    
C14   C20   A    
C4    H17   S    
C66   H14   S    
C40   C47   A    
C22   C36   S    
Cr4   O8    S    
H21   O28   S    
Cr1   O1    S    
C13   C19   A    
C14   C30   A    
C4    C63   S    
C13   C45   S    
Cr2   O13   S    
C65   H13   S    
C58   O21   S    
C2    C61   S    
Cr4   O2    S    
C46   C65   S    
Cr4   O19   S    
C9    C39   S    
C31   H5    S    
Cr6   O4    S    
C36   H9    S    
C11   C29   A    
C56   O4    A    
Cr6   O17   S    
C3    H16   S    
C7    O5    A    
C4    C66   S    
H18   O21   S    
Cr1   O36   S    
Br3   C53   S    
