data_mof_unit_58119.cif
_audit_creation_date              2012-12-11T14:49:55-0500
_audit_creation_method            fapswitch 2.2
_symmetry_space_group_name_H-M    P1
_symmetry_Int_Tables_number       1
_space_group_crystal_system       triclinic
_cell_length_a                    16.895137
_cell_length_b                    16.781832
_cell_length_c                    19.553015
_cell_angle_alpha                 118.054696
_cell_angle_beta                  62.205226
_cell_angle_gamma                 101.171304
_cell_volume                      4325.68111391

loop_
_atom_site_label
_atom_site_type_symbol
_atom_type_description
_atom_site_fract_x
_atom_site_fract_y
_atom_site_fract_z
_atom_type_partial_charge
C1    C     C_R   0.042483 0.759018 0.009921 -0.136322
C2    C     C_R   0.250656 0.514943 0.826508 -0.123161
C3    C     C_R   0.181375 0.491431 0.089569 -0.158044
C4    C     C_R   0.767982 0.412261 0.160147 -0.113319
C5    C     C_R   0.986790 0.340813 0.760190 -0.152496
C6    C     C_R   0.255572 0.542484 0.069265 0.011818
C7    C     C_R   0.938448 0.264211 0.759641 0.061536
C8    C     C_R   0.255414 0.453376 0.746138 0.063580
C9    C     C_R   0.030935 0.222507 0.000050 0.042497
C10   C     C_R   0.923126 0.220340 0.625783 -0.259734
C11   C     C_R   0.901644 0.205950 0.697718 0.120006
C12   C     C_R   0.765442 0.438986 0.240081 0.009394
C13   C     C_R   0.851806 0.130933 0.705818 -0.259336
C14   C     C_R   0.835855 0.063811 0.637214 0.143002
C15   C     C_R   0.868488 0.073198 0.560625 0.027144
C16   C     C_R   0.803317 0.561455 0.964108 -0.134868
C17   C     C_R   0.908060 0.153778 0.556533 0.141020
C18   C     C_R   0.796214 0.983528 0.640786 -0.206755
C19   C     C_R   0.798080 0.909389 0.566203 -0.205478
C20   C     C_R   0.839967 0.915186 0.487739 0.141701
C21   C     C_R   0.870751 0.998607 0.485609 0.026676
C22   C     C_R   0.913008 0.004867 0.406839 0.142775
C23   C     C_R   0.722468 0.549860 0.026246 0.009526
C24   C     C_R   0.942873 0.088246 0.405399 -0.202793
C25   C     C_R   0.940387 0.162597 0.480146 -0.207599
C26   C     C_R   0.860821 0.837300 0.410695 -0.258093
C27   C     C_R   0.915598 0.841706 0.332159 0.114978
C28   C     C_R   0.953344 0.672938 0.248597 -0.128443
C29   C     C_R   0.933792 0.926100 0.330285 -0.254420
C30   C     C_R   0.420733 0.420743 0.667676 -0.258218
C31   C     C_R   0.336069 0.407367 0.667314 0.115461
C32   C     C_R   0.329912 0.362676 0.588807 -0.251997
C33   C     C_R   0.404963 0.351724 0.513171 0.140298
C34   C     C_R   0.961556 0.759360 0.254585 0.082624
C35   C     C_R   0.488921 0.376524 0.514804 0.031408
C36   C     C_R   0.497901 0.405248 0.591097 0.141614
C37   C     C_R   0.395120 0.327214 0.438577 -0.209405
C38   C     C_R   0.465834 0.337166 0.369020 -0.186667
C39   C     C_R   0.547762 0.367410 0.372339 0.121757
C40   C     C_R   0.739606 0.486165 0.043649 -0.031148
C41   C     C_R   0.561585 0.381375 0.442732 0.021004
C42   C     C_R   0.645342 0.408792 0.444406 0.144774
C43   C     C_R   0.656204 0.427714 0.517442 -0.204834
C44   C     C_R   0.582430 0.427335 0.591012 -0.202936
C45   C     C_R   0.250151 0.570418 0.014492 0.025450
C46   C     C_R   0.613960 0.389726 0.309007 -0.164944
C47   C     C_R   0.698418 0.414401 0.308102 0.138798
C48   C     C_R   0.714748 0.421853 0.375073 -0.283248
C49   C     C_R   0.633282 0.590639 0.064426 0.135885
C50   C     C_R   0.319911 0.566084 0.106717 0.129314
C51   C     C_R   0.404758 0.513245 0.149429 -0.225211
C52   C     C_R   0.022733 0.752871 0.173782 -0.141729
C53   C     C_R   0.329530 0.509107 0.137039 -0.168263
C54   C     C_R   0.379277 0.637010 0.103275 -0.283703
C55   C     C_R   0.460953 0.633015 0.103133 0.177037
C56   C     C_R   0.920910 0.261439 0.835168 -0.093601
C57   C     C_R   0.473918 0.569018 0.124689 0.191766
C58   C     C_R   0.558649 0.552511 0.110077 -0.275552
C59   C     C_R   0.620021 0.659572 0.048951 -0.169141
C60   C     C_R   0.533365 0.682749 0.070838 -0.220052
C61   C     C_R   0.845679 0.186124 0.149124 0.230384
C62   C     C_R   0.965333 0.863858 0.995617 0.128043
C63   C     C_R   0.890849 0.953243 0.972567 -0.213964
C64   C     C_R   0.840212 0.490028 0.241188 -0.153339
C65   C     C_R   0.928091 0.871039 0.947636 -0.175465
C66   C     C_R   0.967210 0.941483 0.067746 -0.271801
C67   C     C_R   0.170014 0.448883 0.752182 -0.127488
C68   C     C_R   0.928956 0.023890 0.093837 0.193481
C69   C     C_R   0.889387 0.029507 0.046419 0.154626
C70   C     C_R   0.847615 0.110906 0.074777 -0.264851
C71   C     C_R   0.885527 0.180997 0.195473 -0.211776
C72   C     C_R   0.927112 0.100213 0.168120 -0.224604
C73   C     C_R   0.963430 0.690484 0.934532 -0.134194
C74   C     C_R   0.992334 0.774482 0.977583 0.061408
C75   C     C_2   0.737366 0.324287 0.110021 0.926946
C76   C     C_R   0.307850 0.635083 0.982295 0.083783
C77   C     C_R   0.270764 0.713594 0.998618 -0.138056
C78   C     C_R   0.052751 0.307646 0.049839 -0.124990
C79   C     C_R   0.325274 0.772423 0.964790 -0.119079
C80   C     C_R   0.417061 0.752931 0.913869 -0.079014
C81   C     C_R   0.454467 0.674366 0.896399 -0.115994
C82   C     C_R   0.400169 0.615323 0.930005 -0.199644
C83   C     C_R   0.974569 0.238662 0.973366 -0.108141
H1    H     H_    0.085475 0.806775 0.035896 0.081371
H2    H     H_    0.831764 0.120317 0.762058 0.115220
H3    H     H_    0.769395 0.976089 0.699700 0.128380
H4    H     H_    0.772803 0.845881 0.568750 0.129438
H5    H     H_    0.841389 0.773109 0.413191 0.118608
H6    H     H_    0.971242 0.930881 0.269996 0.114356
H7    H     H_    0.973914 0.094300 0.345520 0.122960
H8    H     H_    0.969452 0.224890 0.476744 0.126271
H9    H     H_    0.426711 0.450496 0.727558 0.122252
H10   H     H_    0.265870 0.346770 0.586503 0.117065
H11   H     H_    0.330922 0.307546 0.436622 0.129214
H12   H     H_    0.874608 0.218402 0.862035 0.108007
H13   H     H_    0.455575 0.324370 0.314019 0.133219
H14   H     H_    0.598059 0.390463 0.261679 0.115733
H15   H     H_    0.812696 0.604159 0.933894 0.095282
H16   H     H_    0.779355 0.442090 0.375690 0.119128
H17   H     H_    0.720256 0.448128 0.519495 0.126726
H18   H     H_    0.590577 0.448345 0.648867 0.129137
H19   H     H_    0.565735 0.500841 0.125018 0.114984
H20   H     H_    0.676295 0.692297 0.016494 0.119932
H21   H     H_    0.413591 0.464767 0.167502 0.126866
H22   H     H_    0.524346 0.732513 0.054301 0.136832
H23   H     H_    0.147531 0.407476 0.703147 0.096162
H24   H     H_    0.283306 0.456105 0.144475 0.116182
H25   H     H_    0.367357 0.689415 0.091798 0.149965
H26   H     H_    0.816484 0.116397 0.039652 0.152108
H27   H     H_    0.912241 0.651733 0.298433 0.094141
H28   H     H_    0.883692 0.239700 0.252875 0.127696
H29   H     H_    0.861325 0.956628 0.935240 0.124108
H30   H     H_    0.956941 0.097122 0.205349 0.125354
H31   H     H_    0.926046 0.812753 0.891687 0.113671
H32   H     H_    0.994311 0.937119 0.106390 0.113689
H33   H     H_    0.694758 0.462983 0.091028 0.102866
H34   H     H_    0.093906 0.321192 0.082736 0.099830
H35   H     H_    0.047753 0.807983 0.156864 0.086435
H36   H     H_    0.867173 0.509279 0.287039 0.094259
H37   H     H_    0.932074 0.675512 0.892969 0.082732
H38   H     H_    0.727276 0.240799 0.999418 0.309014
H39   H     H_    0.200056 0.729603 0.037681 0.110229
H40   H     H_    0.296278 0.833063 0.977927 0.106446
H41   H     H_    0.459127 0.798526 0.887678 0.101438
H42   H     H_    0.525443 0.658977 0.856488 0.109537
H43   H     H_    0.429711 0.553989 0.915023 0.127770
H44   H     H_    0.942861 0.188011 0.935149 0.099022
H45   H     H_    0.305340 0.531636 0.843171 0.121084
H46   H     H_    0.156252 0.470227 0.140207 0.096296
H47   H     H_    0.000232 0.372454 0.719054 0.090010
H48   H     H_    0.958434 0.279327 0.619568 0.115708
N1    N     N_R   0.036080 0.671900 0.995420 -0.039398
N2    N     N_R   0.867430 0.509300 0.948100 -0.044717
N3    N     N_R   0.003360 0.617250 0.167070 -0.039940
N4    N     N_R   0.825450 0.461270 0.995400 -0.019890
N5    N     N_R   0.045340 0.665280 0.119770 -0.046906
N6    N     N_R   0.883740 0.497640 0.167070 -0.044673
N7    N     N_R   0.987050 0.628910 0.948110 -0.038363
N8    N     N_R   0.174550 0.538730 0.004600 -0.060430
N9    N     N_R   0.954660 0.334720 0.880230 -0.032425
N10   N     N_R   0.116260 0.502360 0.832930 -0.043274
N11   N     N_R   0.012950 0.371090 0.051890 -0.044928
N12   N     N_R   0.963920 0.328100 0.004580 -0.038940
N13   N     N_R   0.165290 0.545350 0.880240 -0.042835
N14   N     N_R   0.132570 0.490700 0.051900 -0.044806
N15   N     N_R   0.996640 0.382750 0.832930 -0.044027
N16   N     N_R   0.834710 0.454650 0.119760 -0.057204
Ni1   Ni    Ni4+2 0.104370 0.604370 0.000010 0.213108
Ni2   Ni    Ni4+2 0.895630 0.395630 0.999990 0.257661
Ni3   Ni    Ni4+2 0.991920 0.505780 0.891500 0.211776
Ni4   Ni    Ni4+2 0.008080 0.494220 0.108500 0.203556
O1    O     O_2   0.707091 0.267838 0.137847 -0.668295
O2    O     O_R   0.748911 0.303043 0.027726 -0.829380

loop_
_geom_bond_atom_site_label_1
_geom_bond_atom_site_label_2
_ccdc_geom_bond_type
C61   C70   A    
C56   H12   S    
C66   C68   A    
C24   C25   A    
C63   C65   A    
C6    C45   A    
C27   C29   A    
C2    N13   A    
C41   C42   A    
C14   C18   A    
C35   C36   A    
N13   Ni1   S    
C3    C6    A    
C16   H15   S    
C29   H6    S    
C81   C82   A    
C39   C41   A    
C40   H33   S    
N7    Ni3   S    
C1    H1    S    
C7    C11   S    
C55   C60   A    
C26   C27   A    
C50   C54   A    
C64   H36   S    
H38   O2    S    
C45   C76   S    
C28   N3    A    
C1    C74   A    
C22   C29   A    
C19   H4    S    
C78   N11   A    
C38   C39   A    
C56   N9    A    
C23   C49   S    
C73   N7    A    
C10   C17   A    
N1    N7    A    
C23   C40   A    
C45   N8    A    
C18   C19   A    
C65   H31   S    
C63   H29   S    
C75   O2    S    
C10   H48   S    
C82   H43   S    
C4    C75   S    
C77   H39   S    
N15   Ni3   S    
C63   C69   A    
C68   C69   A    
C71   H28   S    
C62   C74   S    
C58   H19   S    
C4    C12   A    
C81   H42   S    
C1    N1    A    
C32   H10   S    
C28   C34   A    
C59   C60   A    
C73   H37   S    
C13   C14   A    
C7    C56   A    
C12   C47   S    
C30   C36   A    
C16   N2    A    
N10   Ni3   S    
C64   N6    A    
C77   C79   A    
C27   C34   S    
C40   N4    A    
N8    Ni1   S    
C25   H8    S    
C50   C53   A    
N11   N12   A    
C66   H32   S    
C62   C66   A    
N1    Ni1   S    
C78   H34   S    
C76   C77   A    
C30   H9    S    
N10   N13   A    
N9    N15   A    
C5    C7    A    
N3    N5    A    
C28   H27   S    
C51   H21   S    
N4    Ni2   S    
C4    N16   A    
C79   H40   S    
C72   H30   S    
C33   C37   A    
C49   C58   A    
C51   C53   A    
N11   Ni4   S    
C42   C48   A    
C43   C44   A    
C37   C38   A    
C70   H26   S    
C53   H24   S    
C47   C48   A    
N12   Ni2   S    
C75   O1    D    
C68   C72   A    
C18   H3    S    
C43   H17   S    
N5    Ni1   S    
C9    C83   A    
C39   C46   A    
C51   C57   A    
C5    H47   S    
C46   H14   S    
C3    N14   A    
C16   C23   A    
C55   C57   A    
C52   N5    A    
C22   C24   A    
C36   C44   A    
C42   C43   A    
C76   C82   A    
C67   N10   A    
C73   C74   A    
C80   H41   S    
C15   C17   A    
C48   H16   S    
C54   C55   A    
N8    N14   A    
C5    N15   A    
C6    C50   S    
C62   C65   A    
N16   Ni2   S    
C3    H46   S    
C8    C31   S    
N6    N16   A    
C31   C32   A    
C2    C8    A    
N2    Ni3   S    
C83   H44   S    
C80   C81   A    
C24   H7    S    
C44   H18   S    
C67   H23   S    
N14   Ni4   S    
C34   C52   A    
C49   C59   A    
C54   H25   S    
C17   C25   A    
C32   C33   A    
C19   C20   A    
C59   H20   S    
C71   C72   A    
C83   N12   A    
C11   C13   A    
C61   C71   A    
C57   C58   A    
C30   C31   A    
C20   C26   A    
C12   C64   A    
N3    Ni4   S    
C33   C35   A    
C37   H11   S    
C9    C78   A    
C69   C70   A    
C35   C41   A    
C46   C47   A    
C38   H13   S    
C10   C11   A    
C79   C80   A    
C15   C21   A    
C20   C21   A    
C8    C67   A    
C26   H5    S    
C13   H2    S    
N2    N4    A    
C14   C15   A    
N6    Ni4   S    
C21   C22   A    
N9    Ni2   S    
C60   H22   S    
C2    H45   S    
C52   H35   S    
