data_mof_unit_13941.cif
_audit_creation_date              2013-03-05T15:53:24-0500
_audit_creation_method            fapswitch 2.2
_symmetry_space_group_name_H-M    P1
_symmetry_Int_Tables_number       1
_space_group_crystal_system       triclinic
_cell_length_a                    10.575921
_cell_length_b                    10.618636
_cell_length_c                    16.872682
_cell_angle_alpha                 98.589859
_cell_angle_beta                  98.506942
_cell_angle_gamma                 62.276149
_cell_volume                      1651.81775263

loop_
_atom_site_label
_atom_site_type_symbol
_atom_site_description
_atom_site_fract_x
_atom_site_fract_y
_atom_site_fract_z
_atom_type_partial_charge
O1    O     O_R   0.751220 0.499230 0.435170 -0.484486
O2    O     O_R   0.477220 0.727600 0.436870 -0.517166
C1    C     C_R   0.354182 0.776577 0.399086 0.548988
O3    O     O_R   0.258650 0.745120 0.411470 -0.512546
O4    O     O_R   0.297070 0.467240 0.395960 -0.496948
C2    C     C_R   0.372227 0.348248 0.358333 0.535300
O5    O     O_R   0.488830 0.252610 0.387790 -0.516693
O6    O     O_R   0.724400 0.302390 0.420980 -0.493394
C3    C     C_R   0.707255 0.415023 0.390510 0.560555
O7    O     O_R   0.752100 0.501210 0.612190 -0.406368
O8    O     O_R   0.478040 0.729440 0.600970 -0.498769
C4    C     C_R   0.379009 0.716034 0.631798 0.526141
O9    O     O_R   0.259530 0.747110 0.588490 -0.482313
O10   O     O_R   0.297880 0.469080 0.560050 -0.478724
C5    C     C_R   0.365808 0.345229 0.584301 0.561369
O11   O     O_R   0.489720 0.254590 0.564810 -0.519669
O12   O     O_R   0.725220 0.304230 0.585080 -0.484743
C6    C     C_R   0.718613 0.409909 0.635770 0.539528
Cr1   Cr    Cr6+3 0.608340 0.611040 0.520430 1.079515
Cr2   Cr    Cr6+3 0.287650 0.601120 0.489350 1.053045
Cr3   Cr    Cr6+3 0.604040 0.287870 0.490280 1.030420
O13   O     O_3   0.500010 0.500010 0.500020 -0.333059
C7    C     C_1   0.346982 0.340241 0.274383 -0.070180
C8    C     C_1   0.334762 0.330188 0.203035 -0.064081
C9    C     C_3   0.724699 0.287521 0.189838 -0.133632
C10   C     C_3   0.642555 0.438177 0.234302 -0.122527
H1    H     H_    0.524795 0.496386 0.236110 0.092453
H2    H     H_    0.675445 0.225938 0.150063 0.148590
C11   C     C_3   0.748228 0.386782 0.309031 0.004151
C12   C     C_3   0.828716 0.237148 0.266374 -0.080154
C13   C     C_3   0.929546 0.287601 0.238878 -0.121959
C14   C     C_3   0.849366 0.436966 0.282877 -0.120939
C15   C     C_3   0.746202 0.484815 0.207659 0.229133
C16   C     C_3   0.825097 0.338078 0.163558 0.079950
H3    H     H_    0.860286 0.137920 0.294850 0.159711
H4    H     H_    0.047368 0.229920 0.237118 0.118068
H5    H     H_    0.899794 0.499070 0.321067 0.139459
C17   C     C_3   0.393523 0.773352 0.202075 -0.106034
C18   C     C_3   0.281233 0.767953 0.248061 -0.125019
H6    H     H_    0.256652 0.676352 0.245342 0.120165
H7    H     H_    0.452300 0.689885 0.155077 0.193020
C19   C     C_3   0.333698 0.836950 0.324140 0.007532
C20   C     C_3   0.448178 0.839856 0.279092 -0.095233
C21   C     C_3   0.337846 0.991946 0.256903 -0.172680
C22   C     C_3   0.223658 0.987514 0.303724 -0.133900
C23   C     C_3   0.174735 0.917989 0.227206 0.243526
C24   C     C_3   0.285006 0.923688 0.181226 0.071071
H8    H     H_    0.561761 0.806466 0.302749 0.162812
H9    H     H_    0.363171 0.081926 0.258254 0.129885
H10   H     H_    0.154593 0.072345 0.347210 0.124805
C25   C     C_3   0.459754 0.248455 0.772072 -0.146713
C26   C     C_3   0.410334 0.389815 0.734263 -0.141127
H11   H     H_    0.476964 0.443718 0.730231 0.089433
H12   H     H_    0.568375 0.185648 0.801815 0.149975
C27   C     C_3   0.334411 0.334328 0.662105 0.009563
C28   C     C_3   0.383981 0.193990 0.699653 -0.158187
C29   C     C_3   0.242636 0.264789 0.741730 -0.135997
C30   C     C_3   0.196549 0.404463 0.704080 0.209687
C31   C     C_3   0.270706 0.457277 0.775623 0.231331
C32   C     C_3   0.319521 0.319422 0.813247 0.065326
H13   H     H_    0.429410 0.085784 0.666834 0.159596
H14   H     H_    0.172521 0.214866 0.746595 0.128941
C33   C     C_1   0.769335 0.366869 0.715502 -0.008991
C34   C     C_1   0.813856 0.329040 0.782127 -0.024025
C35   C     C_1   0.357404 0.765759 0.714451 -0.045506
C36   C     C_1   0.326176 0.812227 0.782041 -0.022965
O14   O     O_R   0.171830 0.913880 0.057510 -0.455010
O15   O     O_R   0.940690 0.186050 0.054730 -0.501968
C37   C     C_R   0.886148 0.312719 0.088229 0.556065
O16   O     O_R   0.920470 0.405720 0.075010 -0.502133
O17   O     O_R   0.196690 0.370460 0.084120 -0.497592
C38   C     C_R   0.320318 0.300787 0.119550 0.528549
O18   O     O_R   0.412990 0.180750 0.091610 -0.521436
O19   O     O_R   0.366620 0.943130 0.065760 -0.491397
C39   C     C_R   0.255207 0.961862 0.099115 0.571556
O20   O     O_R   0.160510 0.906330 0.879210 -0.477292
O21   O     O_R   0.930190 0.179050 0.889450 -0.504904
C40   C     C_R   0.878875 0.301866 0.862139 0.541914
O22   O     O_R   0.909140 0.398170 0.896710 -0.480138
O23   O     O_R   0.186190 0.363460 0.918830 -0.462766
C41   C     C_R   0.308975 0.293887 0.892366 0.572407
O24   O     O_R   0.401670 0.173200 0.913310 -0.525660
O25   O     O_R   0.356120 0.936130 0.900470 -0.491558
C42   C     C_R   0.282333 0.880269 0.859702 0.580627
Cr4   Cr    Cr6+3 0.054020 0.052700 0.970850 1.079187
Cr5   Cr    Cr6+3 0.059230 0.375120 0.993390 1.074574
Cr6   Cr    Cr6+3 0.374950 0.061200 0.992340 1.047235
O26   O     O_3   0.162740 0.163010 0.985530 -0.306267
O27   O     O_3   0.033164 0.955383 0.196012 -0.688860
H15   H     H_    0.998495 0.907382 0.227214 0.316981
N1    N     N_R   0.052328 0.491443 0.669003 0.082157
O28   O     O_R   0.949453 0.563591 0.715747 -0.303449
O29   O     O_R   0.026679 0.502494 0.591924 -0.309558
O30   O     O_3   0.212100 0.592226 0.818192 -0.658389
H16   H     H_    0.163496 0.660648 0.776650 0.349352
O31   O     O_3   0.706909 0.612515 0.174545 -0.708152
H17   H     H_    0.793001 0.629034 0.183520 0.337607

loop_
_geom_bond_atom_site_label_1
_geom_bond_atom_site_label_2
_geom_bond_distance
_ccdc_geom_bond_type
C21   H9    1.102255 S    
O25   Cr6   1.935463 S    
C27   C28   1.534196 S    
C1    C19   1.445289 S    
O11   Cr3   2.036691 S    
Cr6   O26   1.980463 S    
O20   C42   1.269404 A    
C41   O24   1.261790 A    
C29   H14   1.111033 S    
O4    Cr2   1.938916 S    
O21   C40   1.286339 A    
C21   C22   1.559155 S    
C9    H2    1.109850 S    
O8    Cr1   1.938565 S    
C10   H1    1.106085 S    
C12   H3    1.108599 S    
O4    C2    1.267516 A    
C11   C14   1.537219 S    
C12   C13   1.546465 S    
O23   C41   1.269586 A    
Cr5   O26   1.987099 S    
C6    C33   1.431258 S    
C5    O11   1.269363 A    
C28   C29   1.553296 S    
O12   C6    1.285955 A    
C25   C28   1.549231 S    
O18   Cr6   2.054139 S    
O23   Cr5   1.923383 S    
O25   C42   1.258557 A    
O15   C37   1.268401 A    
C7    C8    1.185634 T    
C31   O30   1.396912 S    
O19   Cr6   1.926977 S    
C20   H8    1.110035 S    
C21   C24   1.535364 S    
C3    C11   1.449109 S    
C9    C16   1.533960 S    
O21   Cr4   1.945502 S    
C31   C32   1.513207 S    
Cr3   O13   1.987164 S    
O15   Cr4   1.941332 S    
O30   H16   0.990687 S    
C15   C16   1.518358 S    
C18   C19   1.542405 S    
O14   Cr4   2.063808 S    
O1    Cr1   2.055762 S    
O19   C39   1.299753 A    
C25   C26   1.546197 S    
O10   Cr2   1.928950 S    
Cr1   O13   1.959583 S    
O1    C3    1.290516 A    
C17   H7    1.106370 S    
C18   H6    1.110950 S    
C23   O27   1.397337 S    
C40   O22   1.248820 A    
O6    C3    1.296898 A    
C29   C32   1.547038 S    
C30   C31   1.521077 S    
O5    Cr3   2.054967 S    
O12   Cr3   1.936180 S    
C19   C22   1.530977 S    
C5    C27   1.434261 S    
C20   C21   1.551752 S    
C11   C12   1.532464 S    
C26   C31   1.533656 S    
N1    O29   1.300130 A    
O17   Cr5   1.938214 S    
C32   C41   1.431217 S    
C10   C15   1.538271 S    
C13   C14   1.539128 S    
O10   C5    1.268000 A    
O7    Cr1   2.064445 S    
O31   H17   0.991252 S    
O6    Cr3   1.920446 S    
C13   C16   1.536179 S    
C14   H5    1.110475 S    
C16   C37   1.443480 S    
C17   C24   1.527398 S    
C18   C23   1.520281 S    
Cr2   O13   1.980856 S    
O14   C39   1.287622 A    
C19   C20   1.535765 S    
C1    O3    1.254329 A    
O16   Cr5   2.043604 S    
C15   O31   1.398907 S    
N1    O28   1.300216 A    
C26   H11   1.109009 S    
C8    C38   1.397985 S    
C30   N1    1.454398 S    
Cr4   O26   1.958993 S    
C9    C12   1.549985 S    
C23   C24   1.520844 S    
O9    Cr2   2.057508 S    
O2    Cr1   1.946427 S    
C28   H13   1.110265 S    
C34   C40   1.426797 S    
C38   O18   1.265845 A    
O8    C4    1.307582 A    
C26   C27   1.552696 S    
C2    O5    1.266225 A    
C4    C35   1.427556 S    
C25   H12   1.110355 S    
C14   C15   1.525258 S    
O2    C1    1.262577 A    
C9    C10   1.554998 S    
C24   C39   1.450091 S    
C17   C20   1.550766 S    
C29   C30   1.535590 S    
C17   C18   1.537825 S    
C22   H10   1.110065 S    
O7    C6    1.303842 A    
C2    C7    1.399324 S    
C37   O16   1.256991 A    
C36   C42   1.428042 S    
C33   C34   1.203769 T    
O3    Cr2   2.050247 S    
C22   C23   1.533839 S    
O17   C38   1.270857 A    
C4    O9    1.284682 A    
C10   C11   1.535517 S    
C35   C36   1.202009 T    
C27   C30   1.523059 S    
C13   H4    1.106413 S    
C25   C32   1.535805 S    
O27   H15   0.991251 S    
O20   Cr4   2.059984 S    
O22   Cr5   2.057240 S    
O24   Cr6   2.042121 S    
