data_mof_unit_13181.cif
_audit_creation_date              2013-03-05T17:00:27-0500
_audit_creation_method            fapswitch 2.2
_symmetry_space_group_name_H-M    P1
_symmetry_Int_Tables_number       1
_space_group_crystal_system       triclinic
_cell_length_a                    10.654437
_cell_length_b                    16.179487
_cell_length_c                    16.849332
_cell_angle_alpha                 84.825343
_cell_angle_beta                  93.521554
_cell_angle_gamma                 89.403892
_cell_volume                      2886.87255544

loop_
_atom_site_label
_atom_site_type_symbol
_atom_site_description
_atom_site_fract_x
_atom_site_fract_y
_atom_site_fract_z
_atom_type_partial_charge
O1    O     O_R   0.494530 0.422540 0.612660 -0.627417
O2    O     O_R   0.505470 0.577460 0.387340 -0.557279
O3    O     O_R   0.504350 0.561840 0.618900 -0.643955
O4    O     O_R   0.495650 0.438160 0.381100 -0.575481
C1    C     C_R   0.491781 0.487162 0.652813 0.856461
C2    C     C_R   0.505143 0.512819 0.346595 0.931530
O5    O     O_R   0.678310 0.430340 0.496890 -0.657209
O6    O     O_R   0.321690 0.569660 0.503110 -0.571324
O7    O     O_R   0.688140 0.569650 0.503130 -0.616649
O8    O     O_R   0.311860 0.430350 0.496870 -0.590642
C3    C     C_R   0.739288 0.498798 0.490724 0.859065
C4    C     C_R   0.260739 0.501265 0.509334 0.893322
Zn1   Zn    Zn3+2 0.493440 0.406980 0.495830 0.951653
Zn2   Zn    Zn3+2 0.506560 0.593020 0.504170 0.973703
C5    C     C_R   0.896473 0.340745 0.498810 -0.217227
C6    C     C_R   0.104227 0.659446 0.501742 -0.128056
C7    C     C_R   0.960143 0.270803 0.538179 0.001288
C8    C     C_R   0.042785 0.729341 0.460713 0.010041
C9    C     C_R   0.069444 0.282494 0.586701 0.161042
C10   C     C_R   0.932261 0.718148 0.413041 0.164415
C11   C     C_R   0.123014 0.361365 0.584553 -0.201142
C12   C     C_R   0.877271 0.639542 0.416112 -0.197223
C13   C     C_R   0.064879 0.429688 0.537945 0.056056
C14   C     C_R   0.935270 0.570836 0.462485 0.040693
C15   C     C_R   0.942919 0.421709 0.504846 0.049381
C16   C     C_R   0.057276 0.578650 0.495673 0.038126
C17   C     C_R   0.126755 0.505416 0.522859 -0.231928
C18   C     C_R   0.873368 0.494927 0.477518 -0.204045
H1    H     H_    0.813146 0.330856 0.461380 0.203894
H2    H     H_    0.187258 0.669115 0.539694 0.198248
H3    H     H_    0.210820 0.369156 0.618683 0.144848
H4    H     H_    0.789168 0.632108 0.382111 0.148244
C19   C     C_R   0.463967 0.475989 0.737663 -0.183408
C20   C     C_R   0.514848 0.523030 0.259052 -0.173046
C21   C     C_R   0.398270 0.539377 0.771628 0.147003
C22   C     C_R   0.547219 0.453190 0.219457 0.139310
C23   C     C_R   0.384932 0.532556 0.853241 -0.168711
C24   C     C_R   0.531279 0.457030 0.137129 -0.223354
C25   C     C_R   0.434774 0.464053 0.901868 0.140595
C26   C     C_R   0.487536 0.529894 0.092210 0.168130
C27   C     C_R   0.488262 0.396597 0.868793 -0.064589
C28   C     C_R   0.471191 0.603150 0.129196 -0.082559
C29   C     C_R   0.499836 0.401559 0.785380 0.133001
C30   C     C_R   0.485814 0.599934 0.213482 0.145443
N1    N     N_2   0.438816 0.463872 0.985396 -0.193723
N2    N     N_2   0.470641 0.531991 0.008366 -0.184466
H5    H     H_    0.555148 0.402647 0.107684 0.159209
H6    H     H_    0.336126 0.581396 0.879571 0.164286
N3    N     N_R   0.515300 0.716920 0.509720 -0.118698
N4    N     N_R   0.484700 0.283080 0.490280 -0.148373
C31   C     C_R   0.441641 0.771106 0.457567 0.070259
C32   C     C_R   0.558720 0.230355 0.542132 0.030340
C33   C     C_R   0.448269 0.857057 0.461721 -0.331705
C34   C     C_R   0.550631 0.144261 0.539031 -0.201520
C35   C     C_R   0.522714 0.890771 0.521409 0.294196
C36   C     C_R   0.471558 0.110708 0.480832 0.246698
C37   C     C_R   0.595046 0.835953 0.575982 -0.149960
C38   C     C_R   0.400373 0.165895 0.425205 -0.176140
C39   C     C_R   0.597922 0.749537 0.565367 0.214376
C40   C     C_R   0.406936 0.252794 0.432137 0.249523
N5    N     N_2   0.526104 0.978454 0.528611 -0.107692
N6    N     N_2   0.466368 0.022992 0.474152 -0.102133
H7    H     H_    0.608956 0.103549 0.580890 0.246047
H8    H     H_    0.390956 0.897846 0.419201 0.204026
N7    N     N_2   0.876382 0.785116 0.361866 -0.327640
H9    H     H_    0.837184 0.767127 0.308808 0.235103
C41   C     C_3   0.792326 0.838043 0.399586 -0.782409
H10   H     H_    0.713607 0.801458 0.423601 0.238949
H11   H     H_    0.753118 0.887822 0.355007 0.258559
H12   H     H_    0.842963 0.867848 0.448669 0.251074
N8    N     N_2   0.127345 0.215079 0.636085 -0.317724
H13   H     H_    0.158557 0.231048 0.691724 0.238460
C42   C     C_3   0.222736 0.170908 0.598616 -0.792715
H14   H     H_    0.302471 0.212422 0.585750 0.239286
H15   H     H_    0.183605 0.147768 0.542276 0.252789
H16   H     H_    0.258070 0.116881 0.639463 0.265013
C43   C     C_2   0.665631 0.866922 0.646291 0.434886
H17   H     H_    0.690839 0.824571 0.698606 0.091408
O9    O     O_2   0.697514 0.939135 0.646811 -0.543274
C44   C     C_2   0.320780 0.134173 0.359087 0.424682
H18   H     H_    0.295820 0.174005 0.305124 0.061885
O10   O     O_2   0.280712 0.063597 0.364091 -0.556455
N9    N     N_2   0.689657 0.698056 0.612597 -0.327210
H19   H     H_    0.675639 0.636185 0.624096 0.291686
C45   C     C_3   0.821416 0.718149 0.607682 -0.780290
H20   H     H_    0.872988 0.665369 0.586623 0.257225
H21   H     H_    0.862496 0.728599 0.667989 0.243228
H22   H     H_    0.835454 0.774293 0.566618 0.253223
N10   N     N_2   0.335707 0.309825 0.377369 -0.254064
H23   H     H_    0.362508 0.312005 0.319462 0.207915
C46   C     C_3   0.200642 0.310966 0.383629 -0.724566
H24   H     H_    0.166131 0.376211 0.379763 0.257395
H25   H     H_    0.174206 0.278679 0.440854 0.245785
H26   H     H_    0.153087 0.280550 0.333760 0.208000
C47   C     C_2   0.912369 0.186226 0.528587 0.470269
H27   H     H_    0.951424 0.133145 0.566303 0.128866
O11   O     O_2   0.829649 0.174529 0.477573 -0.591429
C48   C     C_2   0.095763 0.813103 0.466765 0.368879
H28   H     H_    0.064846 0.864620 0.424160 0.124253
O12   O     O_2   0.173831 0.825891 0.520216 -0.582211
N11   N     N_2   0.597339 0.378650 0.261742 -0.283959
H29   H     H_    0.575902 0.325537 0.234418 0.219143
C49   C     C_3   0.729573 0.382280 0.286102 -0.722252
H30   H     H_    0.760089 0.322921 0.320368 0.247344
H31   H     H_    0.747168 0.433565 0.324748 0.223635
H32   H     H_    0.786113 0.391822 0.232842 0.232982
N12   N     N_2   0.335609 0.606888 0.724392 -0.300824
H33   H     H_    0.303951 0.596033 0.667322 0.232135
C50   C     C_3   0.390142 0.687600 0.731580 -0.698815
H34   H     H_    0.335464 0.735190 0.691663 0.249798
H35   H     H_    0.488987 0.687541 0.714369 0.241766
H36   H     H_    0.387664 0.704598 0.793853 0.233466
C51   C     C_2   0.532567 0.323027 0.923697 0.405895
H37   H     H_    0.493349 0.311429 0.981521 0.075626
O13   O     O_2   0.615085 0.275998 0.906875 -0.558671
C52   C     C_2   0.437108 0.681194 0.077907 0.412017
H38   H     H_    0.391980 0.678124 0.018749 0.078893
O14   O     O_2   0.462392 0.749501 0.099158 -0.570032
N13   N     N_2   0.540597 0.331124 0.748567 -0.279205
H39   H     H_    0.629235 0.308872 0.767644 0.297090
C53   C     C_3   0.446299 0.267810 0.741945 -0.671084
H40   H     H_    0.484303 0.214819 0.713031 0.252405
H41   H     H_    0.363147 0.293936 0.705041 0.215818
H42   H     H_    0.416647 0.243877 0.801642 0.243003
N14   N     N_2   0.469940 0.673130 0.252586 -0.246400
H43   H     H_    0.391803 0.709204 0.233177 0.258561
C54   C     C_3   0.583710 0.719026 0.267840 -0.675836
H44   H     H_    0.574153 0.783088 0.238136 0.256094
H45   H     H_    0.667724 0.688660 0.246239 0.220326
H46   H     H_    0.599381 0.722943 0.332882 0.224858
C55   C     C_2   0.650356 0.262559 0.600876 0.414404
H47   H     H_    0.664086 0.327877 0.603090 0.145505
O15   O     O_2   0.713192 0.215500 0.648829 -0.590012
C56   C     C_2   0.354019 0.745981 0.392607 0.440319
H48   H     H_    0.317124 0.792671 0.346466 0.036282
O16   O     O_2   0.317630 0.675662 0.389102 -0.533905

loop_
_geom_bond_atom_site_label_1
_geom_bond_atom_site_label_2
_geom_bond_distance
_ccdc_geom_bond_type
C43   H17   1.084787 S    
N11   H29   1.032046 S    
C42   H15   1.110804 S    
C42   H14   1.108175 S    
C9    N8    1.421918 S    
C47   H27   1.084528 S    
C25   C27   1.400816 A    
C45   H20   1.107196 S    
C15   C18   1.416302 A    
O5    C3    1.289273 A    
C11   H3    1.082229 S    
C16   C17   1.415620 A    
C12   H4    1.082828 S    
O1    C1    1.296596 A    
C9    C11   1.401728 A    
C39   N9    1.431887 S    
C50   H35   1.109383 S    
C31   C56   1.482367 S    
C37   C39   1.425725 A    
Zn2   N3    2.018073 S    
C34   H7    1.082276 S    
C38   C40   1.423374 A    
C52   H38   1.085243 S    
O4    Zn1   1.954979 S    
C53   H42   1.110327 S    
C19   C21   1.417543 A    
C36   C38   1.413719 A    
N7    C41   1.446167 S    
C1    C19   1.473422 S    
N4    C32   1.371091 A    
N12   H33   1.030116 S    
C7    C47   1.483933 S    
C13   C17   1.407719 A    
N10   C46   1.449393 S    
C8    C10   1.406825 A    
C38   C44   1.489893 S    
C25   N1    1.405137 S    
C36   N6    1.435113 S    
N13   C53   1.448958 S    
N11   C49   1.446333 S    
C27   C29   1.413550 A    
O2    C2    1.301717 A    
C28   C30   1.415338 A    
C32   C34   1.401987 A    
C5    H1    1.078841 S    
C33   C35   1.395722 A    
C6    C16   1.414567 A    
C34   C36   1.403617 A    
C30   N14   1.419685 S    
C45   H21   1.109319 S    
C41   H10   1.107408 S    
C19   C29   1.421493 A    
C37   C43   1.491831 S    
C10   N7    1.423698 S    
C20   C30   1.422653 A    
C44   O10   1.220849 D    
C50   H36   1.110211 S    
C46   H24   1.109228 S    
N8    C42   1.444770 S    
C56   O16   1.211081 D    
C4    C17   1.461157 S    
N3    C31   1.385170 A    
C40   N10   1.422937 S    
C33   H8    1.083639 S    
C2    C20   1.479472 S    
C22   N11   1.425525 S    
C41   H11   1.110267 S    
C26   N2    1.410425 S    
O7    Zn2   1.968812 S    
C54   H45   1.112759 S    
C46   H25   1.107914 S    
N9    H19   1.016664 S    
O6    C4    1.288272 A    
C53   H40   1.108482 S    
C43   O9    1.220769 D    
C49   H31   1.110576 S    
C23   H6    1.083823 S    
O7    C3    1.303456 A    
C24   H5    1.083794 S    
O3    Zn2   1.954979 S    
O8    C4    1.304510 A    
C28   C52   1.492718 S    
N9    C45   1.449896 S    
C10   C12   1.403850 A    
N7    H9    1.030518 S    
C48   O12   1.221041 D    
C11   C13   1.411298 A    
N14   H43   1.030872 S    
C42   H16   1.110110 S    
C12   C14   1.413433 A    
O4    C2    1.300172 A    
O1    Zn1   2.006287 S    
C54   H44   1.110473 S    
O3    C1    1.300981 A    
C22   C24   1.382836 A    
C51   H37   1.085235 S    
C45   H22   1.108343 S    
C5    C7    1.405026 A    
O6    Zn2   2.008783 S    
C21   C23   1.385748 A    
C32   C55   1.479627 S    
C14   C18   1.410252 A    
C27   C51   1.493830 S    
C44   H18   1.083419 S    
C55   O15   1.221772 D    
O8    Zn1   1.968813 S    
N13   H39   1.029357 S    
C47   O11   1.221122 D    
C56   H48   1.086255 S    
N3    C39   1.389261 A    
C41   H12   1.109099 S    
N4    C40   1.371732 A    
C35   C37   1.406295 A    
C54   H46   1.105972 S    
N8    H13   1.031218 S    
C23   C25   1.397224 A    
C50   H34   1.110726 S    
C46   H26   1.110142 S    
C24   C26   1.401481 A    
C14   C16   1.394740 A    
N12   C50   1.446810 S    
C3    C18   1.460776 S    
C35   N5    1.435356 S    
C26   C28   1.402055 A    
C7    C9    1.405662 A    
C52   O14   1.219792 D    
C49   H32   1.111486 S    
C20   C22   1.413154 A    
C13   C15   1.394134 A    
N5    N6    1.251299 D    
O2    Zn2   2.006285 S    
C53   H41   1.107851 S    
C21   N12   1.426538 S    
Zn1   N4    2.018073 S    
N1    N2    1.244217 D    
O5    Zn1   2.008785 S    
C5    C15   1.415119 A    
C6    C8    1.404744 A    
C48   H28   1.084382 S    
C49   H30   1.109873 S    
N14   C54   1.449722 S    
C8    C48   1.483042 S    
C31   C33   1.400982 A    
N10   H23   1.031019 S    
C6    H2    1.080469 S    
C55   H47   1.072057 S    
C29   N13   1.422091 S    
C51   O13   1.219780 D    
