data_mof_unit_39041.cif
_audit_creation_date              2012-12-10T20:46:24-0500
_audit_creation_method            fapswitch 2.2
_symmetry_space_group_name_H-M    P1
_symmetry_Int_Tables_number       1
_space_group_crystal_system       triclinic
_cell_length_a                    10.731405
_cell_length_b                    8.916117
_cell_length_c                    8.165634
_cell_angle_alpha                 90.015461
_cell_angle_beta                  91.493829
_cell_angle_gamma                 89.949056
_cell_volume                      781.042100464

loop_
_atom_site_label
_atom_site_type_symbol
_atom_type_description
_atom_site_fract_x
_atom_site_fract_y
_atom_site_fract_z
_atom_type_partial_charge
C1    C     C_R   0.500111 0.218261 0.499958 0.929952
C2    C     C_1   0.500311 0.934699 0.500003 -0.199214
C3    C     C_R   0.865125 0.696491 0.272429 0.172606
C4    C     C_R   0.829114 0.836753 0.333613 -0.179255
C5    C     C_R   0.768578 0.940675 0.230815 -0.133407
C6    C     C_R   0.742744 0.904833 0.066772 -0.103522
C7    C     C_R   0.777349 0.764984 0.005237 -0.148950
C8    C     C_R   0.838185 0.660904 0.107495 -0.118270
C9    C     C_R   0.094007 0.490601 0.205628 0.187118
C10   C     C_R   0.069003 0.340248 0.166391 -0.163252
C11   C     C_R   0.094297 0.286461 0.010353 -0.167402
C12   C     C_R   0.500258 0.781732 0.499991 0.930253
C13   C     C_R   0.143768 0.382916 0.894200 -0.093988
C14   C     C_R   0.169113 0.532970 0.935089 -0.135698
C15   C     C_R   0.144144 0.586603 0.090062 -0.142641
C16   C     C_R   0.261723 0.508023 0.498211 0.923520
C17   C     C_R   0.737664 0.505217 0.501776 0.934491
C18   C     C_2   0.928056 0.586280 0.384097 -0.012325
C19   C     C_2   0.058171 0.551264 0.363883 -0.011203
C20   C     C_2   0.869627 0.512315 0.502769 -0.420668
C21   C     C_2   0.132655 0.551204 0.497261 -0.441676
C22   C     C_1   0.500257 0.065264 0.499956 -0.215611
H1    H     H_    0.919254 0.440272 0.589997 0.145473
H2    H     H_    0.161104 0.340468 0.773045 0.143710
H3    H     H_    0.206721 0.610843 0.848791 0.158797
H4    H     H_    0.161919 0.703301 0.119447 0.128753
H5    H     H_    0.096287 0.591589 0.611824 0.152251
H6    H     H_    0.848040 0.865452 0.460746 0.118315
H7    H     H_    0.741383 0.048846 0.278454 0.136652
H8    H     H_    0.695541 0.985203 0.987498 0.136527
H9    H     H_    0.756505 0.736954 0.878464 0.151381
H10   H     H_    0.862208 0.552082 0.058712 0.138107
H11   H     H_    0.028404 0.266118 0.255522 0.128175
H12   H     H_    0.074331 0.170848 0.978929 0.137110
N1    N     N_1   0.500000 0.500000 0.073640 -0.031049
N2    N     N_1   0.500000 0.500000 0.926360 -0.040197
O1    O     O_R   0.500000 0.285350 0.636850 -0.614304
O2    O     O_R   0.500000 0.714650 0.636850 -0.628446
O3    O     O_R   0.500000 0.285360 0.363100 -0.616477
O4    O     O_R   0.500000 0.714640 0.363100 -0.607566
O5    O     O_R   0.319080 0.500000 0.636840 -0.643673
O6    O     O_R   0.680920 0.500000 0.636840 -0.631961
O7    O     O_R   0.319090 0.500000 0.363090 -0.594209
O8    O     O_R   0.680910 0.500000 0.363090 -0.605573
Zn1   Zn    Zn3+2 0.500000 0.500000 0.682780 0.956463
Zn2   Zn    Zn3+2 0.500000 0.500000 0.317220 0.990880

loop_
_geom_bond_atom_site_label_1
_geom_bond_atom_site_label_2
_ccdc_geom_bond_type
C12   O4    A    
C2    C22   T    
C16   C21   S    
C9    C10   A    
C5    H7    S    
N1    N2    T    
C20   H1    S    
C1    O1    A    
C2    C12   S    
C9    C15   A    
C17   O8    A    
C1    C22   S    
C13   C14   A    
O4    Zn2   S    
C11   C13   A    
C16   O7    A    
C6    C7    A    
O2    Zn1   S    
O3    Zn2   S    
C4    H6    S    
O8    Zn2   S    
C18   C19   S    
C10   H11   S    
C18   C20   D    
C14   H3    S    
C21   H5    S    
C5    C6    A    
O7    Zn2   S    
C7    H9    S    
C10   C11   A    
C1    O3    A    
O1    Zn1   S    
C3    C4    A    
C8    H10   S    
C12   O2    A    
N2    Zn1   S    
C17   C20   S    
C3    C18   S    
C3    C8    A    
C7    C8    A    
O5    Zn1   S    
C14   C15   A    
C15   H4    S    
C6    H8    S    
C17   O6    A    
N1    Zn2   S    
C16   O5    A    
C9    C19   S    
C11   H12   S    
C13   H2    S    
C4    C5    A    
C19   C21   D    
O6    Zn1   S    
