data_mof_unit_51028.cif
_audit_creation_date              2012-12-11T21:12:38-0500
_audit_creation_method            fapswitch 2.2
_symmetry_space_group_name_H-M    P1
_symmetry_Int_Tables_number       1
_space_group_crystal_system       triclinic
_cell_length_a                    8.203461
_cell_length_b                    18.80172
_cell_length_c                    26.994537
_cell_angle_alpha                 99.42605
_cell_angle_beta                  92.776116
_cell_angle_gamma                 88.349436
_cell_volume                      4101.6563396

loop_
_atom_site_label
_atom_site_type_symbol
_atom_type_description
_atom_site_fract_x
_atom_site_fract_y
_atom_site_fract_z
_atom_type_partial_charge
Ba1   Ba    Ba6+2 0.160810 0.465630 0.521640 1.640908
Ba2   Ba    Ba6+2 0.649380 0.534380 0.478400 1.637817
C1    C     C_3   0.423654 0.278454 0.699663 -0.382457
C2    C     C_R   0.065655 0.095658 0.448869 -0.090605
C3    C     C_R   0.204903 0.952209 0.456895 -0.102426
C4    C     C_3   0.960235 0.271581 0.625021 0.367935
C5    C     C_R   0.054548 0.976841 0.477590 0.018773
C6    C     C_R   0.261135 0.881666 0.456251 -0.091789
C7    C     C_R   0.170931 0.832084 0.476399 -0.030913
C8    C     C_R   0.024542 0.855981 0.500302 0.002041
C9    C     C_R   0.966823 0.928801 0.501408 0.023104
C10   C     C_R   0.223078 0.759261 0.473595 -0.009190
C11   C     C_R   0.126463 0.710690 0.492255 -0.296670
C12   C     C_3   0.434338 0.304341 0.649555 0.351183
C13   C     C_R   0.986848 0.733427 0.518317 0.045184
C14   C     C_R   0.937106 0.807308 0.523654 -0.036821
C15   C     C_R   0.847800 0.072428 0.501403 0.024735
C16   C     C_3   0.985621 0.199104 0.642583 -0.377032
C17   C     C_R   0.789724 0.145174 0.502228 -0.001897
C18   C     C_R   0.875852 0.193504 0.478189 -0.040522
C19   C     C_R   0.007926 0.166041 0.449455 -0.021602
C20   C     C_R   0.803778 0.834306 0.551934 -0.027665
C21   C     C_R   0.746914 0.904899 0.553022 -0.091333
C22   C     C_R   0.822136 0.952888 0.526386 0.011958
C23   C     C_3   0.468765 0.314132 0.398288 0.306350
C24   C     C_R   0.760313 0.024454 0.525372 0.018971
C25   C     C_R   0.610501 0.049288 0.546327 -0.102961
C26   C     C_R   0.643351 0.169094 0.526064 -0.033776
C27   C     C_R   0.553823 0.119671 0.546607 -0.094472
C28   C     C_3   0.839925 0.622185 0.631713 0.300692
C29   C     C_R   0.589901 0.241620 0.528097 -0.007633
C30   C     C_R   0.684976 0.290020 0.508639 -0.300782
C31   C     C_R   0.825288 0.267319 0.482963 0.047013
C32   C     C_R   0.298140 0.449135 0.175238 0.594699
C33   C     C_R   0.155080 0.561777 0.173873 0.581411
C34   C     C_3   0.471127 0.232685 0.382725 -0.387655
C35   C     C_2   0.022530 0.521706 0.269201 -0.071786
C36   C     C_3   0.988734 0.517231 0.323459 -0.049781
C37   C     C_1   0.277699 0.491770 0.336407 0.010292
C38   C     C_2   0.311706 0.495934 0.289618 -0.095825
C39   C     C_2   0.176468 0.510051 0.252593 0.200592
C40   C     C_3   0.836569 0.641211 0.688568 -0.361394
C41   C     C_R   0.287832 0.502105 0.098406 -0.082666
C42   C     C_R   0.340326 0.446550 0.124882 -0.058317
C43   C     C_R   0.429185 0.387744 0.100223 -0.088533
C44   C     C_R   0.191538 0.559430 0.122893 -0.022686
C45   C     C_3   0.855042 0.722566 0.377502 0.344864
C46   C     C_2   0.144742 0.522954 0.355853 -0.287212
C47   C     C_2   0.648836 0.471009 0.638171 -0.321414
C48   C     C_R   0.483381 0.444815 0.974175 0.023887
C49   C     C_R   0.314109 0.554560 0.969891 0.020047
C50   C     C_R   0.418628 0.498678 0.946841 0.041140
C51   C     C_R   0.605946 0.397724 0.951595 -0.090946
C52   C     C_3   0.979410 0.367279 0.365394 0.298601
C53   C     C_R   0.637079 0.393051 0.901137 -0.082196
C54   C     C_R   0.562580 0.441439 0.872519 -0.024401
C55   C     C_R   0.462270 0.497284 0.895978 -0.083086
C56   C     C_3   0.866540 0.796746 0.362722 -0.367713
C57   C     C_R   0.406654 0.551567 0.868612 -0.036381
C58   C     C_R   0.456430 0.550059 0.818788 0.588820
C59   C     C_R   0.591771 0.436209 0.821234 0.575904
C60   C     C_2   0.742750 0.461641 0.727493 0.180146
C61   C     C_3   0.756446 0.430958 0.671920 -0.061648
C62   C     C_1   0.517689 0.507250 0.656158 0.042465
C63   C     C_2   0.472424 0.507286 0.702950 -0.140937
C64   C     C_3   0.014275 0.336285 0.311095 -0.366011
C65   C     C_2   0.593057 0.487649 0.742689 0.164843
C66   C     C_R   0.430117 0.441941 0.023503 0.007568
C67   C     C_3   0.335615 0.695311 0.351659 0.294540
C68   C     C_R   0.330586 0.500070 0.047429 0.016055
C69   C     C_R   0.271984 0.556037 0.020829 0.028000
C70   C     C_R   0.468616 0.382905 0.050029 0.171654
C71   C     C_R   0.133363 0.613315 0.096092 -0.062423
C72   C     C_R   0.258518 0.608007 0.941152 -0.102694
C73   C     C_R   0.304976 0.606755 0.891949 -0.064749
C74   C     C_R   0.171441 0.611538 0.046223 -0.098924
C75   C     C_3   0.333807 0.686156 0.592729 0.315726
C76   C     C_3   0.341810 0.767468 0.608714 -0.385574
C77   C     C_3   0.975669 0.404687 0.769625 -0.093971
C78   C     C_3   0.344605 0.713512 0.299110 -0.350589
C79   C     C_3   0.419002 0.266220 0.999271 -0.239934
C80   C     C_R   0.992071 0.048206 0.476268 0.011701
H1    H     H_    0.374631 0.358645 0.652238 0.076830
H2    H     H_    0.205161 0.671123 0.584565 0.004728
H3    H     H_    0.404972 0.670866 0.558500 0.062508
H4    H     H_    0.293710 0.275359 0.709110 0.143895
H5    H     H_    0.267336 0.784622 0.642025 0.128069
H6    H     H_    0.294326 0.795540 0.577807 0.056907
H7    H     H_    0.470208 0.783360 0.618346 0.118432
H8    H     H_    0.565302 0.307791 0.641934 -0.063441
H9    H     H_    0.486497 0.316969 0.729492 0.134971
H10   H     H_    0.595895 0.331869 0.407518 0.024238
H11   H     H_    0.395482 0.327443 0.432231 0.061753
H12   H     H_    0.746702 0.685795 0.699094 0.133337
H13   H     H_    0.546234 0.217207 0.349357 0.133027
H14   H     H_    0.524082 0.206515 0.414016 0.057636
H15   H     H_    0.344865 0.213476 0.373400 0.115174
H16   H     H_    0.483316 0.224131 0.697988 0.116644
H17   H     H_    0.918632 0.157019 0.616352 0.075910
H18   H     H_    0.738218 0.720023 0.395904 0.119219
H19   H     H_    0.957750 0.715300 0.404441 -0.027412
H20   H     H_    0.852984 0.838952 0.396298 0.080587
H21   H     H_    0.987070 0.802346 0.346842 0.116303
H22   H     H_    0.768019 0.804555 0.334314 0.138846
H23   H     H_    0.801429 0.593875 0.704823 0.067425
H24   H     H_    0.206735 0.701649 0.362653 -0.015943
H25   H     H_    0.377071 0.638429 0.350519 0.072255
H26   H     H_    0.265506 0.676838 0.272544 0.131979
H27   H     H_    0.472208 0.706828 0.286851 0.137434
H28   H     H_    0.011293 0.268011 0.587295 0.089255
H29   H     H_    0.302204 0.770040 0.298686 0.120184
H30   H     H_    0.164701 0.654607 0.488480 0.069340
H31   H     H_    0.376669 0.866729 0.439505 0.113513
H32   H     H_    0.069801 0.198457 0.427009 0.098560
H33   H     H_    0.740436 0.801355 0.573651 0.095157
H34   H     H_    0.959414 0.658263 0.704478 0.135143
H35   H     H_    0.438232 0.134471 0.563288 0.112721
H36   H     H_    0.644215 0.345658 0.511086 0.074414
H37   H     H_    0.284751 0.986660 0.441529 0.072551
H38   H     H_    0.167219 0.079662 0.425440 0.059900
H39   H     H_    0.644202 0.920404 0.576045 0.059513
H40   H     H_    0.826671 0.282215 0.621880 -0.076545
H41   H     H_    0.531212 0.015159 0.562167 0.071418
H42   H     H_    0.436329 0.488325 0.277841 0.121552
H43   H     H_    0.463912 0.343121 0.119643 0.123348
H44   H     H_    0.726306 0.353347 0.885061 0.112533
H45   H     H_    0.093721 0.387975 0.385092 0.024265
H46   H     H_    0.685401 0.365507 0.972309 0.113484
H47   H     H_    0.920530 0.528023 0.243050 0.105470
H48   H     H_    0.056659 0.657472 0.113581 0.121077
H49   H     H_    0.179216 0.652370 0.955470 0.068415
H50   H     H_    0.117226 0.183838 0.643577 0.150625
H51   H     H_    0.259637 0.649356 0.872007 0.120414
H52   H     H_    0.348941 0.523114 0.713001 0.155871
H53   H     H_    0.119616 0.655201 0.028889 0.066844
H54   H     H_    0.146181 0.549308 0.394829 0.071079
H55   H     H_    0.658663 0.455479 0.597869 0.091077
H56   H     H_    0.886713 0.411463 0.366348 0.037041
H57   H     H_    0.938912 0.202014 0.680821 0.111145
H58   H     H_    0.716765 0.606340 0.616434 0.014064
H59   H     H_    0.927171 0.576440 0.622048 0.077254
H60   H     H_    0.873390 0.507646 0.793448 0.190021
H61   H     H_    0.103351 0.409490 0.759046 0.109248
H62   H     H_    0.922248 0.355133 0.747435 0.136313
H63   H     H_    0.978079 0.399284 0.810037 0.090190
H64   H     H_    0.616452 0.291311 0.049397 0.193078
H65   H     H_    0.484122 0.218078 0.979508 0.112485
H66   H     H_    0.347152 0.291844 0.970835 0.122513
H67   H     H_    0.095907 0.287896 0.309926 0.146273
H68   H     H_    0.334405 0.248137 0.025539 0.109538
H69   H     H_    0.075358 0.376082 0.292774 0.081154
H70   H     H_    0.898449 0.320617 0.289643 0.116206
N1    N     N_R   0.209728 0.507145 0.199688 -0.425007
N2    N     N_R   0.547720 0.492129 0.795102 -0.423349
N3    N     N_2   0.882600 0.468944 0.761769 -0.414967
N4    N     N_2   0.536151 0.315901 0.026503 -0.442362
O1    O     O_2   0.106080 0.324280 0.466820 -0.468938
O2    O     O_2   0.658648 0.565534 0.331985 -0.495827
O3    O     O_3   0.863401 0.669666 0.334465 -0.595431
O4    O     O_3   0.859130 0.413620 0.470620 -0.482391
O5    O     O_3   0.459240 0.537930 0.559910 -0.491102
O6    O     O_2   0.583120 0.462390 0.379940 -0.465673
O7    O     O_3   0.400266 0.346438 0.358513 -0.632640
O8    O     O_2   0.565262 0.757089 0.476328 -0.497466
O9    O     O_3   0.437152 0.741537 0.384942 -0.610140
O10   O     O_2   0.338388 0.398980 0.197164 -0.601569
O11   O     O_2   0.654398 0.380812 0.799650 -0.629278
O12   O     O_3   0.397444 0.652749 0.632235 -0.622685
O13   O     O_2   0.076357 0.612901 0.195273 -0.599445
O14   O     O_2   0.419671 0.600607 0.796915 -0.597712
O15   O     O_3   0.376230 0.370290 0.556910 -0.482391
O16   O     O_2   0.251277 0.243127 0.519066 -0.489502
O17   O     O_3   0.918016 0.312317 0.387413 -0.645053
O18   O     O_3   0.354036 0.255240 0.612243 -0.601782
O19   O     O_2   0.227190 0.537650 0.620070 -0.461509
O20   O     O_3   0.971110 0.406970 0.583250 -0.481115
O21   O     O_2   0.092579 0.463712 0.673713 -0.483651
O22   O     O_3   0.040088 0.325342 0.659397 -0.605282
O23   O     O_2   0.704230 0.675760 0.533200 -0.469412
O24   O     O_3   0.951180 0.586390 0.529420 -0.488951
O25   O     O_3   0.434080 0.629720 0.443130 -0.473957
O26   O     O_3   0.887312 0.682949 0.612882 -0.641281
O27   O     O_3   0.351080 0.462080 0.440130 -0.477239
O28   O     O_3   0.839200 0.593040 0.416790 -0.486514
P1    P     P_3+3 0.929380 0.335110 0.452880 0.976368
P2    P     P_3+3 0.398530 0.559060 0.613740 1.001326
P3    P     P_3+3 0.965305 0.409362 0.647792 0.952012
P4    P     P_3+3 0.880940 0.664900 0.547160 0.976026
P5    P     P_3+3 0.835138 0.584770 0.351286 0.974408
P6    P     P_3+3 0.393458 0.277016 0.553586 0.938998
P7    P     P_3+3 0.399574 0.440157 0.376967 0.959926
P8    P     P_3+3 0.415295 0.722821 0.445595 0.925911

loop_
_geom_bond_atom_site_label_1
_geom_bond_atom_site_label_2
_ccdc_geom_bond_type
C76   H5    S    
C70   N4    S    
C53   C54   A    
Ba1   O20   S    
C23   H11   S    
C47   C61   S    
C47   H55   S    
C25   C27   A    
C28   O26   S    
O3    P5    S    
C16   H50   S    
C17   C18   A    
C1    H16   S    
C49   C72   A    
C59   N2    Am   
Ba2   O6    S    
Ba1   O27   S    
C77   H63   S    
C45   O3    S    
C75   C76   S    
C54   C55   A    
C75   O12   S    
C5    C9    A    
C29   P6    S    
O17   P1    S    
C24   C25   A    
C35   C36   S    
C79   N4    S    
C49   C69   A    
C60   C65   D    
C3    H37   S    
C65   N2    S    
C45   H19   S    
C15   C24   A    
C12   H1    S    
C52   O17   S    
C26   C27   A    
O1    P1    D    
Ba1   Ba2   S    
C11   H30   S    
C69   C74   A    
C22   C24   A    
O25   P8    S    
C55   C57   A    
C45   C56   S    
C79   H68   S    
C9    C22   A    
O9    P8    S    
C60   N3    S    
C1    H9    S    
C15   C80   A    
C12   H8    S    
O24   P4    S    
C15   C17   A    
C32   O10   D    
C77   H61   S    
C29   C30   A    
C43   H43   S    
C6    C7    A    
C79   H65   S    
C78   H27   S    
C48   C50   A    
C21   C22   A    
C68   C69   A    
C56   H20   S    
H60   N3    S    
C7    C8    A    
C36   C46   S    
C63   H52   S    
C79   H66   S    
Ba1   O5    S    
C57   C58   A    
C47   C62   D    
C72   H49   S    
C4    O22   S    
C1    H4    S    
C4    H28   S    
Ba2   O24   S    
O4    P1    S    
C39   N1    S    
C10   P8    S    
Ba2   O5    S    
O6    P7    D    
C7    C10   A    
C74   H53   S    
C67   O9    S    
C51   C53   A    
C76   H7    S    
C67   H25   S    
C4    C16   S    
C48   C51   A    
C28   H58   S    
C72   C73   A    
C49   C50   A    
C32   C42   A    
C64   H67   S    
C21   H39   S    
C50   C55   A    
O2    P5    D    
C37   C38   D    
C3    C5    A    
C25   H41   S    
O26   P4    S    
O23   P4    D    
C75   H2    S    
C63   C65   S    
Ba1   P2    S    
C27   H35   S    
Ba1   O15   S    
C45   H18   S    
O15   P6    S    
C59   O11   D    
Ba2   O25   S    
C41   C42   A    
C26   C29   A    
C64   H70   S    
O5    P2    S    
C51   H46   S    
C37   P7    S    
C34   H14   S    
C77   H62   S    
C53   H44   S    
C66   C70   A    
C36   P5    S    
C60   C61   S    
H64   N4    S    
C54   C59   A    
Ba2   O28   S    
C10   C11   A    
C38   H42   S    
C17   C26   A    
C28   H59   S    
C34   H15   S    
C1    C12   S    
C6    H31   S    
O18   P6    S    
O22   P3    S    
C40   H34   S    
C38   C39   S    
Ba2   P4    S    
C41   C68   A    
C61   P3    S    
C11   C13   A    
C33   O13   D    
C71   C74   A    
C56   H22   S    
C16   H17   S    
C18   C31   A    
Ba2   O4    S    
C57   C73   A    
C42   C43   A    
O20   P3    S    
C52   H45   S    
C32   N1    Am   
C76   H6    S    
C71   H48   S    
Ba1   O19   S    
C23   H10   S    
C14   C20   A    
C40   H12   S    
C46   H54   S    
Ba1   O4    S    
C2    H38   S    
C33   N1    Am   
C30   H36   S    
C19   H32   S    
O27   P7    S    
C3    C6    A    
O7    P7    S    
C67   H24   S    
C73   H51   S    
C52   C64   S    
Ba1   P1    S    
C77   N3    S    
C13   P4    S    
C78   H26   S    
O21   P3    D    
O16   P6    D    
C62   C63   D    
O12   P2    S    
Ba1   O1    S    
C58   O14   D    
C64   H69   S    
C12   O18   S    
C8    C14   A    
C30   C31   A    
O19   P2    D    
C2    C19   A    
C34   H13   S    
C52   H56   S    
C20   H33   S    
C23   O7    S    
C78   H29   S    
Ba1   O24   S    
C35   H47   S    
Ba2   O27   S    
C35   C39   D    
C16   H57   S    
C41   C44   A    
C58   N2    Am   
C8    C9    A    
C23   C34   S    
C75   H3    S    
C5    C80   A    
C2    C80   A    
C18   C19   A    
C66   C68   A    
C40   H23   S    
Ba2   O23   S    
C4    H40   S    
C20   C21   A    
C28   C40   S    
C67   C78   S    
C31   P1    S    
C56   H21   S    
O8    P8    D    
C33   C44   A    
C48   C66   A    
O28   P5    S    
C44   C71   A    
C62   P2    S    
C13   C14   A    
C37   C46   D    
C43   C70   A    
