data_mof_unit_22348.cif
_audit_creation_date              2012-12-10T17:42:09-0500
_audit_creation_method            fapswitch 2.2
_symmetry_space_group_name_H-M    P1
_symmetry_Int_Tables_number       1
_space_group_crystal_system       triclinic
_cell_length_a                    15.006709
_cell_length_b                    13.973714
_cell_length_c                    10.846657
_cell_angle_alpha                 89.405151
_cell_angle_beta                  85.298843
_cell_angle_gamma                 89.081068
_cell_volume                      2266.50057232

loop_
_atom_site_label
_atom_site_type_symbol
_atom_type_description
_atom_site_fract_x
_atom_site_fract_y
_atom_site_fract_z
_atom_type_partial_charge
C1    C     C_R   0.329310 0.500682 0.501551 0.790660
C2    C     C_3   0.589413 0.452145 0.914627 -0.400053
C3    C     C_R   0.819748 0.533575 0.396894 -0.266160
C4    C     C_R   0.767224 0.498246 0.498555 -0.018690
C5    C     C_R   0.805852 0.463982 0.602852 -0.133973
C6    C     C_R   0.898538 0.468334 0.609980 0.028090
C7    C     C_R   0.952645 0.500625 0.504559 0.079200
C8    C     C_R   0.913084 0.532779 0.396487 0.040432
C9    C     C_R   0.938885 0.439486 0.718223 -0.040525
C10   C     C_R   0.031840 0.440435 0.718706 -0.219482
C11   C     C_R   0.086570 0.471396 0.614974 0.076278
C12   C     C_R   0.503213 0.500163 0.260055 0.783099
C13   C     C_R   0.046346 0.500688 0.506893 0.026172
C14   C     C_R   0.099884 0.530453 0.400877 0.109221
C15   C     C_R   0.060766 0.559556 0.294003 -0.215349
C16   C     C_R   0.968113 0.561978 0.290826 -0.138269
C17   C     C_R   0.180625 0.474958 0.617160 0.119724
C18   C     C_R   0.232485 0.502197 0.508228 -0.043970
C19   C     C_R   0.192374 0.530237 0.402204 -0.279272
C20   C     C_R   0.432490 0.795627 0.567181 0.285869
C21   C     C_R   0.427998 0.206339 0.557852 0.315904
C22   C     C_R   0.567629 0.794534 0.435634 0.085767
C23   C     C_R   0.570480 0.202985 0.443763 0.104050
C24   C     C_R   0.566467 0.896738 0.430896 -0.041647
C25   C     C_R   0.566466 0.101656 0.432401 -0.055715
C26   C     C_R   0.670821 0.499406 0.497771 0.842710
C27   C     C_R   0.498606 0.948476 0.498980 0.025424
C28   C     C_R   0.496329 0.051373 0.495254 0.027611
C29   C     C_R   0.435811 0.897964 0.576166 -0.022382
C30   C     C_R   0.424643 0.103145 0.555889 -0.039194
C31   C     C_R   0.632922 0.948905 0.360917 -0.124381
C32   C     C_R   0.633926 0.048601 0.363698 -0.151265
C33   C     C_R   0.356169 0.048221 0.621422 0.154946
C34   C     C_R   0.374969 0.953049 0.654234 0.156052
C35   C     C_R   0.499385 0.499995 0.739973 0.752143
C36   C     C_3   0.504682 0.604920 0.070960 -0.384308
C37   C     C_3   0.415203 0.459426 0.085383 -0.390773
C38   C     C_3   0.499543 0.606993 0.929209 -0.187169
C39   C     C_3   0.417885 0.448204 0.943481 -0.171778
C40   C     C_3   0.589055 0.440727 0.058334 -0.145804
C41   C     C_3   0.504814 0.499896 0.121761 -0.033935
C42   C     C_3   0.502117 0.500933 0.878080 -0.029913
Cu1   Cu    Cu3+1 0.499990 0.597420 0.500010 0.979078
Cu2   Cu    Cu3+1 0.499990 0.402580 0.500010 1.003075
H1    H     H_    0.562924 0.644411 0.098860 0.258949
H2    H     H_    0.396925 0.392425 0.136348 0.237543
H3    H     H_    0.060718 0.418024 0.802709 0.198438
H4    H     H_    0.233833 0.551559 0.320060 0.135353
H5    H     H_    0.102659 0.581553 0.212634 0.150978
H6    H     H_    0.685938 0.913380 0.304256 0.168018
H7    H     H_    0.688099 0.083573 0.309918 0.177099
H8    H     H_    0.445894 0.645645 0.114064 0.172814
H9    H     H_    0.359206 0.509338 0.115947 0.143500
H10   H     H_    0.432953 0.637902 0.910557 0.108689
H11   H     H_    0.357579 0.485586 0.912732 0.102364
H12   H     H_    0.647566 0.493455 0.876159 0.239933
H13   H     H_    0.600873 0.383155 0.865629 0.222439
H14   H     H_    0.787020 0.560653 0.318177 0.173484
H15   H     H_    0.762217 0.435099 0.677954 0.164773
N1    N     N_R   0.499930 0.743810 0.499950 -0.222668
N2    N     N_R   0.499930 0.256190 0.499950 -0.216303
O1    O     O_R   0.370250 0.582280 0.500040 -0.599152
O2    O     O_R   0.370250 0.417720 0.500040 -0.588192
O3    O     O_R   0.499970 0.582270 0.317700 -0.563900
O4    O     O_R   0.499970 0.417730 0.317700 -0.542227
O5    O     O_R   0.629730 0.582260 0.499980 -0.553092
O6    O     O_R   0.629730 0.417740 0.499980 -0.565966
O7    O     O_R   0.500000 0.582270 0.682320 -0.578816
O8    O     O_R   0.500000 0.417730 0.682320 -0.571726
C43   C     C_3   0.224334 0.454060 0.735837 -0.879375
H16   H     H_    0.297017 0.466849 0.727253 0.199207
H17   H     H_    0.195247 0.501974 0.810166 0.241397
H18   H     H_    0.213639 0.378330 0.764315 0.260643
C44   C     C_2   0.931954 0.593469 0.173823 0.875262
O9    O     O_2   0.940333 0.541214 0.084043 -0.526400
O10   O     O_R   0.892010 0.683693 0.162574 -0.685377
H19   H     H_    0.898589 0.725056 0.237246 0.287500
C45   C     C_3   0.346441 0.747225 0.612225 -0.745905
H20   H     H_    0.359193 0.686234 0.674797 0.240479
H21   H     H_    0.295003 0.792428 0.661317 0.197385
H22   H     H_    0.310965 0.728753 0.530395 0.238858
C46   C     C_3   0.359079 0.257872 0.642083 -0.696705
H23   H     H_    0.381295 0.325917 0.673489 0.266767
H24   H     H_    0.296522 0.270369 0.596363 0.214627
H25   H     H_    0.346419 0.217741 0.729616 0.211072
C47   C     C_2   0.647148 0.745109 0.378011 0.890342
O11   O     O_2   0.643259 0.699167 0.283626 -0.579516
O12   O     O_R   0.728497 0.756364 0.429856 -0.759612
H26   H     H_    0.780140 0.724253 0.380204 0.327659
C48   C     C_2   0.659850 0.243946 0.421126 0.881379
O13   O     O_2   0.707801 0.248204 0.506810 -0.574964
O14   O     O_R   0.693879 0.265893 0.301190 -0.732526
H27   H     H_    0.759789 0.281568 0.297377 0.358525
C49   C     C_3   0.258750 0.078997 0.637679 -0.843680
H28   H     H_    0.215181 0.016302 0.628526 0.240298
H29   H     H_    0.241187 0.109335 0.730754 0.241079
H30   H     H_    0.241680 0.129040 0.563001 0.238007
C50   C     C_3   0.345728 0.922413 0.785493 -0.817199
H31   H     H_    0.364951 0.977815 0.850677 0.248887
H32   H     H_    0.272034 0.914576 0.798095 0.228127
H33   H     H_    0.379299 0.854710 0.811857 0.249857
C51   C     C_2   0.567856 0.677786 0.871443 0.943276
O15   O     O_2   0.557808 0.762779 0.895656 -0.588478
O16   O     O_R   0.640749 0.648336 0.791414 -0.729500
H34   H     H_    0.679461 0.703571 0.759689 0.360067
C52   C     C_2   0.406077 0.342896 0.916912 0.851759
O17   O     O_2   0.467590 0.292671 0.872307 -0.576866
O18   O     O_R   0.323514 0.301814 0.953075 -0.770983
H35   H     H_    0.324087 0.229811 0.942653 0.330496
C53   C     C_2   0.677362 0.479796 0.098189 0.863131
O19   O     O_2   0.700040 0.561553 0.071338 -0.513262
O20   O     O_R   0.735931 0.420334 0.158226 -0.742330
H36   H     H_    0.796616 0.449402 0.164295 0.347433
C54   C     C_2   0.588378 0.331873 0.084956 0.981313
O21   O     O_2   0.650507 0.282050 0.040165 -0.527773
O22   O     O_R   0.518243 0.287070 0.154508 -0.750124
H37   H     H_    0.527598 0.215296 0.162195 0.341054
C55   C     C_2   0.887158 0.411460 0.835119 0.912018
O23   O     O_2   0.821770 0.458624 0.873905 -0.563710
O24   O     O_R   0.916438 0.333952 0.904534 -0.735113
H38   H     H_    0.876752 0.322879 0.983465 0.367661

loop_
_geom_bond_atom_site_label_1
_geom_bond_atom_site_label_2
_ccdc_geom_bond_type
C39   C52   S    
C22   C47   S    
C27   C29   A    
C11   C13   A    
C24   C27   A    
C33   C49   S    
C6    C9    A    
C54   O21   D    
Cu2   O4    S    
C2    H13   S    
C7    C8    A    
O18   H35   S    
C25   C28   A    
C1    C18   S    
C44   O10   S    
C16   C44   S    
C26   O6    A    
C38   C42   S    
C22   N1    A    
C5    C6    A    
C12   O3    A    
C47   O12   S    
C52   O17   D    
C15   C16   A    
O22   H37   S    
C18   C19   A    
C35   C42   S    
C55   O23   D    
O16   H34   S    
C53   O19   D    
C40   C54   S    
Cu1   O7    S    
C43   H16   S    
C20   N1    A    
C9    C10   A    
C21   N2    A    
C36   H8    S    
C37   H9    S    
C25   C32   A    
C23   C25   A    
C17   C43   S    
C8    C16   A    
C13   C14   A    
C1    O1    A    
C9    C55   S    
C36   C41   S    
C51   O15   D    
C1    O2    A    
O20   H36   S    
Cu1   O3    S    
C17   C18   A    
C39   C42   S    
C53   O20   S    
C20   C29   A    
Cu2   O2    S    
C39   H11   S    
C4    C26   S    
C44   O9    D    
C5    H15   S    
C26   O5    A    
Cu2   O8    S    
O10   H19   S    
C3    C8    A    
C47   O11   D    
C40   C53   S    
C49   H30   S    
C29   C34   A    
C49   H29   S    
Cu1   Cu2   S    
C32   H7    S    
C12   C41   S    
C48   O14   S    
C31   C32   A    
C38   H10   S    
C7    C13   A    
C43   H18   S    
C33   C34   A    
C23   C48   S    
C36   H1    S    
O12   H26   S    
C51   O16   S    
Cu1   N1    S    
C40   C41   S    
C46   H23   S    
C46   H24   S    
C22   C24   A    
C31   H6    S    
C3    C4    A    
C50   H33   S    
C10   H3    S    
O24   H38   S    
C12   O4    A    
C11   C17   A    
C30   C33   A    
C19   H4    S    
C14   C19   A    
C4    C5    A    
C54   O22   S    
C6    C7    A    
Cu2   N2    S    
C46   H25   S    
C21   C30   A    
C50   H32   S    
C20   C45   S    
C36   C38   S    
C24   C31   A    
C37   C39   S    
C2    H12   S    
C45   H20   S    
C45   H22   S    
C48   O13   D    
C52   O18   S    
C35   O7    A    
C2    C42   S    
Cu1   O5    S    
C28   C30   A    
O14   H27   S    
C34   C50   S    
C45   H21   S    
C15   H5    S    
C37   C41   S    
C49   H28   S    
C55   O24   S    
C10   C11   A    
C3    H14   S    
C2    C40   S    
C23   N2    A    
C21   C46   S    
C35   O8    A    
C38   C51   S    
C50   H31   S    
C27   C28   A    
C14   C15   A    
Cu2   O6    S    
C43   H17   S    
C37   H2    S    
Cu1   O1    S    
