data_mof_unit_61194.cif
_audit_creation_date              2012-12-10T16:50:59-0500
_audit_creation_method            fapswitch 2.2
_symmetry_space_group_name_H-M    P1
_symmetry_Int_Tables_number       1
_space_group_crystal_system       monoclinic
_cell_length_a                    31.157876
_cell_length_b                    30.83114
_cell_length_c                    24.924113
_cell_angle_alpha                 90.0
_cell_angle_beta                  128.749055
_cell_angle_gamma                 90.0
_cell_volume                      18672.9600402

loop_
_atom_site_label
_atom_site_type_symbol
_atom_type_description
_atom_site_fract_x
_atom_site_fract_y
_atom_site_fract_z
_atom_type_partial_charge
C1    C     C_R   0.806710 0.808847 0.496176 0.861604
C2    C     C_R   0.193290 0.808847 0.503824 0.861603
C3    C     C_R   0.306710 0.308847 0.496176 0.861603
C4    C     C_R   0.693290 0.308847 0.503824 0.861606
C5    C     C_R   0.646478 0.750415 0.291246 -0.060450
C6    C     C_R   0.353522 0.750415 0.708754 -0.060450
C7    C     C_R   0.146478 0.250415 0.291246 -0.060448
C8    C     C_R   0.853522 0.250415 0.708754 -0.060452
C9    C     C_R   0.463559 0.750915 0.930162 0.404562
C10   C     C_R   0.536441 0.750915 0.069838 0.404561
C11   C     C_R   0.963559 0.250915 0.930162 0.404562
C12   C     C_R   0.036441 0.250915 0.069838 0.404561
C13   C     C_2   0.847605 0.910113 0.448294 0.157022
C14   C     C_2   0.152395 0.910113 0.551706 0.157023
C15   C     C_2   0.347604 0.410113 0.448294 0.157023
C16   C     C_2   0.652395 0.410114 0.551705 0.157023
C17   C     C_2   0.902328 0.914113 0.500675 -0.383904
C18   C     C_2   0.097672 0.914113 0.499325 -0.383905
C19   C     C_2   0.402328 0.414113 0.500675 -0.383904
C20   C     C_2   0.597672 0.414113 0.499325 -0.383903
C21   C     C_2   0.814339 0.880249 0.455978 0.282871
C22   C     C_2   0.185661 0.880249 0.544023 0.282871
C23   C     C_2   0.314339 0.380249 0.455978 0.282872
C24   C     C_2   0.685661 0.380250 0.544021 0.282869
C25   C     C_2   0.835822 0.841508 0.487331 -0.426067
C26   C     C_2   0.164178 0.841508 0.512669 -0.426067
C27   C     C_2   0.335822 0.341508 0.487331 -0.426068
C28   C     C_2   0.664178 0.341508 0.512670 -0.426070
C29   C     C_R   0.836261 0.763560 0.744550 -0.243686
C30   C     C_R   0.163739 0.763560 0.255450 -0.243686
C31   C     C_R   0.336261 0.263560 0.744550 -0.243686
C32   C     C_R   0.663739 0.263560 0.255450 -0.243687
C33   C     C_R   0.871770 0.765114 0.816301 -0.157723
C34   C     C_R   0.128230 0.765114 0.183699 -0.157723
C35   C     C_R   0.371770 0.265114 0.816301 -0.157723
C36   C     C_R   0.628230 0.265114 0.183699 -0.157723
C37   C     C_R   0.927744 0.755063 0.854058 0.021875
C38   C     C_R   0.072256 0.755064 0.145942 0.021875
C39   C     C_R   0.427744 0.255064 0.854058 0.021875
C40   C     C_R   0.572256 0.255064 0.145942 0.021875
C41   C     C_R   0.947466 0.743214 0.818648 -0.220937
C42   C     C_R   0.052534 0.743214 0.181352 -0.220937
C43   C     C_R   0.447466 0.243214 0.818648 -0.220937
C44   C     C_R   0.552534 0.243214 0.181352 -0.220936
C45   C     C_R   0.683798 0.750133 0.367295 0.793306
C46   C     C_R   0.316201 0.750133 0.632705 0.793305
C47   C     C_R   0.183798 0.250133 0.367295 0.793305
C48   C     C_R   0.816201 0.250133 0.632705 0.793307
C49   C     C_R   0.911853 0.740430 0.746609 0.246453
C50   C     C_R   0.088146 0.740430 0.253391 0.246453
C51   C     C_R   0.411853 0.240430 0.746609 0.246454
C52   C     C_R   0.588147 0.240430 0.253391 0.246453
C53   C     C_R   0.855550 0.751052 0.708814 -0.062848
C54   C     C_R   0.144450 0.751052 0.291186 -0.062848
C55   C     C_R   0.355550 0.251052 0.708814 -0.062848
C56   C     C_R   0.644450 0.251052 0.291186 -0.062848
C57   C     C_R   0.034622 0.756272 0.069903 0.423718
C58   C     C_R   0.965378 0.756272 0.930097 0.423718
C59   C     C_R   0.534622 0.256272 0.069903 0.423718
C60   C     C_R   0.465378 0.256272 0.930097 0.423718
C61   C     C_2   0.614964 0.625200 0.546173 -0.155204
C62   C     C_2   0.385036 0.625200 0.453826 -0.155205
C63   C     C_2   0.114964 0.125200 0.546173 -0.155204
C64   C     C_2   0.885036 0.125200 0.453826 -0.155205
C65   C     C_2   0.587582 0.594835 0.497089 -0.316043
C66   C     C_2   0.412418 0.594835 0.502911 -0.316043
C67   C     C_2   0.087582 0.094835 0.497089 -0.316044
C68   C     C_2   0.912418 0.094835 0.502911 -0.316043
C69   C     C_2   0.641939 0.661639 0.539423 -0.155013
C70   C     C_2   0.358061 0.661639 0.460577 -0.155014
C71   C     C_2   0.141939 0.161639 0.539423 -0.155013
C72   C     C_2   0.858061 0.161639 0.460577 -0.155014
C73   C     C_2   0.663625 0.656409 0.507390 -0.315719
C74   C     C_2   0.336375 0.656409 0.492610 -0.315719
C75   C     C_2   0.163625 0.156409 0.507390 -0.315719
C76   C     C_2   0.836375 0.156409 0.492610 -0.315719
C77   C     C_R   0.442192 0.559727 0.500253 0.843398
C78   C     C_R   0.557808 0.559727 0.499746 0.843397
C79   C     C_R   0.942192 0.059727 0.500253 0.843397
C80   C     C_R   0.057808 0.059727 0.499746 0.843398
C81   C     C_R   0.939363 0.942927 0.499887 0.877292
C82   C     C_R   0.060637 0.942927 0.500113 0.877292
C83   C     C_R   0.439362 0.442927 0.499887 0.877292
C84   C     C_R   0.560637 0.442927 0.500113 0.877293
C85   C     C_R   0.692653 0.690983 0.502303 0.849840
C86   C     C_R   0.307347 0.690983 0.497697 0.849841
C87   C     C_R   0.192653 0.190983 0.502303 0.849839
C88   C     C_R   0.807347 0.190983 0.497697 0.849841
C89   C     C_R   0.816750 0.750310 0.632687 0.810836
C90   C     C_R   0.183250 0.750310 0.367313 0.810837
C91   C     C_R   0.316749 0.250310 0.632687 0.810836
C92   C     C_R   0.683250 0.250310 0.367313 0.810837
C93   C     C_R   0.607268 0.783394 0.254099 -0.189891
C94   C     C_R   0.392731 0.783395 0.745901 -0.189890
C95   C     C_R   0.107272 0.283397 0.254099 -0.189890
C96   C     C_R   0.892735 0.283392 0.745901 -0.189889
C97   C     C_R   0.572542 0.783693 0.182283 -0.214088
C98   C     C_R   0.427457 0.783693 0.817716 -0.214087
C99   C     C_R   0.072546 0.283695 0.182284 -0.214088
C100  C     C_R   0.927462 0.283691 0.817717 -0.214089
C101  C     C_R   0.575847 0.750840 0.145936 0.032341
C102  C     C_R   0.424153 0.750840 0.854064 0.032341
C103  C     C_R   0.075846 0.250839 0.145936 0.032342
C104  C     C_R   0.924153 0.250840 0.854064 0.032341
C105  C     C_R   0.615905 0.717840 0.183083 0.274466
C106  C     C_R   0.384095 0.717839 0.816917 0.274466
C107  C     C_R   0.115901 0.217837 0.183083 0.274466
C108  C     C_R   0.884090 0.217843 0.816917 0.274466
C109  C     C_R   0.650489 0.717835 0.255222 -0.249145
C110  C     C_R   0.349511 0.717835 0.744778 -0.249145
C111  C     C_R   0.150485 0.217833 0.255222 -0.249145
C112  C     C_R   0.849507 0.217838 0.744778 -0.249145
Cu1   Cu    Cu3+1 0.780510 0.719480 0.499990 0.952154
Cu2   Cu    Cu3+1 0.219490 0.719480 0.500010 0.952153
Cu3   Cu    Cu3+1 0.280510 0.219480 0.499990 0.952154
Cu4   Cu    Cu3+1 0.719490 0.219480 0.500010 0.952153
Cu5   Cu    Cu3+1 0.719470 0.780500 0.500010 0.937268
Cu6   Cu    Cu3+1 0.280530 0.780500 0.499990 0.937268
Cu7   Cu    Cu3+1 0.219470 0.280500 0.500010 0.937268
Cu8   Cu    Cu3+1 0.780530 0.280500 0.499990 0.937267
Cu9   Cu    Cu3+1 0.465770 0.499990 0.431560 0.944232
Cu10  Cu    Cu3+1 0.534230 0.499990 0.568440 0.944232
Cu11  Cu    Cu3+1 0.965770 0.999990 0.431560 0.944232
Cu12  Cu    Cu3+1 0.034230 0.999990 0.568440 0.944232
H1    H     H_    0.603488 0.809095 0.280529 0.158623
H2    H     H_    0.396511 0.809096 0.719470 0.158622
H3    H     H_    0.103495 0.309099 0.280530 0.158621
H4    H     H_    0.896519 0.309091 0.719471 0.158625
H5    H     H_    0.855398 0.774559 0.842173 0.158293
H6    H     H_    0.144602 0.774558 0.157826 0.158293
H7    H     H_    0.355398 0.274559 0.842173 0.158293
H8    H     H_    0.644602 0.274558 0.157826 0.158293
H9    H     H_    0.990529 0.735274 0.846837 0.154376
H10   H     H_    0.009471 0.735275 0.153163 0.154376
H11   H     H_    0.490529 0.235274 0.846837 0.154376
H12   H     H_    0.509471 0.235275 0.153163 0.154375
H13   H     H_    0.614973 0.624783 0.589761 0.163804
H14   H     H_    0.385026 0.624782 0.410239 0.163805
H15   H     H_    0.114973 0.124783 0.589761 0.163804
H16   H     H_    0.885026 0.124783 0.410239 0.163805
H17   H     H_    0.582403 0.597893 0.449912 0.155179
H18   H     H_    0.417597 0.597893 0.550088 0.155179
H19   H     H_    0.082403 0.097893 0.449912 0.155179
H20   H     H_    0.917597 0.097893 0.550088 0.155179
H21   H     H_    0.646448 0.692263 0.564055 0.161144
H22   H     H_    0.353552 0.692263 0.435945 0.161144
H23   H     H_    0.146448 0.192263 0.564055 0.161144
H24   H     H_    0.853552 0.192263 0.435945 0.161144
H25   H     H_    0.664583 0.624558 0.489525 0.152362
H26   H     H_    0.335417 0.624558 0.510475 0.152362
H27   H     H_    0.164583 0.124558 0.489525 0.152362
H28   H     H_    0.835417 0.124558 0.510475 0.152363
H29   H     H_    0.542233 0.809293 0.155000 0.162369
H30   H     H_    0.457766 0.809294 0.845000 0.162368
H31   H     H_    0.042240 0.309298 0.155000 0.162368
H32   H     H_    0.957774 0.309289 0.845000 0.162369
H33   H     H_    0.680908 0.692353 0.283079 0.152935
H34   H     H_    0.319093 0.692353 0.716921 0.152934
H35   H     H_    0.180901 0.192349 0.283079 0.152933
H36   H     H_    0.819085 0.192358 0.716921 0.152936
H37   H     H_    0.920426 0.897460 0.548974 0.132788
H38   H     H_    0.079575 0.897461 0.451026 0.132788
H39   H     H_    0.420425 0.397460 0.548974 0.132788
H40   H     H_    0.579574 0.397459 0.451026 0.132788
H41   H     H_    0.876002 0.831961 0.503696 0.137007
H42   H     H_    0.123997 0.831961 0.496302 0.137007
H43   H     H_    0.376002 0.331961 0.503696 0.137007
H44   H     H_    0.623999 0.331960 0.496306 0.137008
H45   H     H_    0.793338 0.771750 0.716896 0.161504
H46   H     H_    0.206662 0.771750 0.283104 0.161504
H47   H     H_    0.293339 0.271750 0.716896 0.161504
H48   H     H_    0.706662 0.271750 0.283104 0.161504
N1    N     N_R   0.517829 0.713063 0.034209 -0.190045
N2    N     N_R   0.482173 0.713063 0.965790 -0.190046
N3    N     N_R   0.017822 0.213063 0.034210 -0.190046
N4    N     N_R   0.982167 0.213064 0.965791 -0.190045
N5    N     N_R   0.482230 0.788825 0.965738 -0.249378
N6    N     N_R   0.517768 0.788825 0.034262 -0.249379
N7    N     N_R   0.982236 0.288825 0.965738 -0.249379
N8    N     N_R   0.017774 0.288825 0.034262 -0.249378
N9    N     N_R   0.020792 0.756332 0.966312 -0.243372
N10   N     N_R   0.979208 0.756332 0.033688 -0.243372
N11   N     N_R   0.520792 0.256332 0.966312 -0.243372
N12   N     N_R   0.479208 0.256332 0.033688 -0.243372
N13   N     N_R   0.054721 0.756448 0.034803 -0.242469
N14   N     N_R   0.945279 0.756449 0.965197 -0.242469
N15   N     N_R   0.554721 0.256448 0.034803 -0.242469
N16   N     N_R   0.445279 0.256449 0.965197 -0.242469
O1    O     O_R   0.820270 0.768740 0.499980 -0.577352
O2    O     O_R   0.179730 0.768740 0.500020 -0.577352
O3    O     O_R   0.320270 0.268740 0.499980 -0.577351
O4    O     O_R   0.679730 0.268740 0.500020 -0.577352
O5    O     O_R   0.484350 0.544510 0.557810 -0.589494
O6    O     O_R   0.515650 0.544510 0.442190 -0.589493
O7    O     O_R   0.984350 0.044510 0.557810 -0.589494
O8    O     O_R   0.015650 0.044510 0.442190 -0.589493
O9    O     O_R   0.926590 0.955480 0.442220 -0.579851
O10   O     O_R   0.073410 0.955480 0.557780 -0.579851
O11   O     O_R   0.426590 0.455480 0.442220 -0.579851
O12   O     O_R   0.573410 0.455480 0.557780 -0.579852
O13   O     O_R   0.984380 0.955470 0.557810 -0.587753
O14   O     O_R   0.015620 0.955470 0.442190 -0.587753
O15   O     O_R   0.484380 0.455470 0.557810 -0.587753
O16   O     O_R   0.515620 0.455470 0.442190 -0.587753
O17   O     O_R   0.768720 0.820270 0.499990 -0.580624
O18   O     O_R   0.231280 0.820270 0.500010 -0.580624
O19   O     O_R   0.268720 0.320270 0.499990 -0.580624
O20   O     O_R   0.731280 0.320270 0.500010 -0.580625
O21   O     O_R   0.725840 0.724230 0.400130 -0.589948
O22   O     O_R   0.274160 0.724230 0.599870 -0.589949
O23   O     O_R   0.225840 0.224230 0.400130 -0.589947
O24   O     O_R   0.774160 0.224230 0.599870 -0.589950
O25   O     O_R   0.674290 0.775760 0.400150 -0.594404
O26   O     O_R   0.325710 0.775760 0.599850 -0.594403
O27   O     O_R   0.174290 0.275760 0.400150 -0.594403
O28   O     O_R   0.825710 0.275760 0.599850 -0.594404
O29   O     O_R   0.731260 0.679710 0.500010 -0.590324
O30   O     O_R   0.268740 0.679710 0.499990 -0.590324
O31   O     O_R   0.231260 0.179710 0.500010 -0.590324
O32   O     O_R   0.768740 0.179710 0.499990 -0.590323
O33   O     O_R   0.679710 0.731240 0.500020 -0.578368
O34   O     O_R   0.320290 0.731240 0.499980 -0.578368
O35   O     O_R   0.179710 0.231240 0.500020 -0.578368
O36   O     O_R   0.820290 0.231240 0.499980 -0.578368
O37   O     O_R   0.825690 0.724220 0.599850 -0.554260
O38   O     O_R   0.174310 0.724220 0.400150 -0.554260
O39   O     O_R   0.325690 0.224220 0.599850 -0.554260
O40   O     O_R   0.674310 0.224220 0.400150 -0.554260
O41   O     O_R   0.774140 0.775750 0.599870 -0.596048
O42   O     O_R   0.225860 0.775750 0.400130 -0.596048
O43   O     O_R   0.274140 0.275750 0.599870 -0.596048
O44   O     O_R   0.725860 0.275750 0.400130 -0.596048
O45   O     O_R   0.426560 0.544510 0.442220 -0.585558
O46   O     O_R   0.573440 0.544510 0.557780 -0.585558
O47   O     O_R   0.926560 0.044510 0.442220 -0.585558
O48   O     O_R   0.073440 0.044510 0.557780 -0.585558
N17   N     N_2   0.933504 0.728484 0.712660 -0.419954
H49   H     H_    0.968955 0.745146 0.730703 0.244066
C113  C     C_3   0.940182 0.682200 0.710860 -0.645352
H50   H     H_    0.972150 0.669595 0.763708 0.209026
H51   H     H_    0.953180 0.675367 0.679170 0.220951
H52   H     H_    0.900716 0.665059 0.687574 0.242441
N18   N     N_2   0.066495 0.728485 0.287340 -0.419953
H53   H     H_    0.031044 0.745147 0.269297 0.244065
C114  C     C_3   0.059817 0.682200 0.289140 -0.645353
H54   H     H_    0.027850 0.669596 0.236292 0.209027
H55   H     H_    0.046819 0.675367 0.320830 0.220951
H56   H     H_    0.099284 0.665060 0.312426 0.242441
N19   N     N_2   0.433505 0.228484 0.712660 -0.419954
H57   H     H_    0.468956 0.245146 0.730703 0.244065
C115  C     C_3   0.440182 0.182200 0.710860 -0.645352
H58   H     H_    0.472150 0.169595 0.763708 0.209026
H59   H     H_    0.453181 0.175367 0.679170 0.220951
H60   H     H_    0.400716 0.165059 0.687574 0.242441
N20   N     N_2   0.566495 0.228485 0.287340 -0.419953
H61   H     H_    0.531044 0.245147 0.269297 0.244065
C116  C     C_3   0.559817 0.182200 0.289140 -0.645351
H62   H     H_    0.527850 0.169595 0.236292 0.209026
H63   H     H_    0.546819 0.175367 0.320830 0.220950
H64   H     H_    0.599284 0.165059 0.312426 0.242441
N21   N     N_2   0.622373 0.684919 0.148585 -0.418470
H65   H     H_    0.636193 0.655737 0.174544 0.248651
C117  C     C_3   0.653441 0.698385 0.126262 -0.661048
H66   H     H_    0.696450 0.706329 0.171509 0.215200
H67   H     H_    0.634175 0.727155 0.092042 0.237513
H68   H     H_    0.654193 0.671642 0.097025 0.231317
N22   N     N_2   0.377628 0.684918 0.851415 -0.418470
H69   H     H_    0.363808 0.655737 0.825456 0.248650
C118  C     C_3   0.346561 0.698384 0.873739 -0.661048
H70   H     H_    0.303552 0.706327 0.828492 0.215200
H71   H     H_    0.365826 0.727154 0.907959 0.237513
H72   H     H_    0.345809 0.671641 0.902976 0.231317
N23   N     N_2   0.122365 0.184913 0.148585 -0.418471
H73   H     H_    0.136182 0.155731 0.174544 0.248651
C119  C     C_3   0.153433 0.198374 0.126261 -0.661048
H74   H     H_    0.196443 0.206316 0.171507 0.215200
H75   H     H_    0.134170 0.227144 0.092039 0.237514
H76   H     H_    0.154183 0.171629 0.097024 0.231316
N24   N     N_2   0.877618 0.184925 0.851415 -0.418470
H77   H     H_    0.863795 0.155743 0.825456 0.248651
C120  C     C_3   0.846553 0.198397 0.873738 -0.661050
H78   H     H_    0.803545 0.206343 0.828491 0.215200
H79   H     H_    0.865822 0.227166 0.907959 0.237514
H80   H     H_    0.845797 0.171656 0.902975 0.231317
C121  C     C_3   0.818246 0.936254 0.382558 -0.754544
H81   H     H_    0.773208 0.930395 0.347513 0.234063
H82   H     H_    0.824993 0.971467 0.394576 0.226016
H83   H     H_    0.833235 0.926755 0.353906 0.234389
C122  C     C_3   0.181753 0.936253 0.617443 -0.754543
H84   H     H_    0.226792 0.930393 0.652489 0.234063
H85   H     H_    0.175007 0.971466 0.605426 0.226016
H86   H     H_    0.166764 0.926754 0.646094 0.234389
C123  C     C_3   0.318246 0.436253 0.382558 -0.754544
H87   H     H_    0.273208 0.430394 0.347513 0.234063
H88   H     H_    0.324993 0.471467 0.394576 0.226015
H89   H     H_    0.333235 0.426755 0.353906 0.234389
C124  C     C_3   0.681754 0.436255 0.617440 -0.754545
H90   H     H_    0.726793 0.430397 0.652484 0.234062
H91   H     H_    0.675006 0.471468 0.605420 0.226016
H92   H     H_    0.666766 0.426757 0.646093 0.234388
N25   N     N_2   0.758572 0.891688 0.423715 -0.422909
H93   H     H_    0.730257 0.866835 0.402830 0.263707
C125  C     C_3   0.751890 0.924251 0.459673 -0.648466
H94   H     H_    0.707707 0.932937 0.428747 0.215507
H95   H     H_    0.775269 0.954028 0.467407 0.230156
H96   H     H_    0.766583 0.911596 0.510374 0.234088
N26   N     N_2   0.241428 0.891687 0.576287 -0.422910
H97   H     H_    0.269743 0.866833 0.597171 0.263706
C126  C     C_3   0.248112 0.924251 0.540332 -0.648463
H98   H     H_    0.233418 0.911597 0.489630 0.234087
H99   H     H_    0.224734 0.954029 0.532599 0.230155
H100  H     H_    0.292295 0.932936 0.571259 0.215507
N27   N     N_2   0.258572 0.391688 0.423714 -0.422909
H101  H     H_    0.230257 0.366835 0.402830 0.263707
C127  C     C_3   0.251890 0.424251 0.459672 -0.648469
H102  H     H_    0.207707 0.432936 0.428747 0.215507
H103  H     H_    0.275267 0.454029 0.467404 0.230157
H104  H     H_    0.266585 0.411598 0.510374 0.234088
N28   N     N_2   0.741427 0.391690 0.576281 -0.422909
H105  H     H_    0.769743 0.366837 0.597167 0.263709
C128  C     C_3   0.748105 0.424252 0.540318 -0.648461
H106  H     H_    0.733409 0.411596 0.489616 0.234087
H107  H     H_    0.724728 0.454029 0.532585 0.230154
H108  H     H_    0.792288 0.432937 0.571240 0.215507

loop_
_geom_bond_atom_site_label_1
_geom_bond_atom_site_label_2
_ccdc_geom_bond_type
C99   C103  A    
N20   C116  S    
Cu2   O2    S    
C58   N14   A    
C69   H21   S    
C67   H19   S    
C125  H95   S    
N25   H93   S    
C120  H80   S    
C106  N22   S    
Cu4   O40   S    
C37   C41   A    
Cu6   O18   S    
C82   O10   A    
C95   C99   A    
C92   O44   A    
C29   C33   A    
C100  C104  A    
C62   C70   S    
C23   N27   S    
C77   O5    A    
Cu9   O11   S    
C48   O24   A    
C6    C94   A    
C70   C74   D    
C45   O25   A    
C57   N13   A    
Cu7   O43   S    
C73   H25   S    
C84   O16   A    
C32   H48   S    
C60   N16   A    
C114  H54   S    
C41   C49   A    
C4    O20   A    
C80   O8    A    
N19   C115  S    
Cu8   O20   S    
C117  H66   S    
C49   N17   S    
C82   O14   A    
C30   C34   A    
C46   O22   A    
C87   O35   A    
Cu10  O15   S    
Cu3   O39   S    
C38   C57   S    
Cu1   O37   S    
C125  H94   S    
C16   C20   D    
Cu7   O35   S    
C13   C21   S    
C2    C26   S    
Cu5   O25   S    
C13   C121  S    
Cu10  O46   S    
C63   C71   S    
C118  H71   S    
C53   C89   S    
Cu11  O8    S    
C11   N7    A    
Cu9   O6    S    
C9    N5    A    
C64   H16   S    
C117  H67   S    
C66   C77   S    
C112  H36   S    
C63   H15   S    
C90   O38   A    
C2    O2    A    
C123  H89   S    
Cu12  O13   S    
C42   H10   S    
C3    O19   A    
C121  H82   S    
C49   C53   A    
C39   C60   S    
C18   C82   S    
C51   C55   A    
N24   C120  S    
C107  N23   S    
C28   H44   S    
Cu12  O48   S    
C61   C65   D    
C128  H106  S    
C114  H56   S    
C91   O43   A    
C94   C98   A    
C103  C107  A    
C29   H45   S    
C71   H23   S    
N28   C128  S    
C47   O23   A    
Cu6   O34   S    
N22   C118  S    
C80   O48   A    
C109  H33   S    
Cu8   O44   S    
C41   H9    S    
Cu11  Cu12  S    
C30   C54   A    
N19   H57   S    
C5    C109  A    
C58   N9    A    
C64   C68   D    
C52   N20   S    
C54   C90   S    
C36   H8    S    
C78   O6    A    
N21   H65   S    
N27   C127  S    
C79   O7    A    
C116  H62   S    
C86   O30   A    
C75   H27   S    
C88   O36   A    
C59   N15   A    
C70   H22   S    
Cu4   O32   S    
C88   O32   A    
C44   C52   A    
C68   C79   S    
Cu8   O36   S    
N17   H49   S    
C124  H91   S    
Cu2   O30   S    
C19   C83   S    
C57   N10   A    
C126  H99   S    
C62   C66   D    
C119  H76   S    
C50   N18   S    
C115  H60   S    
C45   O21   A    
Cu4   Cu8   S    
C47   O27   A    
C123  H87   S    
C65   H17   S    
C78   O46   A    
C128  H108  S    
C122  H84   S    
C113  H51   S    
C19   H39   S    
C73   C85   S    
C17   H37   S    
C42   C50   A    
Cu1   Cu5   S    
C75   C87   S    
C12   N8    A    
Cu3   Cu7   S    
C20   C84   S    
C93   C97   A    
C21   C25   D    
C127  H104  S    
C107  C111  A    
Cu11  O9    S    
C24   C28   D    
N22   H69   S    
C32   C36   A    
C120  H79   S    
C13   C17   D    
C116  H64   S    
Cu10  O12   S    
C14   C22   S    
C3    C27   S    
Cu3   O3    S    
C31   H47   S    
C10   N1    A    
C96   C100  A    
Cu5   O41   S    
N23   C119  S    
C68   H20   S    
Cu4   O4    S    
C40   C44   A    
C90   O42   A    
C85   O33   A    
Cu1   O21   S    
C1    O1    A    
C44   H12   S    
C4    O4    A    
C113  H50   S    
C98   H30   S    
C115  H58   S    
C15   C19   D    
C50   C54   A    
C24   N28   S    
Cu5   O17   S    
C8    C112  A    
C81   O9    A    
C76   H28   S    
N18   H53   S    
C20   H40   S    
Cu12  O10   S    
C122  H86   S    
C96   H4    S    
N10   N14   A    
C111  H35   S    
C30   H46   S    
C55   C91   S    
C26   H42   S    
C9    C102  S    
C99   H31   S    
N24   H77   S    
C69   C73   D    
C11   C104  S    
C97   H29   S    
C108  N24   S    
C110  H34   S    
C100  H32   S    
C60   N11   A    
C127  H102  S    
C118  H70   S    
C61   H13   S    
C125  H96   S    
N25   C125  S    
N26   H97   S    
C12   C103  S    
C83   O15   A    
C81   O13   A    
C25   H41   S    
C126  H98   S    
C5    C45   S    
C33   C37   A    
C108  C112  A    
C22   N26   S    
C7    C47   S    
C35   C39   A    
C8    C48   S    
C121  H81   S    
N11   N15   A    
Cu2   O38   S    
C14   C122  S    
C11   N4    A    
Cu6   O26   S    
C62   H14   S    
Cu9   Cu10  S    
Cu11  O47   S    
Cu9   O45   S    
C114  H55   S    
C31   C35   A    
Cu10  O5    S    
C35   H7    S    
C104  C108  A    
C33   H5    S    
C65   C78   S    
C91   O39   A    
C10   C101  S    
C67   C80   S    
C89   O37   A    
C66   H18   S    
Cu3   O23   S    
N7    N8    A    
Cu1   O1    S    
Cu4   O24   S    
C98   C102  A    
C18   H38   S    
C43   C51   A    
N27   H101  S    
C105  C109  A    
C7    C111  A    
C17   C81   S    
C93   H1    S    
C79   O47   A    
N28   H105  S    
C95   H3    S    
C92   O40   A    
N5    N6    A    
C22   C26   D    
C118  H72   S    
C31   C55   A    
C32   C56   A    
C117  H68   S    
C48   O28   A    
Cu7   O27   S    
C124  H90   S    
C14   C18   D    
Cu5   O33   S    
C8    C96   A    
C72   C76   D    
C46   O26   A    
N1    N2    A    
C84   O12   A    
C119  H75   S    
C38   C42   A    
C121  H83   S    
C115  H59   S    
C85   O29   A    
N3    N4    A    
C128  H107  S    
C87   O31   A    
C1    O17   A    
C76   C88   S    
C37   C58   S    
C15   C23   S    
C16   C24   S    
C40   C59   S    
C1    C25   S    
C6    C110  A    
Cu3   O31   S    
Cu1   O29   S    
C4    C28   S    
C94   H2    S    
C101  C105  A    
C63   C67   D    
C127  H103  S    
C10   N6    A    
C36   C40   A    
N21   C117  S    
N9    N13   A    
C39   C43   A    
N18   C114  S    
C120  H78   S    
C72   H24   S    
C16   C124  S    
N12   N16   A    
N26   C126  S    
C3    O3    A    
C77   O45   A    
N23   H73   S    
C9    N2    A    
C74   C86   S    
C43   H11   S    
Cu2   Cu6   S    
C12   N3    A    
C2    O18   A    
C119  H74   S    
C23   C27   D    
N17   C113  S    
C124  H92   S    
Cu7   O19   S    
C83   O11   A    
N20   H61   S    
C106  C110  A    
C126  H100  S    
C61   C69   S    
C15   C123  S    
C6    C46   S    
Cu11  O14   S    
C34   C38   A    
Cu9   O16   S    
C5    C93   A    
Cu8   O28   S    
C7    C95   A    
Cu2   O22   S    
C123  H88   S    
C71   C75   D    
C29   C53   A    
Cu6   O42   S    
Cu12  O7    S    
C122  H85   S    
C102  C106  A    
C113  H52   S    
C21   N25   S    
C64   C72   S    
C59   N12   A    
C51   N19   S    
C56   C92   S    
C34   H6    S    
C105  N21   S    
C74   H26   S    
C86   O34   A    
C89   O41   A    
C116  H63   S    
C97   C101  A    
C52   C56   A    
C27   H43   S    
