data_mof_unit_12011.cif
_audit_creation_date              2012-12-11T14:01:24-0500
_audit_creation_method            fapswitch 2.2
_symmetry_space_group_name_H-M    P1
_symmetry_Int_Tables_number       1
_space_group_crystal_system       triclinic
_cell_length_a                    18.971667
_cell_length_b                    11.013008
_cell_length_c                    18.923519
_cell_angle_alpha                 90.202816
_cell_angle_beta                  89.856478
_cell_angle_gamma                 89.900459
_cell_volume                      3953.74451836

loop_
_atom_site_label
_atom_site_type_symbol
_atom_type_description
_atom_site_fract_x
_atom_site_fract_y
_atom_site_fract_z
_atom_type_partial_charge
C1    C     C_R   0.272579 0.041713 0.853760 0.566972
C2    C     C_R   0.727442 0.041531 0.146245 0.565937
C3    C     C_R   0.772579 0.541713 0.853760 0.566972
C4    C     C_R   0.227442 0.541531 0.146245 0.565937
C5    C     C_R   0.481880 0.051538 0.074547 -0.087232
C6    C     C_R   0.506030 0.057472 0.929299 -0.083271
C7    C     C_R   0.981879 0.551538 0.074547 -0.087232
C8    C     C_R   0.006030 0.557472 0.929299 -0.083271
C9    C     C_R   0.982883 0.662226 0.039083 -0.127262
C10   C     C_R   0.997246 0.665406 0.967049 -0.126467
C11   C     C_R   0.482883 0.162226 0.039083 -0.127261
C12   C     C_R   0.497247 0.165406 0.967049 -0.126467
C13   C     C_2   0.248827 0.581956 0.920715 -0.112838
C14   C     C_2   0.751226 0.581434 0.079217 -0.112700
C15   C     C_2   0.748827 0.081956 0.920715 -0.112838
C16   C     C_2   0.251225 0.081435 0.079217 -0.112700
C17   C     C_2   0.249687 0.585287 0.076993 -0.107104
C18   C     C_2   0.750381 0.585658 0.923147 -0.106884
C19   C     C_2   0.749687 0.085287 0.076993 -0.107104
C20   C     C_2   0.250381 0.085658 0.923147 -0.106884
C21   C     C_2   0.293945 0.519693 0.036496 -0.164763
C22   C     C_2   0.705938 0.520389 0.963199 -0.165816
C23   C     C_2   0.793945 0.019693 0.036496 -0.164763
C24   C     C_2   0.205938 0.020389 0.963199 -0.165816
C25   C     C_2   0.303212 0.546175 0.961065 -0.161718
C26   C     C_2   0.696777 0.546339 0.038753 -0.161540
C27   C     C_2   0.803212 0.046175 0.961065 -0.161718
C28   C     C_2   0.196777 0.046339 0.038753 -0.161540
C29   C     C_2   0.486746 0.824614 0.571806 -0.114410
C30   C     C_2   0.484049 0.836591 0.413979 -0.122246
C31   C     C_2   0.986746 0.324614 0.571806 -0.114410
C32   C     C_2   0.984049 0.336591 0.413980 -0.122246
C33   C     C_2   0.469988 0.738691 0.452923 -0.160750
C34   C     C_2   0.452905 0.748090 0.527724 -0.158170
C35   C     C_2   0.969988 0.238691 0.452924 -0.160750
C36   C     C_2   0.952905 0.248090 0.527724 -0.158169
C37   C     C_2   0.243130 0.581611 0.580678 -0.096507
C38   C     C_2   0.757239 0.580482 0.418377 -0.088780
C39   C     C_2   0.743130 0.081611 0.580678 -0.096508
C40   C     C_2   0.257239 0.080482 0.418377 -0.088780
C41   C     C_2   0.228662 0.546910 0.428328 -0.097008
C42   C     C_2   0.774032 0.534874 0.569629 -0.097762
C43   C     C_2   0.728662 0.046909 0.428328 -0.097009
C44   C     C_2   0.274031 0.034874 0.569630 -0.097761
C45   C     C_R   0.471077 0.822439 0.853353 0.543995
C46   C     C_R   0.529309 0.821840 0.146410 0.539708
C47   C     C_R   0.971077 0.322439 0.853353 0.543995
C48   C     C_R   0.029309 0.321840 0.146410 0.539708
C49   C     C_2   0.177447 0.567626 0.474863 -0.031426
C50   C     C_2   0.821448 0.584755 0.526426 -0.021802
C51   C     C_2   0.677446 0.067626 0.474863 -0.031426
C52   C     C_2   0.321447 0.084755 0.526426 -0.021802
C53   C     C_2   0.195627 0.632511 0.536736 -0.005955
C54   C     C_2   0.792729 0.645661 0.466904 -0.003547
C55   C     C_2   0.695627 0.132510 0.536736 -0.005954
C56   C     C_2   0.292729 0.145661 0.466904 -0.003547
C57   C     C_R   0.261027 0.637077 0.851704 0.557057
C58   C     C_R   0.739023 0.636837 0.148330 0.554013
C59   C     C_R   0.761027 0.137077 0.851704 0.557057
C60   C     C_R   0.239023 0.136837 0.148330 0.554013
C61   C     C_R   0.290550 0.000607 0.640233 0.561532
C62   C     C_R   0.711135 0.004626 0.359847 0.563353
C63   C     C_R   0.790550 0.500607 0.640233 0.561532
C64   C     C_R   0.211135 0.504626 0.359847 0.563353
C65   C     C_R   0.467398 0.822333 0.645945 0.542444
C66   C     C_R   0.526788 0.824204 0.350147 0.542324
C67   C     C_R   0.967398 0.322333 0.645945 0.542443
C68   C     C_R   0.026788 0.324204 0.350147 0.542324
C69   C     C_R   0.260963 0.640951 0.645246 0.547203
C70   C     C_R   0.739699 0.638209 0.353378 0.552135
C71   C     C_R   0.760963 0.140951 0.645246 0.547203
C72   C     C_R   0.239699 0.138209 0.353378 0.552136
C73   C     C_R   0.502907 0.829098 0.073693 0.002619
C74   C     C_R   0.499452 0.831881 0.925330 -0.000369
C75   C     C_R   0.002907 0.329098 0.073693 0.002619
C76   C     C_R   0.999452 0.331881 0.925330 -0.000369
C77   C     C_R   0.494929 0.941453 0.038050 0.024828
C78   C     C_R   0.500276 0.943669 0.963286 0.025266
C79   C     C_R   0.994929 0.441453 0.038050 0.024828
C80   C     C_R   0.000276 0.443668 0.963286 0.025266
C81   C     C_R   0.505259 0.722464 0.962141 -0.153422
C82   C     C_R   0.505884 0.720967 0.034552 -0.151015
C83   C     C_R   0.005259 0.222464 0.962141 -0.153422
C84   C     C_R   0.005884 0.220967 0.034552 -0.151015
Cr1   Cr    Cr6+3 0.230530 0.836340 0.748870 1.010174
Cr2   Cr    Cr6+3 0.769470 0.836340 0.251130 1.009241
Cr3   Cr    Cr6+3 0.730530 0.336340 0.748870 1.010174
Cr4   Cr    Cr6+3 0.269470 0.336340 0.251130 1.009241
Cr5   Cr    Cr6+3 0.387420 0.989430 0.750820 1.005850
Cr6   Cr    Cr6+3 0.612580 0.989430 0.249180 1.007953
Cr7   Cr    Cr6+3 0.887420 0.489430 0.750820 1.005850
Cr8   Cr    Cr6+3 0.112580 0.489430 0.249180 1.007953
Cr9   Cr    Cr6+3 0.385640 0.677860 0.749230 1.014420
Cr10  Cr    Cr6+3 0.614360 0.677860 0.250770 1.016411
Cr11  Cr    Cr6+3 0.885640 0.177860 0.749230 1.014420
Cr12  Cr    Cr6+3 0.114360 0.177860 0.250770 1.016411
H1    H     H_    0.506105 0.635590 0.935066 0.137980
H2    H     H_    0.511542 0.633264 0.059692 0.137482
H3    H     H_    0.006105 0.135590 0.935066 0.137980
H4    H     H_    0.011542 0.133264 0.059692 0.137482
H5    H     H_    0.283408 0.568885 0.440006 0.089390
H6    H     H_    0.718869 0.529883 0.553899 0.089714
H7    H     H_    0.783408 0.068885 0.440006 0.089390
H8    H     H_    0.218869 0.029884 0.553900 0.089714
H9    H     H_    0.267908 0.495188 0.568505 0.071416
H10   H     H_    0.748133 0.483559 0.424250 0.075519
H11   H     H_    0.767908 0.995188 0.568505 0.071416
H12   H     H_    0.248133 0.983558 0.424250 0.075519
H13   H     H_    0.469214 0.053097 0.130270 0.130811
H14   H     H_    0.519186 0.064636 0.873883 0.133316
H15   H     H_    0.969213 0.553097 0.130271 0.130811
H16   H     H_    0.019186 0.564636 0.873883 0.133316
H17   H     H_    0.973640 0.745937 0.067830 0.109672
H18   H     H_    0.000727 0.751757 0.940114 0.107447
H19   H     H_    0.473640 0.245937 0.067830 0.109671
H20   H     H_    0.500727 0.251757 0.940114 0.107447
H21   H     H_    0.323268 0.443828 0.058324 0.151370
H22   H     H_    0.676429 0.445039 0.940923 0.152135
H23   H     H_    0.823268 0.943828 0.058324 0.151370
H24   H     H_    0.176429 0.945039 0.940923 0.152135
H25   H     H_    0.356030 0.538326 0.939199 0.152915
H26   H     H_    0.643981 0.538797 0.060614 0.150640
H27   H     H_    0.856030 0.038326 0.939199 0.152915
H28   H     H_    0.143981 0.038797 0.060614 0.150640
H29   H     H_    0.222055 0.663060 0.055132 0.113351
H30   H     H_    0.778173 0.663005 0.945438 0.113510
H31   H     H_    0.722055 0.163060 0.055132 0.113351
H32   H     H_    0.278173 0.163005 0.945438 0.113510
H33   H     H_    0.195815 0.586186 0.942542 0.112509
H34   H     H_    0.804233 0.585289 0.057389 0.113759
H35   H     H_    0.695815 0.086186 0.942542 0.112509
H36   H     H_    0.304233 0.085289 0.057389 0.113759
H37   H     H_    0.476531 0.647641 0.431602 0.157477
H38   H     H_    0.415710 0.681803 0.548127 0.152402
H39   H     H_    0.976531 0.147641 0.431602 0.157477
H40   H     H_    0.915710 0.181803 0.548127 0.152402
H41   H     H_    0.473186 0.926852 0.434628 0.100345
H42   H     H_    0.524551 0.889910 0.553281 0.085176
H43   H     H_    0.973186 0.426853 0.434628 0.100345
H44   H     H_    0.024551 0.389910 0.553281 0.085176
O1    O     O_R   0.215090 0.709860 0.828130 -0.521010
O2    O     O_R   0.784910 0.709860 0.171870 -0.522728
O3    O     O_R   0.715090 0.209860 0.828130 -0.521010
O4    O     O_R   0.284910 0.209860 0.171870 -0.522728
O5    O     O_R   0.445660 0.919250 0.676780 -0.524747
O6    O     O_R   0.554340 0.919250 0.323220 -0.526467
O7    O     O_R   0.945660 0.419250 0.676780 -0.524747
O8    O     O_R   0.054340 0.419250 0.323220 -0.526467
O9    O     O_R   0.456260 0.718170 0.670000 -0.508006
O10   O     O_R   0.543740 0.718170 0.330000 -0.509355
O11   O     O_R   0.956260 0.218170 0.670000 -0.508006
O12   O     O_R   0.043740 0.218170 0.330000 -0.509355
O13   O     O_R   0.320940 0.626760 0.674370 -0.509980
O14   O     O_R   0.679060 0.626760 0.325630 -0.499824
O15   O     O_R   0.820940 0.126760 0.674370 -0.509980
O16   O     O_R   0.179060 0.126760 0.325630 -0.499823
O17   O     O_3   0.334530 0.834540 0.749640 -0.266921
O18   O     O_3   0.665470 0.834540 0.250360 -0.262153
O19   O     O_3   0.834530 0.334540 0.749640 -0.266922
O20   O     O_3   0.165470 0.334540 0.250360 -0.262153
O21   O     O_R   0.236990 0.958390 0.823710 -0.492990
O22   O     O_R   0.763010 0.958390 0.176290 -0.493529
O23   O     O_R   0.736990 0.458390 0.823710 -0.492990
O24   O     O_R   0.263010 0.458390 0.176290 -0.493529
O25   O     O_R   0.332380 0.074750 0.830850 -0.507985
O26   O     O_R   0.667620 0.074750 0.169150 -0.507004
O27   O     O_R   0.832380 0.574750 0.830850 -0.507985
O28   O     O_R   0.167620 0.574750 0.169150 -0.507004
O29   O     O_R   0.445800 0.917770 0.825070 -0.507152
O30   O     O_R   0.554200 0.917770 0.174930 -0.506500
O31   O     O_R   0.945800 0.417770 0.825070 -0.507152
O32   O     O_R   0.054200 0.417770 0.174930 -0.506500
O33   O     O_R   0.456410 0.716580 0.829970 -0.520666
O34   O     O_R   0.543590 0.716580 0.170030 -0.523893
O35   O     O_R   0.956410 0.216580 0.829970 -0.520666
O36   O     O_R   0.043590 0.216580 0.170030 -0.523893
O37   O     O_R   0.321080 0.625290 0.822650 -0.493022
O38   O     O_R   0.678920 0.625290 0.177350 -0.494807
O39   O     O_R   0.821080 0.125290 0.822650 -0.493022
O40   O     O_R   0.178920 0.125290 0.177350 -0.494807
O41   O     O_R   0.214930 0.711450 0.668160 -0.525458
O42   O     O_R   0.785070 0.711450 0.331840 -0.525042
O43   O     O_R   0.714930 0.211450 0.668160 -0.525458
O44   O     O_R   0.285070 0.211450 0.331840 -0.525043
O45   O     O_R   0.236850 0.959870 0.675420 -0.507505
O46   O     O_R   0.763150 0.959870 0.324580 -0.511029
O47   O     O_R   0.736850 0.459870 0.675420 -0.507505
O48   O     O_R   0.263150 0.459870 0.324580 -0.511029
O49   O     O_R   0.332230 0.076350 0.670880 -0.508531
O50   O     O_R   0.667770 0.076350 0.329120 -0.508511
O51   O     O_R   0.832230 0.576350 0.670880 -0.508531
O52   O     O_R   0.167770 0.576350 0.329120 -0.508511
C85   C     C_3   0.101528 0.534646 0.464864 -0.374654
H45   H     H_    0.069819 0.561173 0.511825 0.109682
H46   H     H_    0.078037 0.582815 0.419352 0.173365
H47   H     H_    0.099426 0.435043 0.458236 0.127533
C86   C     C_3   0.898225 0.606932 0.542633 -0.361808
H48   H     H_    0.927743 0.629125 0.493566 0.109010
H49   H     H_    0.904214 0.684102 0.580006 0.155528
H50   H     H_    0.921921 0.525142 0.564931 0.152121
C87   C     C_3   0.601527 0.034646 0.464863 -0.374654
H51   H     H_    0.569819 0.061174 0.511825 0.109682
H52   H     H_    0.578037 0.082816 0.419352 0.173365
H53   H     H_    0.599425 0.935044 0.458235 0.127533
C88   C     C_3   0.398225 0.106932 0.542633 -0.361808
H54   H     H_    0.427742 0.129126 0.493566 0.109010
H55   H     H_    0.404214 0.184100 0.580006 0.155529
H56   H     H_    0.421921 0.025141 0.564930 0.152120
C89   C     C_3   0.163405 0.758305 0.543023 -0.341062
H57   H     H_    0.137002 0.785982 0.493203 0.118835
H58   H     H_    0.122897 0.761145 0.585436 0.156737
H59   H     H_    0.205618 0.824792 0.552960 0.135068
C90   C     C_3   0.795160 0.782938 0.469282 -0.349301
H60   H     H_    0.812403 0.815803 0.521959 0.114536
H61   H     H_    0.833077 0.819669 0.430167 0.164227
H62   H     H_    0.741232 0.818172 0.460490 0.123995
C91   C     C_3   0.663404 0.258304 0.543024 -0.341061
H63   H     H_    0.637001 0.285981 0.493204 0.118834
H64   H     H_    0.622895 0.261144 0.585437 0.156736
H65   H     H_    0.705617 0.324793 0.552960 0.135069
C92   C     C_3   0.295159 0.282938 0.469282 -0.349302
H66   H     H_    0.312401 0.315804 0.521960 0.114536
H67   H     H_    0.333075 0.319671 0.430167 0.164227
H68   H     H_    0.241230 0.318171 0.460491 0.123994

loop_
_geom_bond_atom_site_label_1
_geom_bond_atom_site_label_2
_ccdc_geom_bond_type
C16   C28   D    
C54   C90   S    
Cr3   O23   S    
C38   C70   S    
C38   H10   S    
C72   O16   A    
C37   C69   S    
Cr8   O8    S    
Cr1   O21   S    
C87   H51   S    
Cr9   O9    S    
C35   C36   S    
Cr9   O13   S    
C2    O22   A    
Cr7   O7    S    
C81   C82   A    
C44   H8    S    
C3    O27   A    
C62   O50   A    
C77   C78   A    
C91   H65   S    
Cr5   O5    S    
C29   H42   S    
Cr1   O1    S    
C50   C54   S    
C75   C79   A    
C49   C85   S    
Cr11  O19   S    
Cr7   O27   S    
C47   C76   S    
C66   O10   A    
C92   H68   S    
C8    H16   S    
C23   H23   S    
C56   C92   S    
C49   C53   S    
C75   C84   A    
C88   H56   S    
C13   C57   S    
C68   O8    A    
C34   H38   S    
Cr12  O12   S    
C53   C89   S    
C42   H6    S    
C89   H59   S    
C3    C18   S    
C7    C9    A    
C16   C60   S    
Cr9   O33   S    
C86   H49   S    
Cr11  O35   S    
C21   H21   S    
C48   O32   A    
Cr11  O11   S    
C70   O42   A    
C39   C55   D    
C20   C24   D    
C7    H15   S    
C40   C56   D    
C76   C80   A    
C4    O24   A    
Cr2   O22   S    
C23   C27   S    
C18   C22   D    
C11   H19   S    
C9    C10   A    
C2    O26   A    
Cr7   O19   S    
C10   H18   S    
C3    O23   A    
C40   H12   S    
C37   C53   D    
C44   C52   D    
C88   H55   S    
Cr4   O44   S    
C1    O21   A    
Cr10  O18   S    
C30   H41   S    
Cr10  O38   S    
Cr6   O26   S    
C61   O49   A    
C6    H14   S    
C48   C75   S    
C13   C25   D    
C60   O4    A    
Cr1   O17   S    
C87   H52   S    
C16   H36   S    
C36   H40   S    
C76   C83   A    
C41   C49   D    
C64   O52   A    
C50   C86   S    
C61   O45   A    
C89   H57   S    
C90   H61   S    
Cr1   O45   S    
C14   C58   S    
C24   H24   S    
C82   H2    S    
C67   O11   A    
C52   C88   S    
C84   H4    S    
C32   C35   D    
C71   O43   A    
C72   O44   A    
C32   H43   S    
C55   C91   S    
C35   H39   S    
C27   H27   S    
Cr3   O47   S    
C51   C55   S    
C85   H46   S    
C91   H63   S    
C88   H54   S    
Cr7   O51   S    
C29   C34   D    
C69   O13   A    
C46   O30   A    
C45   C74   S    
Cr6   O18   S    
C86   H50   S    
C19   C23   D    
C17   H29   S    
C37   H9    S    
C92   H66   S    
C68   O12   A    
C45   O33   A    
C81   H1    S    
Cr8   O28   S    
C15   C27   D    
C83   C84   A    
C38   C54   D    
C90   H60   S    
Cr10  O14   S    
C85   H47   S    
C71   O15   A    
Cr6   O30   S    
C46   O34   A    
C33   C34   S    
Cr3   O43   S    
C58   O38   A    
C64   O48   A    
C14   C26   D    
Cr9   O17   S    
Cr2   O18   S    
Cr5   O25   S    
C30   C66   S    
C42   C50   D    
C29   C65   S    
C4    C17   S    
Cr11  O39   S    
Cr12  O20   S    
Cr10  O34   S    
Cr2   O46   S    
C63   O47   A    
Cr7   O31   S    
C5    C11   A    
C67   O7    A    
C87   H53   S    
C60   O40   A    
C74   C81   A    
C5    C77   A    
Cr3   O19   S    
C6    C12   A    
C73   C82   A    
Cr6   O6    S    
Cr2   O2    S    
C7    C79   A    
Cr6   O50   S    
C90   H62   S    
C22   H22   S    
C14   H34   S    
C21   C25   S    
C1    C20   S    
Cr1   O41   S    
C58   O2    A    
C40   C72   S    
C30   C33   D    
C2    C19   S    
C70   O14   A    
C15   C59   S    
C33   H37   S    
C24   C28   S    
Cr2   O42   S    
C45   O29   A    
Cr12  O36   S    
C47   O31   A    
C11   C12   A    
C28   H28   S    
Cr5   O17   S    
C57   O1    A    
C44   C61   S    
C91   H64   S    
C25   H25   S    
C74   C78   A    
C62   O46   A    
C20   H32   S    
Cr8   O20   S    
Cr3   O3    S    
Cr12  O40   S    
C59   O39   A    
Cr5   O29   S    
C92   H67   S    
Cr4   O24   S    
C18   H30   S    
C32   C68   S    
C57   O37   A    
C43   C51   D    
Cr12  O16   S    
C5    H13   S    
Cr8   O32   S    
C63   O51   A    
C52   C56   S    
C19   H31   S    
C89   H58   S    
C41   H5    S    
Cr11  O15   S    
Cr4   O20   S    
C65   O9    A    
C86   H48   S    
C39   H11   S    
C43   H7    S    
C9    H17   S    
C66   O6    A    
C6    C78   A    
C31   C67   S    
C47   O35   A    
C59   O3    A    
C79   C80   A    
C4    O28   A    
Cr10  O10   S    
Cr4   O48   S    
C15   H35   S    
C1    O25   A    
C73   C77   A    
C8    C10   A    
C85   H45   S    
C22   C26   S    
C51   C87   S    
C8    C80   A    
Cr5   O49   S    
C31   C36   D    
C83   H3    S    
C26   H26   S    
C41   C64   S    
Cr9   O37   S    
C31   H44   S    
C65   O5    A    
C42   C63   S    
Cr4   O4    S    
C46   C73   S    
C13   H33   S    
Cr8   O52   S    
C43   C62   S    
C69   O41   A    
C48   O36   A    
C12   H20   S    
C39   C71   S    
C17   C21   D    
