data_mof_unit_38994.cif
_audit_creation_date              2012-12-10T20:31:56-0500
_audit_creation_method            fapswitch 2.2
_symmetry_space_group_name_H-M    P1
_symmetry_Int_Tables_number       1
_space_group_crystal_system       triclinic
_cell_length_a                    9.882206
_cell_length_b                    10.667626
_cell_length_c                    15.539075
_cell_angle_alpha                 89.993008
_cell_angle_beta                  66.790496
_cell_angle_gamma                 89.344054
_cell_volume                      1505.43501318

loop_
_atom_site_label
_atom_site_type_symbol
_atom_type_description
_atom_site_fract_x
_atom_site_fract_y
_atom_site_fract_z
_atom_type_partial_charge
C1    C     C_R   0.499514 0.739819 0.500028 0.878366
C2    C     C_R   0.406389 0.466479 0.917209 0.101406
C3    C     C_R   0.260841 0.503717 0.974699 0.109084
C4    C     C_R   0.510056 0.441048 0.957623 0.071033
C5    C     C_R   0.471425 0.471370 0.053139 0.052989
C6    C     C_R   0.323450 0.504209 0.109326 -0.177796
C7    C     C_R   0.219740 0.518283 0.070645 -0.206044
C8    C     C_R   0.649676 0.384735 0.906578 -0.203201
C9    C     C_R   0.750590 0.364870 0.947387 -0.168954
C10   C     C_R   0.718239 0.404848 0.038718 0.196230
C11   C     C_R   0.580574 0.463123 0.090552 0.113639
C12   C     C_R   0.406493 0.497796 0.676825 0.845622
C13   C     C_R   0.820353 0.385579 0.079948 -0.211783
C14   C     C_R   0.785479 0.422528 0.172536 -0.163442
C15   C     C_R   0.555641 0.511254 0.178931 -0.228972
C16   C     C_R   0.456196 0.936734 0.435782 -0.014936
C17   C     C_R   0.504096 0.871859 0.496465 -0.089888
C18   C     C_R   0.577003 0.934790 0.544498 -0.198192
C19   C     C_R   0.580445 0.064023 0.542725 -0.211392
C20   C     C_R   0.510320 0.128753 0.493243 -0.104639
C21   C     C_R   0.459742 0.064981 0.433948 0.184291
C22   C     C_3   0.318584 0.077191 0.419936 -0.307286
C23   C     C_R   0.501724 0.260395 0.498841 0.904358
C24   C     C_3   0.313800 0.933473 0.423212 -0.277621
C25   C     C_R   0.881984 0.547342 0.574586 0.118284
C26   C     C_R   0.971951 0.442526 0.430468 0.629263
C27   C     C_R   0.115724 0.442588 0.430495 -0.202268
C28   C     C_R   0.024370 0.547382 0.574638 0.153550
C29   C     C_3   0.005119 0.679091 0.609802 -0.464029
C30   C     C_3   0.851345 0.678340 0.610450 -0.460251
C31   C     C_R   0.592714 0.499209 0.323812 0.901894
C32   C     C_R   0.345200 0.490759 0.780125 -0.160863
C33   C     C_R   0.650985 0.483532 0.222498 -0.051939
C34   C     C_R   0.157243 0.526436 0.935872 -0.191445
C35   C     C_R   0.195770 0.516449 0.839209 0.008188
C36   C     C_R   0.446238 0.463305 0.820498 -0.261505
H1    H     H_    0.107502 0.543587 0.115881 0.164204
H2    H     H_    0.924517 0.338168 0.041760 0.144481
H3    H     H_    0.623408 0.884819 0.587374 0.153587
H4    H     H_    0.628789 0.113007 0.584585 0.159721
H5    H     H_    0.228579 0.121710 0.480728 0.149621
H6    H     H_    0.222143 0.899286 0.486456 0.175637
H7    H     H_    0.205485 0.398068 0.373449 0.183666
H8    H     H_    0.005751 0.687383 0.680716 0.230124
H9    H     H_    0.459353 0.567999 0.216970 0.164601
H10   H     H_    0.079576 0.743814 0.557452 0.220662
H11   H     H_    0.762982 0.683302 0.682028 0.210625
H12   H     H_    0.837558 0.744076 0.558931 0.218170
H13   H     H_    0.860412 0.399568 0.205772 0.204839
H14   H     H_    0.854982 0.319120 0.906908 0.135587
H15   H     H_    0.045343 0.551969 0.981496 0.183942
H16   H     H_    0.559200 0.445479 0.774686 0.166224
H17   H     H_    0.283052 0.515137 0.184344 0.174971
H18   H     H_    0.681686 0.349592 0.836160 0.136034
N1    N     N_R   0.856900 0.500860 0.500610 -0.150206
N2    N     N_R   0.142540 0.500820 0.500610 -0.121864
O1    O     O_R   0.385310 0.683210 0.499990 -0.604721
O2    O     O_R   0.614650 0.683240 0.500000 -0.618943
O3    O     O_R   0.319830 0.499970 0.632240 -0.637415
O4    O     O_R   0.549170 0.500000 0.632250 -0.614190
O5    O     O_R   0.385350 0.316760 0.500000 -0.622310
O6    O     O_R   0.614690 0.316790 0.500010 -0.590573
O7    O     O_R   0.450830 0.500000 0.367750 -0.595890
O8    O     O_R   0.680170 0.500030 0.367760 -0.564469
Zn1   Zn    Zn3+2 0.346870 0.499980 0.499990 0.966378
Zn2   Zn    Zn3+2 0.653130 0.500020 0.500010 1.003095
C37   C     C_2   0.336223 0.136710 0.327972 0.413507
H19   H     H_    0.247534 0.130014 0.303731 0.090175
O9    O     O_2   0.447296 0.193912 0.281128 -0.565222
C38   C     C_2   0.330241 0.865844 0.334484 0.446722
H20   H     H_    0.420779 0.887111 0.268771 0.078945
O10   O     O_2   0.242412 0.785425 0.336146 -0.579998
F1    F     F_    0.949391 0.386305 0.359160 -0.675282
C39   C     C_2   0.076633 0.531836 0.804546 0.341090
H21   H     H_    0.079803 0.481717 0.743313 0.096403
O11   O     O_2   0.968824 0.597641 0.847036 -0.583675

loop_
_geom_bond_atom_site_label_1
_geom_bond_atom_site_label_2
_ccdc_geom_bond_type
C8    C9    A    
O7    Zn1   S    
C35   C39   S    
C16   C21   A    
C24   H6    S    
C19   C20   A    
C4    C8    A    
C26   N1    A    
C14   C33   A    
C28   N2    A    
C24   C38   S    
C25   C28   A    
C26   C27   A    
C39   O11   D    
C32   C36   A    
C30   H12   S    
C28   C29   S    
C5    C11   A    
C3    C7    A    
C5    C6    A    
C22   H5    S    
N2    Zn1   S    
C26   F1    S    
C34   C35   A    
C12   O3    A    
C11   C15   A    
O2    Zn2   S    
C23   O6    A    
C16   C17   A    
C31   C33   S    
C38   H20   S    
C9    C10   A    
C36   H16   S    
O4    Zn2   S    
C16   C24   S    
C21   C22   S    
C12   C32   S    
C7    H1    S    
C39   H21   S    
O6    Zn2   S    
C37   H19   S    
C32   C35   A    
C31   O7    A    
C30   H11   S    
C19   H4    S    
C8    H18   S    
C27   N2    A    
C18   C19   A    
C3    C34   A    
C37   O9    D    
C12   O4    A    
C2    C4    A    
C18   H3    S    
C29   C30   S    
C1    O1    A    
C20   C23   S    
C17   C18   A    
C34   H15   S    
C13   H2    S    
C29   H8    S    
C22   C24   S    
C15   H9    S    
C6    H17   S    
N1    Zn2   S    
C2    C36   A    
C25   C30   S    
C27   H7    S    
C31   O8    A    
C9    H14   S    
C25   N1    A    
O1    Zn1   S    
C4    C5    A    
C10   C13   A    
C6    C7    A    
C1    C17   S    
C29   H10   S    
C2    C3    A    
C1    O2    A    
O3    Zn1   S    
C22   C37   S    
C10   C11   A    
C14   H13   S    
O5    Zn1   S    
C23   O5    A    
C20   C21   A    
C38   O10   D    
C13   C14   A    
C15   C33   A    
O8    Zn2   S    
