data_mof_unit_32876.cif
_audit_creation_date              2012-12-10T17:04:30-0500
_audit_creation_method            fapswitch 2.2
_symmetry_space_group_name_H-M    P1
_symmetry_Int_Tables_number       1
_space_group_crystal_system       triclinic
_cell_length_a                    14.961128
_cell_length_b                    10.61267
_cell_length_c                    10.08753
_cell_angle_alpha                 91.10872
_cell_angle_beta                  90.031464
_cell_angle_gamma                 90.280724
_cell_volume                      1601.35351853

loop_
_atom_site_label
_atom_site_type_symbol
_atom_type_description
_atom_site_fract_x
_atom_site_fract_y
_atom_site_fract_z
_atom_type_partial_charge
C1    C     C_R   0.496696 0.262287 0.498283 0.966136
C2    C     C_R   0.186132 0.383198 0.544227 0.114755
C3    C     C_R   0.232050 0.490165 0.499846 -0.084410
C4    C     C_R   0.327338 0.495619 0.500097 0.898109
C5    C     C_R   0.187661 0.595734 0.456097 -0.232643
C6    C     C_2   0.436583 0.931154 0.400225 -0.073532
C7    C     C_2   0.464924 0.866672 0.506003 -0.433511
C8    C     C_2   0.432836 0.068284 0.412596 0.184208
C9    C     C_2   0.492087 0.128629 0.491887 -0.334263
C10   C     C_2   0.568648 0.529781 0.925466 -0.111393
C11   C     C_2   0.560067 0.554519 0.071651 0.149067
C12   C     C_R   0.909155 0.610117 0.474284 0.050802
C13   C     C_R   0.490581 0.736664 0.501094 0.992968
C14   C     C_R   0.672688 0.501613 0.500342 0.955128
C15   C     C_R   0.815465 0.614601 0.482974 -0.105852
C16   C     C_R   0.768352 0.501255 0.502020 -0.171264
C17   C     C_R   0.811375 0.386232 0.521431 0.086157
C18   C     C_R   0.904621 0.382738 0.520181 0.061971
C19   C     C_R   0.953490 0.493758 0.494470 0.040094
C20   C     C_2   0.766047 0.736438 0.478725 0.907436
C21   C     C_2   0.453422 0.393766 0.098927 1.021427
C22   C     C_2   0.081619 0.136022 0.535017 0.953394
C23   C     C_R   0.949881 0.269526 0.540254 -0.206394
C24   C     C_2   0.410549 0.871531 0.271191 1.017241
C25   C     C_R   0.042636 0.263933 0.539219 -0.030067
C26   C     C_R   0.092829 0.376406 0.524395 -0.003551
C27   C     C_R   0.047268 0.489311 0.492405 0.051774
C28   C     C_R   0.095677 0.599266 0.461137 0.122398
C29   C     C_R   0.052092 0.712390 0.438316 -0.191237
C30   C     C_R   0.960154 0.718987 0.449227 -0.133587
H1    H     H_    0.469956 0.912245 0.603157 0.185354
H2    H     H_    0.334029 0.319602 0.046184 0.362993
H3    H     H_    0.082347 0.961223 0.610117 0.345543
H4    H     H_    0.419999 0.873937 0.071837 0.352230
H5    H     H_    0.542380 0.079743 0.548477 0.165066
H6    H     H_    0.633020 0.544527 0.878768 0.199513
H7    H     H_    0.438697 0.512018 0.893707 0.189759
H8    H     H_    0.913789 0.182205 0.552391 0.207593
H9    H     H_    0.225348 0.678429 0.427033 0.187273
H10   H     H_    0.089512 0.797219 0.416319 0.177047
H11   H     H_    0.930606 0.810576 0.437758 0.204879
H12   H     H_    0.741474 0.897891 0.383191 0.369131
I1    I     I_    0.330642 0.162068 0.304623 -0.156909
I2    I     I_    0.648529 0.692235 0.148339 -0.181248
I3    I     I_    0.732944 0.218614 0.552719 -0.312153
I4    I     I_    0.256236 0.254230 0.669668 -0.249433
N1    N     N_2   0.500970 0.501330 0.852150 -0.196432
N2    N     N_2   0.500990 0.501360 0.147810 -0.186877
O1    O     O_R   0.499990 0.319060 0.613040 -0.579513
O2    O     O_R   0.778904 0.818808 0.373898 -0.772845
O3    O     O_2   0.493636 0.297846 0.066679 -0.581289
O4    O     O_R   0.360379 0.398661 0.088892 -0.775413
O5    O     O_2   0.136990 0.108152 0.450601 -0.590780
O6    O     O_R   0.051365 0.045260 0.623326 -0.778845
O7    O     O_2   0.359192 0.781497 0.267968 -0.620191
O8    O     O_R   0.442597 0.921814 0.153198 -0.743602
O9    O     O_R   0.500010 0.319100 0.386900 -0.596978
O10   O     O_R   0.367830 0.499950 0.613080 -0.617608
O11   O     O_R   0.367860 0.499990 0.386940 -0.569870
O12   O     O_R   0.499990 0.680900 0.613100 -0.597178
O13   O     O_R   0.500010 0.680940 0.386960 -0.593219
O14   O     O_R   0.632140 0.500010 0.613060 -0.591762
O15   O     O_R   0.632170 0.500050 0.386920 -0.603692
O16   O     O_2   0.713344 0.763844 0.567198 -0.610949
Zn1   Zn    Zn3+2 0.499980 0.499970 0.650990 1.028383
Zn2   Zn    Zn3+2 0.500020 0.500030 0.349010 1.070661

loop_
_geom_bond_atom_site_label_1
_geom_bond_atom_site_label_2
_ccdc_geom_bond_type
C15   C16   A    
C20   O16   D    
C12   C19   A    
C10   H6    S    
C8    I1    S    
C30   H11   S    
H4    O8    S    
C6    C7    D    
C1    O9    A    
H7    N1    S    
C5    C28   A    
C19   C27   A    
O10   Zn1   S    
C12   C15   A    
C7    C13   S    
O9    Zn2   S    
C21   N2    S    
C6    C24   S    
C5    H9    S    
C2    C3    A    
C26   C27   A    
O15   Zn2   S    
C1    C9    S    
C11   I2    S    
C2    C26   A    
C13   O12   A    
C2    I4    S    
C24   O7    D    
C11   N2    D    
C29   C30   A    
O1    Zn1   S    
H12   O2    S    
C20   O2    S    
C14   O15   A    
C4    O11   A    
C28   C29   A    
C7    H1    S    
C17   I3    S    
O12   Zn1   S    
C17   C18   A    
C22   O5    D    
C23   C25   A    
O11   Zn2   S    
C15   C20   S    
C14   C16   S    
C10   N1    D    
C14   O14   A    
C24   O8    S    
C10   C11   S    
C18   C23   A    
C23   H8    S    
C3    C5    A    
C21   O3    D    
C13   O13   A    
C29   H10   S    
C22   O6    S    
C18   C19   A    
C4    O10   A    
H3    O6    S    
C9    H5    S    
H2    O4    S    
C6    C8    S    
O14   Zn1   S    
N2    Zn2   S    
C25   C26   A    
C12   C30   A    
O13   Zn2   S    
N1    Zn1   S    
C21   O4    S    
C3    C4    S    
C16   C17   A    
C8    C9    D    
C27   C28   A    
C22   C25   S    
C1    O1    A    
