data_mof_unit_12203.cif
_audit_creation_date              2012-12-10T19:09:02-0500
_audit_creation_method            fapswitch 2.2
_symmetry_space_group_name_H-M    P1
_symmetry_Int_Tables_number       1
_space_group_crystal_system       triclinic
_cell_length_a                    17.65636
_cell_length_b                    10.844332
_cell_length_c                    9.601392
_cell_angle_alpha                 89.574415
_cell_angle_beta                  90.085821
_cell_angle_gamma                 91.75114
_cell_volume                      1837.48151712

loop_
_atom_site_label
_atom_site_type_symbol
_atom_type_description
_atom_site_fract_x
_atom_site_fract_y
_atom_site_fract_z
_atom_type_partial_charge
C1    C     C_R   0.505295 0.263018 0.499911 0.782165
C2    C     C_R   0.884195 0.476282 0.487875 0.081262
C3    C     C_1   0.965502 0.473988 0.488933 -0.046675
C4    C     C_1   0.033432 0.475536 0.490875 -0.078162
C5    C     C_R   0.152312 0.540046 0.603341 -0.160591
C6    C     C_R   0.231294 0.547214 0.605020 -0.200049
C7    C     C_R   0.272653 0.494055 0.497567 -0.022961
C8    C     C_R   0.234040 0.435722 0.386950 -0.195223
C9    C     C_R   0.155082 0.428796 0.385278 -0.160821
C10   C     C_R   0.114323 0.480506 0.493735 0.149723
C11   C     C_R   0.481863 0.063010 0.613101 0.089002
C12   C     C_R   0.355683 0.499074 0.499682 0.785231
C13   C     C_R   0.510554 0.129329 0.498501 -0.146614
C14   C     C_R   0.536462 0.063780 0.380370 0.142968
C15   C     C_R   0.528882 0.934946 0.380038 -0.239443
C16   C     C_R   0.502092 0.870450 0.497618 -0.140065
C17   C     C_R   0.478412 0.935572 0.613102 0.128585
C18   C     C_3   0.506215 0.926279 0.759462 -0.457413
C19   C     C_3   0.510634 0.065577 0.759818 -0.475535
C20   C     C_R   0.533876 0.595049 0.073015 0.218895
C21   C     C_R   0.454912 0.420472 0.077392 -0.073760
C22   C     C_R   0.451934 0.422324 0.929189 0.224856
C23   C     C_R   0.501067 0.737283 0.499565 0.811935
C24   C     C_R   0.539486 0.588171 0.928092 0.154369
C25   C     C_3   0.622058 0.627313 0.932143 -0.077761
C26   C     C_3   0.611805 0.649143 0.088355 -0.520764
C27   C     C_R   0.644043 0.498261 0.499910 0.792878
C28   C     C_R   0.841300 0.390456 0.569568 0.157400
C29   C     C_R   0.762401 0.400388 0.575128 -0.244645
C30   C     C_R   0.726430 0.491933 0.498506 -0.082887
C31   C     C_R   0.768740 0.573215 0.413749 -0.252524
C32   C     C_R   0.847638 0.566890 0.407654 0.161505
Cu1   Cu    Cu3+1 0.500000 0.499980 0.640670 0.921300
Cu2   Cu    Cu3+1 0.500000 0.500020 0.359330 0.929574
H1    H     H_    0.549032 0.884652 0.290995 0.160816
H2    H     H_    0.562645 0.884047 0.767383 0.190296
H3    H     H_    0.469670 0.105094 0.832722 0.194491
H4    H     H_    0.569504 0.104397 0.768282 0.197619
H5    H     H_    0.419003 0.356604 0.136372 0.141875
H6    H     H_    0.610763 0.748741 0.114525 0.158945
H7    H     H_    0.120898 0.581735 0.686677 0.129172
H8    H     H_    0.125881 0.383371 0.299608 0.127983
N1    N     N_R   0.500470 0.500930 0.147930 -0.194028
N2    N     N_R   0.500480 0.500890 0.852020 -0.210834
O1    O     O_R   0.500000 0.319640 0.618810 -0.601112
O2    O     O_R   0.500010 0.319680 0.381230 -0.575260
O3    O     O_R   0.391250 0.499990 0.618840 -0.579812
O4    O     O_R   0.391260 0.500020 0.381250 -0.577256
O5    O     O_R   0.499990 0.680320 0.618770 -0.577454
O6    O     O_R   0.500000 0.680360 0.381190 -0.576839
O7    O     O_R   0.608740 0.499980 0.618750 -0.585443
O8    O     O_R   0.608750 0.500010 0.381160 -0.588727
C33   C     C_3   0.877865 0.283627 0.643862 -0.402618
C34   C     C_3   0.914153 0.322273 0.781890 -0.833365
H9    H     H_    0.950986 0.406374 0.769117 0.256890
H10   H     H_    0.869720 0.339441 0.860242 0.241198
H11   H     H_    0.949292 0.246542 0.821910 0.239718
H12   H     H_    0.835286 0.208152 0.665019 0.191375
H13   H     H_    0.921392 0.243788 0.575412 0.202264
H14   H     H_    0.462262 0.886488 0.830921 0.195009
C35   C     C_3   0.390541 0.339180 0.867142 -0.368549
C36   C     C_3   0.312105 0.388756 0.896732 -0.852794
H15   H     H_    0.310813 0.488509 0.871230 0.261415
H16   H     H_    0.268787 0.338377 0.833200 0.247770
H17   H     H_    0.297362 0.375930 0.008434 0.232138
H18   H     H_    0.395730 0.324448 0.755374 0.262685
H19   H     H_    0.393120 0.246342 0.915862 0.154356
C37   C     C_3   0.679827 0.524915 0.907973 -0.309681
C38   C     C_3   0.755929 0.582678 0.863449 -0.856270
H20   H     H_    0.750058 0.632568 0.762756 0.259114
H21   H     H_    0.777219 0.648336 0.943764 0.251001
H22   H     H_    0.797858 0.510034 0.850576 0.250632
H23   H     H_    0.688875 0.467916 0.002914 0.188546
H24   H     H_    0.659892 0.457368 0.830329 0.232352
H25   H     H_    0.632996 0.713861 0.871631 0.160103
H26   H     H_    0.648286 0.595620 0.158896 0.222281
H27   H     H_    0.728691 0.335203 0.636945 0.133701
H28   H     H_    0.740019 0.642172 0.352756 0.133762
C39   C     C_3   0.891106 0.656201 0.313070 -0.404820
C40   C     C_3   0.915096 0.593053 0.179207 -0.830186
H29   H     H_    0.955078 0.518507 0.202087 0.253933
H30   H     H_    0.864677 0.553000 0.124654 0.253621
H31   H     H_    0.943723 0.661665 0.109107 0.238382
H32   H     H_    0.855566 0.735392 0.284224 0.192203
H33   H     H_    0.941688 0.695494 0.367849 0.203937
H34   H     H_    0.259934 0.596399 0.688384 0.140976
H35   H     H_    0.264915 0.394361 0.302729 0.138553
C41   C     C_3   0.579613 0.123460 0.259759 -0.370447
C42   C     C_3   0.531256 0.125013 0.127954 -0.819962
H36   H     H_    0.475046 0.163219 0.149959 0.252530
H37   H     H_    0.560145 0.182667 0.046761 0.232285
H38   H     H_    0.522719 0.029934 0.087390 0.241830
H39   H     H_    0.601533 0.217679 0.283900 0.216813
H40   H     H_    0.631163 0.070193 0.238794 0.177132

loop_
_geom_bond_atom_site_label_1
_geom_bond_atom_site_label_2
_ccdc_geom_bond_type
C18   H2    S    
Cu1   O1    S    
C12   O4    A    
C1    O1    A    
C33   H13   S    
C7    C8    A    
C33   C34   S    
C11   C19   S    
C9    H8    S    
C36   H15   S    
C5    C6    A    
C28   C29   A    
C12   O3    A    
C39   H32   S    
C1    O2    A    
C23   O5    A    
C16   C17   A    
Cu1   O5    S    
C15   C16   A    
C2    C32   A    
C18   C19   S    
C38   H21   S    
C36   H16   S    
C19   H3    S    
C34   H9    S    
C35   H18   S    
C22   N2    A    
C20   C24   A    
C8    C9    A    
C26   H26   S    
Cu2   O2    S    
C42   H37   S    
C9    C10   A    
C21   N1    A    
C21   C22   A    
C27   C30   S    
C35   C36   S    
C25   C37   S    
C40   H31   S    
C15   H1    S    
C27   O7    A    
Cu1   Cu2   S    
C41   H40   S    
C7    C12   S    
C34   H10   S    
Cu2   O6    S    
C24   C25   S    
C40   H30   S    
C37   C38   S    
C23   O6    A    
C37   H23   S    
C25   H25   S    
C38   H22   S    
C29   C30   A    
C19   H4    S    
C35   H19   S    
C31   C32   A    
C21   H5    S    
C33   H12   S    
C17   C18   S    
C42   H38   S    
C18   H14   S    
C16   C23   S    
Cu1   O3    S    
C1    C13   S    
C4    C10   S    
C3    C4    T    
C39   H33   S    
C20   N1    A    
C27   O8    A    
C31   H28   S    
C5    H7    S    
C41   H39   S    
C11   C17   A    
C36   H17   S    
Cu1   N2    S    
Cu2   N1    S    
C40   H29   S    
C28   C33   S    
C6    C7    A    
Cu1   O7    S    
Cu2   O4    S    
Cu2   O8    S    
C6    H34   S    
C8    H35   S    
C2    C3    S    
C25   C26   S    
C14   C41   S    
C5    C10   A    
C22   C35   S    
C11   C13   A    
C26   H6    S    
C30   C31   A    
C20   C26   S    
C24   N2    A    
C38   H20   S    
C39   C40   S    
C29   H27   S    
C41   C42   S    
C14   C15   A    
C2    C28   A    
C42   H36   S    
C13   C14   A    
C37   H24   S    
C32   C39   S    
C34   H11   S    
