data_mof_unit_41095.cif
_audit_creation_date              2012-10-26T20:14:31-0400
_audit_creation_method            fapswitch 2.2
_symmetry_space_group_name_H-M    P1
_symmetry_Int_Tables_number       1
_space_group_crystal_system       triclinic
_cell_length_a                    7.787148
_cell_length_b                    9.087904
_cell_length_c                    17.293186
_cell_angle_alpha                 90.006794
_cell_angle_beta                  85.416874
_cell_angle_gamma                 89.987217
_cell_volume                      1219.90568714

loop_
_atom_site_label
_atom_site_type_symbol
_atom_type_description
_atom_site_fract_x
_atom_site_fract_y
_atom_site_fract_z
_atom_type_partial_charge
C1    C     C_R   0.500001 0.779947 0.499946 0.622868
C2    C     C_R   0.449096 0.593538 0.221200 0.217362
C3    C     C_R   0.531694 0.584608 0.859152 -0.112826
C4    C     C_R   0.463499 0.582756 0.140829 -0.112461
C5    C     C_R   0.435148 0.472330 0.896954 -0.070296
C6    C     C_R   0.567825 0.475642 0.102752 -0.069256
C7    C     C_R   0.346703 0.368972 0.853722 0.325321
C8    C     C_R   0.662595 0.376475 0.145753 0.326119
C9    C     C_R   0.363167 0.376257 0.772692 0.267137
C10   C     C_R   0.644497 0.382234 0.226802 0.269770
C11   C     C_2   0.429000 0.467058 0.981759 -0.136720
C12   C     C_R   0.500017 0.220046 0.499977 0.515647
C13   C     C_2   0.574536 0.470870 0.017925 -0.136628
C14   C     C_1   0.500002 0.934627 0.499934 0.054924
C15   C     C_1   0.500028 0.065393 0.499950 0.008397
C16   C     C_R   0.476986 0.499662 0.650267 0.562798
C17   C     C_R   0.523012 0.499756 0.349683 0.561546
C18   C     C_R   0.461878 0.490760 0.734826 -0.046713
C19   C     C_R   0.538285 0.491727 0.265013 -0.046730
C20   C     C_R   0.544590 0.596406 0.778828 0.217328
Cu1   Cu    Cu3+1 0.330920 0.500000 0.500000 1.155714
Cu2   Cu    Cu3+1 0.669080 0.500000 0.500000 1.153243
H1    H     H_    0.394609 0.660008 0.106976 0.200331
H2    H     H_    0.340456 0.257027 0.679959 0.324972
H3    H     H_    0.595463 0.665021 0.893167 0.200550
H4    H     H_    0.699215 0.469739 0.984787 0.154951
H5    H     H_    0.304670 0.459313 0.014907 0.155993
H6    H     H_    0.259890 0.252003 0.943898 0.332069
H7    H     H_    0.758763 0.265003 0.055197 0.331470
H8    H     H_    0.760559 0.954560 0.775351 0.388466
H9    H     H_    0.207325 0.939550 0.224952 0.389620
H10   H     H_    0.669668 0.260501 0.318209 0.325195
N1    N     N_1   0.923170 0.500000 0.500010 -0.045317
N2    N     N_1   0.076830 0.500000 0.499990 -0.045172
O1    O     O_R   0.357240 0.711600 0.500000 -0.472775
O2    O     O_3   0.767410 0.267358 0.111861 -0.602530
O3    O     O_2   0.825983 0.695758 0.695849 -0.238784
O4    O     O_2   0.552874 0.821077 0.678150 -0.288104
O5    O     O_3   0.702020 0.872337 0.804348 -0.498166
O6    O     O_2   0.159112 0.678885 0.302561 -0.238728
O7    O     O_2   0.422745 0.816039 0.323458 -0.288458
O8    O     O_3   0.276079 0.862555 0.196159 -0.501035
O9    O     O_3   0.729772 0.275889 0.266275 -0.597085
O10   O     O_3   0.283870 0.266589 0.732971 -0.596107
O11   O     O_R   0.642760 0.288400 0.500000 -0.514681
O12   O     O_R   0.642760 0.711600 0.500000 -0.474976
O13   O     O_R   0.357240 0.288400 0.500000 -0.514078
O14   O     O_R   0.340660 0.500000 0.613590 -0.498130
O15   O     O_R   0.659340 0.500000 0.386410 -0.497249
O16   O     O_R   0.626230 0.500000 0.613600 -0.461599
O17   O     O_R   0.373770 0.500000 0.386400 -0.457827
O18   O     O_3   0.249740 0.254748 0.887343 -0.599500
S1    S     S_3+6 0.659132 0.748560 0.736146 0.050558
S2    S     S_3+6 0.323829 0.739749 0.264015 0.049584

loop_
_geom_bond_atom_site_label_1
_geom_bond_atom_site_label_2
_ccdc_geom_bond_type
H8    O5    S    
C2    C4    A    
C5    C7    A    
Cu1   O1    S    
H9    O8    S    
C1    C14   S    
C11   C13   D    
O6    S2    D    
C12   C15   S    
C11   H5    S    
C10   C19   A    
Cu2   O16   S    
Cu1   O14   S    
O3    S1    D    
C16   O14   A    
N1    N2    T    
C2    C19   A    
C3    C20   A    
Cu1   Cu2   S    
O8    S2    S    
C6    C13   S    
O7    S2    D    
H6    O18   S    
H7    O2    S    
C17   O17   A    
C1    O12   A    
O5    S1    S    
O4    S1    D    
C12   O13   A    
C16   C18   S    
Cu2   O12   S    
H10   O9    S    
C16   O16   A    
C7    O18   S    
C5    C11   S    
C18   C20   A    
Cu2   O15   S    
C2    S2    S    
H2    O10   S    
C13   H4    S    
C8    C10   A    
C3    C5    A    
C9    C18   A    
Cu1   O17   S    
C3    H3    S    
C1    O1    A    
C4    C6    A    
Cu2   O11   S    
C8    O2    S    
C17   O15   A    
C7    C9    A    
Cu2   N1    S    
C14   C15   T    
C12   O11   A    
C9    O10   S    
C6    C8    A    
Cu1   N2    S    
C17   C19   S    
C10   O9    S    
C4    H1    S    
C20   S1    S    
Cu1   O13   S    
