data_mof_unit_8908.cif
_audit_creation_date              2012-12-10T18:11:39-0500
_audit_creation_method            fapswitch 2.2
_symmetry_space_group_name_H-M    P1
_symmetry_Int_Tables_number       1
_space_group_crystal_system       triclinic
_cell_length_a                    10.502558
_cell_length_b                    12.594336
_cell_length_c                    13.216304
_cell_angle_alpha                 83.045803
_cell_angle_beta                  90.929927
_cell_angle_gamma                 102.364798
_cell_volume                      1694.95940939

loop_
_atom_site_label
_atom_site_type_symbol
_atom_type_description
_atom_site_fract_x
_atom_site_fract_y
_atom_site_fract_z
_atom_type_partial_charge
C1    C     C_R   0.472390 0.440219 0.690339 0.866198
C2    C     C_3   0.067412 0.597013 0.522135 -0.238752
C3    C     C_3   0.964670 0.516691 0.592343 -0.128129
C4    C     C_3   0.877715 0.500409 0.499216 -0.060771
C5    C     C_R   0.560381 0.728328 0.048946 0.403792
C6    C     C_R   0.513930 0.595321 0.199578 -0.215519
C7    C     C_R   0.419188 0.294864 0.836375 -0.171071
C8    C     C_R   0.404839 0.262655 0.940491 -0.141645
C9    C     C_R   0.411611 0.340751 0.007499 -0.183379
C10   C     C_R   0.424188 0.453079 0.970469 0.136221
C11   C     C_R   0.420774 0.483320 0.864371 0.085516
C12   C     C_R   0.742413 0.500504 0.499888 0.911695
C13   C     C_R   0.453474 0.537965 0.034071 0.024255
C14   C     C_R   0.490816 0.648448 0.990479 -0.028197
C15   C     C_R   0.458315 0.675520 0.889502 -0.194119
C16   C     C_R   0.413311 0.592660 0.829317 -0.183207
C17   C     C_R   0.453965 0.515914 0.139077 -0.300560
C18   C     C_R   0.572136 0.701588 0.154671 0.353335
C19   C     C_R   0.432790 0.405447 0.797567 -0.140769
C20   C     C_R   0.304524 0.083341 0.357486 -0.322383
C21   C     C_R   0.657804 0.801983 0.627608 0.559765
C22   C     C_R   0.670830 0.901983 0.667658 -0.452390
C23   C     C_R   0.515236 0.560491 0.308776 0.942668
C24   C     C_R   0.602216 0.978875 0.626281 0.563848
C25   C     C_R   0.521003 0.958516 0.541506 -0.125433
C26   C     C_R   0.497770 0.851611 0.511404 0.049205
C27   C     C_R   0.460628 0.038412 0.486454 0.027785
C28   C     C_R   0.366202 0.006426 0.411657 0.180702
C29   C     C_R   0.337219 0.898838 0.389316 -0.303096
C30   C     C_R   0.404479 0.823552 0.436582 -0.177206
C31   C     C_R   0.494968 0.150489 0.498195 -0.015648
C32   C     C_R   0.338835 0.191735 0.376156 0.013370
C33   C     C_R   0.257740 0.499593 0.499428 0.881884
C34   C     C_3   0.932548 0.402093 0.476190 -0.197016
C35   C     C_3   0.022331 0.418960 0.569327 -0.243873
C36   C     C_3   0.122577 0.499171 0.499338 -0.070486
C37   C     C_3   0.034894 0.483007 0.407635 0.671544
C38   C     C_3   0.977769 0.580722 0.428847 -0.268566
H1    H     H_    0.045183 0.353530 0.626332 0.164929
H2    H     H_    0.406439 0.436214 0.175081 0.192797
H3    H     H_    0.424304 0.233537 0.786638 0.191660
H4    H     H_    0.412519 0.310981 0.087422 0.133083
H5    H     H_    0.396539 0.177362 0.969923 0.154813
H6    H     H_    0.379377 0.616511 0.754129 0.175654
H7    H     H_    0.290862 0.252109 0.336066 0.154231
H8    H     H_    0.266877 0.874026 0.331133 0.155619
H9    H     H_    0.231206 0.059962 0.300989 0.150505
H10   H     H_    0.572534 0.184377 0.546479 0.208913
H11   H     H_    0.874526 0.322817 0.456484 0.164899
H12   H     H_    0.731650 0.921279 0.731991 0.173937
H13   H     H_    0.387146 0.745851 0.408348 0.211493
H14   H     H_    0.955375 0.646028 0.371472 0.158491
H15   H     H_    0.127878 0.675879 0.540077 0.184972
H16   H     H_    0.931145 0.529135 0.668296 0.145474
H17   H     H_    0.469101 0.760151 0.856765 0.185125
N1    N     N_R   0.432930 0.222190 0.444670 -0.122692
N2    N     N_R   0.566370 0.776980 0.554790 -0.162189
O1    O     O_R   0.467970 0.366730 0.627150 -0.612371
O2    O     O_R   0.510820 0.544830 0.662520 -0.580632
O3    O     O_R   0.664630 0.410960 0.482340 -0.630111
O4    O     O_R   0.707470 0.589060 0.517710 -0.569360
O5    O     O_R   0.489180 0.455170 0.337480 -0.624234
O6    O     O_R   0.532030 0.633270 0.372850 -0.626309
O7    O     O_R   0.292530 0.410940 0.482290 -0.606050
O8    O     O_R   0.335370 0.589040 0.517660 -0.663382
Zn1   Zn    Zn3+2 0.471390 0.381080 0.476380 0.963273
Zn2   Zn    Zn3+2 0.528610 0.618920 0.523620 0.966295
O9    O     O_3   0.726376 0.722927 0.665593 -0.595646
C39   C     C_3   0.858971 0.767012 0.686578 0.064967
H18   H     H_    0.903421 0.697347 0.716500 0.160282
H19   H     H_    0.869445 0.819291 0.749045 0.122417
C40   C     C_3   0.937149 0.826878 0.591185 -0.379212
H20   H     H_    0.933403 0.769368 0.533377 0.241402
H21   H     H_    0.894776 0.896326 0.556889 0.213195
C41   C     C_3   0.078799 0.872466 0.617688 -0.927421
H22   H     H_    0.083843 0.936309 0.669593 0.269459
H23   H     H_    0.134584 0.909960 0.547010 0.278200
H24   H     H_    0.124427 0.806470 0.655534 0.257497
F1    F     F_    0.609718 0.068094 0.675856 -0.689259
F2    F     F_    0.076340 0.465592 0.313437 -0.681949
O10   O     O_3   0.658352 0.771741 0.209719 -0.648797
C42   C     C_3   0.604280 0.859963 0.232142 0.163421
H25   H     H_    0.598606 0.853988 0.315936 0.174248
H26   H     H_    0.504507 0.859574 0.201184 0.120130
C43   C     C_3   0.695938 0.969422 0.195881 -0.352603
H27   H     H_    0.795862 0.968263 0.224402 0.218949
H28   H     H_    0.699858 0.983004 0.111436 0.263387
C44   C     C_3   0.650398 0.064668 0.234613 -0.938316
H29   H     H_    0.549951 0.067017 0.208207 0.269443
H30   H     H_    0.716603 0.143052 0.204972 0.274708
H31   H     H_    0.652089 0.056342 0.319214 0.263402
O11   O     O_3   0.621493 0.831391 0.004005 -0.649309
C45   C     C_3   0.735652 0.825543 0.950851 0.052093
H32   H     H_    0.767452 0.905140 0.902812 0.174114
H33   H     H_    0.716919 0.761143 0.898465 0.151577
C46   C     C_3   0.848254 0.809633 0.022901 -0.324662
H34   H     H_    0.866963 0.874925 0.074014 0.239554
H35   H     H_    0.822582 0.728849 0.070236 0.239469
C47   C     C_3   0.973049 0.814005 0.963487 -0.976645
H36   H     H_    0.958681 0.746170 0.915201 0.262422
H37   H     H_    0.053091 0.804997 0.017619 0.277845
H38   H     H_    0.001922 0.893576 0.914516 0.263240

loop_
_geom_bond_atom_site_label_1
_geom_bond_atom_site_label_2
_ccdc_geom_bond_type
C30   H13   S    
C45   H32   S    
C34   C37   S    
C32   H7    S    
C35   C36   S    
C8    H5    S    
C33   C36   S    
O10   C42   S    
C33   O8    A    
C7    C8    A    
C43   H27   S    
C11   C19   A    
C9    H4    S    
C37   C38   S    
C36   C37   S    
C1    O2    A    
C3    H16   S    
C38   H14   S    
C15   C16   A    
C46   C47   S    
C18   O10   S    
C34   C35   S    
C39   H19   S    
C2    C38   S    
O2    Zn2   S    
O1    Zn1   S    
C23   O5    A    
C8    C9    A    
O8    Zn2   S    
C46   H35   S    
C31   N1    A    
C4    C12   S    
C9    C10   A    
C16   H6    S    
C22   H12   S    
C23   O6    A    
O3    Zn1   S    
C45   H33   S    
C21   C22   A    
N2    Zn2   S    
C40   C41   S    
C26   N2    A    
O6    Zn2   S    
C43   H28   S    
C6    C18   A    
C37   F2    S    
C4    C34   S    
C1    C19   S    
O5    Zn1   S    
C27   C31   A    
C5    O11   S    
C24   C25   A    
C40   H21   S    
O9    C39   S    
C5    C18   A    
C20   C28   A    
C25   C26   A    
C2    H15   S    
C17   H2    S    
O7    Zn1   S    
C39   C40   S    
C35   H1    S    
C41   H22   S    
C21   N2    A    
C29   C30   A    
C11   C16   A    
O4    Zn2   S    
C24   F1    S    
C47   H36   S    
C44   H31   S    
C3    C35   S    
C46   H34   S    
C41   H23   S    
C5    C14   A    
C47   H37   S    
C44   H30   S    
C26   C30   A    
C45   C46   S    
C7    C19   A    
C31   H10   S    
C21   O9    S    
C22   C24   A    
C3    C4    S    
C20   C32   A    
C43   C44   S    
C2    C36   S    
C6    C17   A    
C28   C29   A    
C34   H11   S    
C4    C38   S    
C40   H20   S    
C10   C13   A    
C25   C27   A    
C42   C43   S    
C42   H26   S    
C13   C17   A    
C29   H8    S    
C2    C3    S    
C1    O1    A    
C12   O4    A    
C33   O7    A    
N1    Zn1   S    
C6    C23   S    
O11   C45   S    
C7    H3    S    
C39   H18   S    
C41   H24   S    
C20   H9    S    
C10   C11   A    
C12   O3    A    
C47   H38   S    
C44   H29   S    
C42   H25   S    
C27   C28   A    
C14   C15   A    
C13   C14   A    
C32   N1    A    
C15   H17   S    
