data_mof_unit_53679.cif
_audit_creation_date              2012-12-10T18:03:57-0500
_audit_creation_method            fapswitch 2.2
_symmetry_space_group_name_H-M    P1
_symmetry_Int_Tables_number       1
_space_group_crystal_system       triclinic
_cell_length_a                    10.756626
_cell_length_b                    9.522729
_cell_length_c                    10.865392
_cell_angle_alpha                 90.011721
_cell_angle_beta                  90.239248
_cell_angle_gamma                 89.94362
_cell_volume                      1112.95828861

loop_
_atom_site_label
_atom_site_type_symbol
_atom_type_description
_atom_site_fract_x
_atom_site_fract_y
_atom_site_fract_z
_atom_type_partial_charge
C1    C     C_R   0.262419 0.499922 0.502918 0.798443
C2    C     C_R   0.737552 0.499886 0.504808 0.804705
C3    C     C_R   0.409619 0.074470 0.439123 -0.057460
C4    C     C_R   0.590268 0.074257 0.561023 -0.036490
C5    C     C_R   0.409571 0.925712 0.439198 -0.003304
C6    C     C_R   0.590333 0.925511 0.560926 -0.006365
C7    C     C_R   0.499375 0.499876 0.262593 0.815342
C8    C     C_R   0.500288 0.499871 0.737348 0.798700
C9    C     C_R   0.499532 0.621452 0.061869 0.011446
C10   C     C_R   0.501629 0.621393 0.937908 0.007323
C11   C     C_R   0.498639 0.498240 0.129940 -0.090701
C12   C     C_R   0.500143 0.498186 0.869871 -0.092513
C13   C     C_R   0.497939 0.370192 0.064389 -0.218086
C14   C     C_R   0.498205 0.370153 0.935315 -0.220344
C15   C     C_3   0.503754 0.777500 0.928444 0.265925
C16   C     C_3   0.500464 0.777602 0.071196 0.266091
C17   C     C_R   0.066920 0.440538 0.614335 0.131813
C18   C     C_R   0.934988 0.441587 0.615308 0.145162
C19   C     C_R   0.871460 0.499814 0.512623 -0.061171
C20   C     C_R   0.128698 0.499835 0.511649 -0.075038
C21   C     C_R   0.935314 0.561054 0.415210 -0.221856
C22   C     C_R   0.063232 0.561537 0.414947 -0.222508
Cu1   Cu    Cu3+1 0.500000 0.640660 0.500000 0.962413
Cu2   Cu    Cu3+1 0.500000 0.359340 0.500000 0.927712
H1    H     H_    0.497248 0.270463 0.112101 0.154314
H2    H     H_    0.496994 0.270385 0.887562 0.155393
H3    H     H_    0.419517 0.818704 0.880362 0.106566
H4    H     H_    0.585447 0.816647 0.119270 0.105594
H5    H     H_    0.885561 0.606998 0.338089 0.148435
H6    H     H_    0.111701 0.607910 0.337670 0.157276
H7    H     H_    0.337426 0.130430 0.389863 0.123625
H8    H     H_    0.662366 0.129966 0.610419 0.109901
H9    H     H_    0.337299 0.869874 0.390064 0.155536
H10   H     H_    0.662559 0.869509 0.610112 0.154100
N1    N     N_R   0.500000 0.852070 0.500000 -0.165802
N2    N     N_R   0.500000 0.147940 0.500000 -0.155322
O1    O     O_R   0.319640 0.618740 0.499990 -0.587187
O2    O     O_R   0.680360 0.618740 0.500010 -0.586562
O3    O     O_R   0.319620 0.381170 0.499990 -0.583263
O4    O     O_R   0.680380 0.381170 0.500010 -0.591035
O5    O     O_R   0.499990 0.618810 0.319660 -0.561574
O6    O     O_R   0.500010 0.618810 0.680340 -0.565554
O7    O     O_R   0.499960 0.381240 0.319650 -0.589870
O8    O     O_R   0.500040 0.381240 0.680350 -0.593819
O9    O     O_3   0.618588 0.823458 0.880650 -0.574832
C23   C     C_3   0.619901 0.971431 0.877259 -0.374526
H11   H     H_    0.620264 0.016298 0.971689 0.160520
H12   H     H_    0.540272 0.013972 0.823181 0.157689
H13   H     H_    0.706610 0.006105 0.831534 0.186083
O10   O     O_3   0.386506 0.826575 0.118931 -0.570954
C24   C     C_3   0.387931 0.974522 0.122190 -0.371488
H14   H     H_    0.389107 0.019293 0.027736 0.155924
H15   H     H_    0.467902 0.014946 0.176944 0.160425
H16   H     H_    0.301524 0.011477 0.167194 0.188952
C25   C     C_3   0.141761 0.384612 0.723474 -0.399998
C26   C     C_3   0.159246 0.225450 0.716097 -0.802776
H17   H     H_    0.068447 0.170414 0.713944 0.234045
H18   H     H_    0.211691 0.196304 0.632211 0.269882
H19   H     H_    0.212561 0.188713 0.797735 0.233981
H20   H     H_    0.234705 0.434543 0.728834 0.190604
H21   H     H_    0.097627 0.413503 0.811987 0.203965
C27   C     C_3   0.861969 0.393213 0.727775 -0.472992
C28   C     C_3   0.829509 0.517628 0.810344 -0.785198
H22   H     H_    0.915358 0.571751 0.841720 0.247583
H23   H     H_    0.769903 0.593885 0.760113 0.271058
H24   H     H_    0.778312 0.479909 0.892450 0.247395
H25   H     H_    0.775375 0.338414 0.700753 0.211158
H26   H     H_    0.913057 0.314310 0.782930 0.213508

loop_
_geom_bond_atom_site_label_1
_geom_bond_atom_site_label_2
_ccdc_geom_bond_type
C16   H4    S    
C8    O8    A    
Cu1   Cu2   S    
C28   H23   S    
C27   C28   S    
C1    O1    A    
Cu1   O2    S    
C11   C13   A    
C9    C10   A    
C2    O2    A    
C1    O3    A    
C15   H3    S    
Cu1   O5    S    
C26   H19   S    
C27   H26   S    
C8    C12   S    
C24   H16   S    
C6    H10   S    
Cu2   O3    S    
C25   C26   S    
C4    N2    A    
O10   C24   S    
C12   C14   A    
C28   H24   S    
C4    H8    S    
C25   H20   S    
C14   H2    S    
C3    H7    S    
C9    C11   A    
C23   H13   S    
C13   H1    S    
Cu2   N2    S    
Cu1   O6    S    
C10   C12   A    
C3    N2    A    
C25   H21   S    
C21   C22   A    
C19   C21   A    
C9    C16   S    
C16   O10   S    
C17   C18   A    
Cu1   N1    S    
C10   C15   S    
C7    O5    A    
Cu2   O8    S    
C23   H12   S    
C27   H25   S    
C20   C22   A    
C8    O6    A    
C24   H14   S    
C3    C5    A    
C2    O4    A    
C17   C20   A    
C26   H17   S    
C4    C6    A    
C18   C19   A    
C7    C11   S    
C7    O7    A    
Cu2   O7    S    
C17   C25   S    
C23   H11   S    
C18   C27   S    
C1    C20   S    
Cu1   O1    S    
C22   H6    S    
C13   C14   A    
Cu2   O4    S    
C2    C19   S    
O9    C23   S    
C21   H5    S    
C5    N1    A    
C6    N1    A    
C15   C16   S    
C26   H18   S    
C28   H22   S    
C24   H15   S    
C15   O9    S    
C5    H9    S    
