data_mof_unit_8583.cif
_audit_creation_date              2012-12-11T17:01:18-0500
_audit_creation_method            fapswitch 2.2
_symmetry_space_group_name_H-M    P1
_symmetry_Int_Tables_number       1
_space_group_crystal_system       triclinic
_cell_length_a                    19.392504
_cell_length_b                    7.137222
_cell_length_c                    17.587931
_cell_angle_alpha                 89.98176
_cell_angle_beta                  108.481498
_cell_angle_gamma                 90.02333
_cell_volume                      2308.77327645

loop_
_atom_site_label
_atom_site_type_symbol
_atom_type_description
_atom_site_fract_x
_atom_site_fract_y
_atom_site_fract_z
_atom_type_partial_charge
O1    O     O_R   0.413720 0.494330 0.415730 -0.536956
O2    O     O_R   0.586280 0.994330 0.584270 -0.537442
O3    O     O_R   0.560210 0.819300 0.430070 -0.542434
O4    O     O_R   0.439790 0.319300 0.569930 -0.543031
C1    C     C_R   0.581538 0.655472 0.414672 0.715473
C2    C     C_R   0.418764 0.155282 0.585697 0.715760
O5    O     O_R   0.412670 0.823730 0.406310 -0.542500
O6    O     O_R   0.587330 0.323730 0.593690 -0.542343
O7    O     O_R   0.437690 0.998790 0.560340 -0.540142
O8    O     O_R   0.562310 0.498790 0.439660 -0.539724
C3    C     C_R   0.385906 0.654922 0.382909 0.692047
C4    C     C_R   0.614105 0.154930 0.617079 0.692301
O9    O     O_3   0.508380 0.662350 0.550560 -0.377957
O10   O     O_3   0.491620 0.162350 0.449440 -0.377808
V1    V     V_3+5 0.498450 0.935370 0.490620 1.378507
V2    V     V_3+5 0.501550 0.435370 0.509380 1.378425
C5    C     C_R   0.725304 0.981385 0.700710 0.093304
C6    C     C_R   0.274735 0.481304 0.299218 0.094187
C7    C     C_R   0.683521 0.145044 0.684492 -0.100735
C8    C     C_R   0.316507 0.645031 0.315475 -0.101121
C9    C     C_R   0.710785 0.299951 0.733923 -0.201766
C10   C     C_R   0.289251 0.799992 0.266062 -0.202288
H1    H     H_    0.678774 0.424930 0.725719 0.150889
H2    H     H_    0.321271 0.925017 0.274269 0.151239
C11   C     C_R   0.776486 0.289616 0.797861 -0.182139
C12   C     C_R   0.223543 0.789663 0.202129 -0.182029
H3    H     H_    0.793090 0.408938 0.837223 0.137393
H4    H     H_    0.206939 0.909029 0.162781 0.137981
C13   C     C_R   0.817714 0.123122 0.814058 -0.094144
C14   C     C_R   0.182310 0.623119 0.185914 -0.094681
C15   C     C_R   0.791913 0.971854 0.762123 0.067714
C16   C     C_R   0.208127 0.471760 0.237805 0.067955
C17   C     C_3   0.778307 0.776388 0.783167 -0.415163
C18   C     C_3   0.221759 0.276420 0.216705 -0.415500
C19   C     C_3   0.704068 0.789791 0.719410 -0.025397
C20   C     C_3   0.295993 0.289853 0.280475 -0.024470
H5    H     H_    0.777050 0.763159 0.845778 0.176684
H6    H     H_    0.223023 0.263422 0.154090 0.176055
H7    H     H_    0.815485 0.676852 0.767064 0.154428
H8    H     H_    0.184583 0.176711 0.232774 0.154405
H9    H     H_    0.696817 0.692878 0.668032 0.139549
H10   H     H_    0.303244 0.192829 0.331835 0.139449
C21   C     C_R   0.326196 0.988547 0.633602 -0.220485
C22   C     C_R   0.676674 0.801872 0.365075 -0.220509
C23   C     C_R   0.369893 0.147254 0.635674 -0.083792
C24   C     C_R   0.631148 0.648368 0.365579 -0.081640
C25   C     C_R   0.365692 0.300152 0.684650 -0.222438
C26   C     C_R   0.633534 0.489154 0.319287 -0.222680
C27   C     C_R   0.318749 0.295319 0.731124 0.089604
C28   C     C_R   0.680035 0.483676 0.272161 0.091286
C29   C     C_R   0.274375 0.136834 0.727757 0.055028
C30   C     C_R   0.726012 0.637533 0.272704 0.054637
C31   C     C_R   0.278018 0.983136 0.678666 0.090025
C32   C     C_R   0.724570 0.796671 0.319722 0.089594
C33   C     C_R   0.315275 0.446420 0.780842 -0.186946
C34   C     C_R   0.681289 0.327295 0.224272 -0.190260
C35   C     C_R   0.267606 0.441719 0.826163 -0.190754
C36   C     C_R   0.728287 0.322153 0.178133 -0.188167
C37   C     C_R   0.222568 0.285804 0.822591 0.089448
C38   C     C_R   0.774989 0.473138 0.179150 0.089174
C39   C     C_R   0.226196 0.132156 0.773475 0.054937
C40   C     C_R   0.773550 0.632226 0.226192 0.054732
C41   C     C_R   0.181755 0.973786 0.770019 0.088152
C42   C     C_R   0.819564 0.786015 0.226802 0.089340
C43   C     C_R   0.185290 0.822585 0.720375 -0.186413
C44   C     C_R   0.818260 0.942485 0.274623 -0.189859
C45   C     C_R   0.233022 0.827171 0.675136 -0.190277
C46   C     C_R   0.771227 0.947705 0.320702 -0.187586
C47   C     C_R   0.174310 0.280482 0.867571 -0.219831
C48   C     C_R   0.822958 0.467902 0.133860 -0.220263
C49   C     C_R   0.130358 0.122086 0.865244 -0.080865
C50   C     C_R   0.868673 0.621207 0.133567 -0.079725
C51   C     C_R   0.134623 0.969192 0.816267 -0.220563
C52   C     C_R   0.866200 0.780400 0.179856 -0.220635
H11   H     H_    0.328650 0.870498 0.595758 0.126032
H12   H     H_    0.675636 0.924611 0.401020 0.124268
H13   H     H_    0.399353 0.422758 0.687071 0.128680
H14   H     H_    0.598404 0.370727 0.318988 0.126382
H15   H     H_    0.349191 0.568900 0.784371 0.134873
H16   H     H_    0.646147 0.208330 0.222791 0.134357
H17   H     H_    0.265727 0.560633 0.863753 0.132935
H18   H     H_    0.728387 0.199358 0.141948 0.134570
H19   H     H_    0.171946 0.398491 0.905468 0.126356
H20   H     H_    0.823934 0.345220 0.097866 0.125086
H21   H     H_    0.100843 0.846727 0.813602 0.130949
H22   H     H_    0.901376 0.898809 0.180327 0.129855
H23   H     H_    0.151350 0.700139 0.716815 0.135318
H24   H     H_    0.853411 0.061439 0.276116 0.134730
H25   H     H_    0.234927 0.708217 0.637577 0.133165
H26   H     H_    0.771105 0.070535 0.356860 0.134871
O11   O     O_R   0.937800 0.775460 0.060470 -0.537636
O12   O     O_R   0.062200 0.275460 0.939530 -0.537549
O13   O     O_R   0.087350 0.441340 0.093710 -0.538588
O14   O     O_R   0.912650 0.941340 0.906290 -0.538488
C53   C     C_R   0.114765 0.610277 0.116192 0.688971
C54   C     C_R   0.885243 0.110268 0.883799 0.689421
O15   O     O_R   0.939820 0.446010 0.069950 -0.542440
O16   O     O_R   0.060180 0.946010 0.930050 -0.543393
O17   O     O_R   0.913690 0.271230 0.915700 -0.540195
O18   O     O_R   0.086310 0.771230 0.084300 -0.539854
C55   C     C_R   0.918524 0.614180 0.084672 0.702040
C56   C     C_R   0.081182 0.114344 0.914961 0.702499
O19   O     O_3   0.991670 0.603050 0.949510 -0.374024
O20   O     O_3   0.008330 0.103050 0.050490 -0.374221
V3    V     V_3+5 0.001550 0.329940 0.009370 1.391904
V4    V     V_3+5 0.998450 0.829940 0.990630 1.391287
C57   C     C_3   0.641140 0.789334 0.755266 -0.740064
H27   H     H_    0.641909 0.659051 0.789877 0.193796
H28   H     H_    0.645447 0.909567 0.796701 0.213275
H29   H     H_    0.588188 0.797095 0.706853 0.224734
C58   C     C_3   0.358937 0.289709 0.244638 -0.741250
H30   H     H_    0.358242 0.159389 0.210108 0.194438
H31   H     H_    0.354566 0.409894 0.203138 0.213195
H32   H     H_    0.411885 0.297787 0.293048 0.223468

loop_
_geom_bond_atom_site_label_1
_geom_bond_atom_site_label_2
_ccdc_geom_bond_type
C44   C46   A    
C41   C43   A    
C2    C23   S    
C20   H10   S    
C58   H30   S    
O1    C3    A    
O2    C4    A    
C2    O7    A    
O20   V4    S    
C25   C27   A    
O5    C3    A    
C17   H7    S    
C18   H8    S    
C57   H29   S    
C7    C9    A    
C36   H18   S    
C44   H24   S    
C17   C19   S    
C35   C37   A    
C32   C46   A    
C50   C55   S    
C36   C38   A    
C54   O17   A    
C45   H25   S    
C38   C40   A    
C26   H14   S    
C47   C49   A    
C40   C42   A    
O13   V3    S    
C21   C31   A    
C22   C24   A    
C27   C29   A    
C29   C39   A    
C46   H26   S    
C57   H27   S    
C15   C17   S    
C58   H32   S    
C48   H20   S    
C18   C20   S    
O12   C56   A    
O15   V3    S    
O5    V1    S    
O6    V2    S    
C21   H11   S    
C57   H28   S    
O11   V4    S    
O11   C55   A    
C19   H9    S    
O20   V3    S    
C30   C32   A    
C43   H23   S    
C23   C25   A    
C11   C13   A    
O17   V3    S    
C24   C26   A    
C3    C8    S    
C37   C39   A    
C50   C52   A    
C49   C51   A    
C53   O18   A    
C41   C51   A    
C43   C45   A    
O16   C56   A    
C28   C34   A    
C29   C31   A    
C42   C44   A    
O4    V2    S    
C14   C53   S    
C47   H19   S    
C33   H15   S    
C28   C30   A    
C38   C48   A    
O6    C4    A    
C27   C33   A    
C20   C58   S    
C39   C41   A    
C58   H31   S    
O1    V2    S    
C52   H22   S    
O14   C54   A    
O2    V1    S    
C21   C23   A    
C51   H21   S    
C37   C47   A    
O4    C2    A    
C49   C56   S    
C8    C10   A    
C12   C14   A    
C33   C35   A    
C5    C15   A    
O19   V3    S    
C10   H2    S    
C6    C16   A    
C25   H13   S    
O3    V1    S    
C9    C11   A    
O14   V4    S    
C18   H6    S    
O18   V4    S    
O3    C1    A    
C34   H16   S    
C13   C54   S    
C48   C50   A    
C11   H3    S    
C1    C24   S    
C12   H4    S    
O16   V4    S    
C9    H1    S    
O7    V1    S    
C1    O8    A    
C13   C15   A    
C30   C40   A    
C14   C16   A    
C4    C7    S    
C26   C28   A    
C5    C7    A    
C34   C36   A    
O19   V4    S    
C6    C8    A    
C31   C45   A    
C35   H17   S    
C17   H5    S    
C19   C57   S    
C22   C32   A    
O12   V3    S    
O13   C53   A    
C10   C12   A    
O9    V2    S    
C42   C52   A    
O10   V1    S    
O8    V2    S    
C5    C19   S    
C22   H12   S    
C6    C20   S    
O15   C55   A    
C16   C18   S    
