data_mof_unit_7299.cif
_audit_creation_date              2012-12-11T16:48:36-0500
_audit_creation_method            fapswitch 2.2
_symmetry_space_group_name_H-M    P1
_symmetry_Int_Tables_number       1
_space_group_crystal_system       triclinic
_cell_length_a                    17.325815
_cell_length_b                    24.469879
_cell_length_c                    14.767204
_cell_angle_alpha                 89.170657
_cell_angle_beta                  124.984269
_cell_angle_gamma                 90.563827
_cell_volume                      5128.91485129

loop_
_atom_site_label
_atom_site_type_symbol
_atom_type_description
_atom_site_fract_x
_atom_site_fract_y
_atom_site_fract_z
_atom_type_partial_charge
C1    C     C_R   0.318832 0.366694 0.909718 -0.152781
C2    C     C_R   0.687795 0.376316 0.090137 -0.148940
C3    C     C_R   0.811281 0.876135 0.910437 -0.145842
C4    C     C_R   0.175628 0.861954 0.090010 -0.157539
C5    C     C_R   0.390502 0.684915 0.998816 0.064323
C6    C     C_R   0.613642 0.685101 0.996840 0.048535
C7    C     C_R   0.870061 0.177793 0.998722 0.087610
C8    C     C_R   0.105846 0.185979 0.997726 0.064769
C9    C     C_R   0.455655 0.500405 0.284053 0.115151
C10   C     C_R   0.429606 0.499798 0.629114 0.115415
C11   C     C_R   0.072831 0.998372 0.371932 0.124571
C12   C     C_R   0.043741 0.001364 0.714975 0.120478
C13   C     C_R   0.203110 0.499749 0.631097 -0.048267
C14   C     C_R   0.819558 0.499094 0.337032 -0.090306
C15   C     C_R   0.705209 0.001765 0.630239 -0.030204
C16   C     C_R   0.317874 0.998578 0.341063 -0.079865
C17   C     C_2   0.968455 0.460677 0.398949 -0.141068
C18   C     C_2   0.069430 0.454667 0.477065 -0.189029
C19   C     C_2   0.470478 0.978633 0.389703 -0.118393
C20   C     C_2   0.567512 0.964007 0.471009 -0.158807
C21   C     C_2   0.920585 0.496918 0.416755 0.557702
C22   C     C_2   0.124154 0.499200 0.514072 0.581540
C23   C     C_2   0.418043 0.995515 0.423696 0.496561
C24   C     C_2   0.630648 0.004057 0.511854 0.524725
C25   C     C_R   0.394043 0.773463 0.088559 0.054190
C26   C     C_R   0.597297 0.777626 0.902353 0.065217
C27   C     C_R   0.823804 0.235576 0.088194 0.123103
C28   C     C_R   0.097543 0.277380 0.906907 0.056221
C29   C     C_R   0.366509 0.742445 0.995148 0.040314
C30   C     C_R   0.631467 0.744601 0.997321 0.046307
C31   C     C_R   0.837185 0.229427 0.004797 0.072291
C32   C     C_R   0.125083 0.244746 0.000078 0.041045
C33   C     C_R   0.288454 0.761747 0.893657 -0.376368
C34   C     C_R   0.698458 0.769676 0.099084 -0.377825
C35   C     C_R   0.815965 0.271828 0.929266 -0.400847
C36   C     C_R   0.199851 0.265014 0.102029 -0.368306
C37   C     C_R   0.769682 0.318535 0.929709 0.537419
C38   C     C_R   0.270174 0.296238 0.106531 0.521709
C39   C     C_R   0.218116 0.791004 0.891188 0.525719
C40   C     C_R   0.750189 0.815952 0.103650 0.516518
C41   C     C_R   0.746877 0.320738 0.006997 -0.060844
C42   C     C_R   0.252097 0.319422 0.007224 -0.033635
C43   C     C_R   0.237857 0.812902 0.991165 -0.035225
C44   C     C_R   0.735757 0.836052 0.004434 -0.007335
C45   C     C_R   0.451745 0.652902 0.089669 0.542510
C46   C     C_R   0.551609 0.652571 0.907828 0.558385
C47   C     C_R   0.938735 0.149429 0.089916 0.463232
C48   C     C_R   0.046724 0.153376 0.908179 0.535871
C49   C     C_R   0.779751 0.280870 0.090204 -0.098738
C50   C     C_R   0.158839 0.316117 0.912926 -0.057742
C51   C     C_R   0.331680 0.810002 0.083778 -0.057601
C52   C     C_R   0.649927 0.821514 0.906638 -0.072125
C53   C     C_3   0.725815 0.248209 0.124737 -0.023815
C54   C     C_3   0.111875 0.317797 0.790570 -0.106170
C55   C     C_3   0.379069 0.809525 0.205780 -0.071345
C56   C     C_3   0.605870 0.822568 0.785145 -0.133453
C57   C     C_3   0.448031 0.767874 0.212953 0.752737
C58   C     C_3   0.544154 0.774705 0.777793 0.760119
C59   C     C_3   0.775759 0.197504 0.122272 0.622395
C60   C     C_3   0.044371 0.273832 0.782755 0.751677
C61   C     C_R   0.392959 0.448356 0.469936 0.039656
C62   C     C_R   0.405185 0.449412 0.384571 -0.024285
C63   C     C_R   0.093798 0.949610 0.617170 -0.024653
C64   C     C_R   0.107414 0.947275 0.533049 0.046038
C65   C     C_R   0.383958 0.497621 0.509216 -0.083078
C66   C     C_R   0.405599 0.499110 0.337475 -0.006505
C67   C     C_R   0.093134 0.999847 0.660532 -0.009857
C68   C     C_R   0.119168 0.995893 0.492107 -0.084406
C69   C     C_R   0.353320 0.544498 0.439408 0.255146
C70   C     C_R   0.363613 0.545153 0.350556 0.213238
C71   C     C_R   0.136150 0.045392 0.645105 0.219206
C72   C     C_R   0.149920 0.043080 0.559032 0.247460
C73   C     C_3   0.334140 0.404871 0.323563 0.037562
C74   C     C_3   0.316746 0.405670 0.412489 0.055203
C75   C     C_3   0.181812 0.903852 0.594175 0.055742
C76   C     C_3   0.163021 0.904571 0.682008 0.037133
C77   C     C_R   0.487395 0.454636 0.259454 -0.123509
C78   C     C_R   0.448700 0.454435 0.695199 -0.110253
C79   C     C_R   0.053092 0.953607 0.306133 -0.113240
C80   C     C_R   0.012006 0.955265 0.740698 -0.128317
C81   C     C_R   0.247542 0.545175 0.695666 -0.068626
C82   C     C_R   0.765673 0.545305 0.285683 -0.085756
C83   C     C_R   0.748887 0.046218 0.696469 -0.063809
C84   C     C_R   0.264905 0.044990 0.288749 -0.104324
C85   C     C_R   0.484947 0.545771 0.254443 -0.184413
C86   C     C_R   0.452798 0.545020 0.695668 -0.147817
C87   C     C_R   0.049011 0.044066 0.304718 -0.157535
C88   C     C_R   0.015284 0.046413 0.744969 -0.190700
C89   C     C_R   0.249196 0.454209 0.696111 -0.174877
C90   C     C_R   0.763023 0.453751 0.289893 -0.158107
C91   C     C_R   0.749487 0.955351 0.693949 -0.170422
C92   C     C_R   0.262602 0.953245 0.289687 -0.160553
C93   C     C_R   0.353725 0.651348 0.907565 -0.247156
C94   C     C_R   0.648088 0.651577 0.089820 -0.236391
C95   C     C_R   0.842787 0.148328 0.906248 -0.176471
C96   C     C_R   0.143773 0.152018 0.090236 -0.256545
C97   C     C_R   0.414894 0.362030 0.093413 -0.113681
C98   C     C_R   0.594599 0.372734 0.905901 -0.096514
C99   C     C_R   0.903407 0.874775 0.094570 -0.094486
C100  C     C_R   0.080219 0.859800 0.906469 -0.112702
C101  C     C_R   0.326480 0.346208 0.003046 0.127885
C102  C     C_R   0.682853 0.359970 0.998788 0.159563
C103  C     C_R   0.812606 0.862461 0.003329 0.114932
C104  C     C_R   0.165774 0.840796 0.996581 0.130195
H1    H     H_    0.263924 0.361563 0.824071 0.115024
H2    H     H_    0.746865 0.370803 0.174337 0.124899
H3    H     H_    0.754214 0.873993 0.825120 0.118900
H4    H     H_    0.227108 0.852349 0.175255 0.111804
H5    H     H_    0.271790 0.745481 0.816835 0.142462
H6    H     H_    0.717788 0.751003 0.176088 0.147653
H7    H     H_    0.830504 0.267248 0.867511 0.154817
H8    H     H_    0.215106 0.247999 0.178458 0.144278
H9    H     H_    0.648584 0.248173 0.059514 0.154020
H10   H     H_    0.155892 0.301330 0.764741 0.143896
H11   H     H_    0.335225 0.791275 0.231292 0.142301
H12   H     H_    0.653810 0.808992 0.762740 0.147075
H13   H     H_    0.369583 0.367480 0.324043 0.196188
H14   H     H_    0.246213 0.421453 0.384866 0.158690
H15   H     H_    0.253270 0.918513 0.622059 0.157811
H16   H     H_    0.126306 0.867747 0.683705 0.192389
H17   H     H_    0.484231 0.413377 0.282669 0.107073
H18   H     H_    0.429038 0.412893 0.668050 0.109349
H19   H     H_    0.073769 0.912036 0.334453 0.110317
H20   H     H_    0.015119 0.914087 0.719069 0.105143
H21   H     H_    0.236839 0.587401 0.668655 0.079510
H22   H     H_    0.786636 0.587575 0.306293 0.103650
H23   H     H_    0.739626 0.088621 0.670700 0.087925
H24   H     H_    0.285534 0.087128 0.311625 0.108142
H25   H     H_    0.477681 0.588233 0.266684 0.158079
H26   H     H_    0.442610 0.587178 0.669727 0.144210
H27   H     H_    0.060841 0.085915 0.330721 0.136530
H28   H     H_    0.023042 0.089058 0.732340 0.156172
H29   H     H_    0.241989 0.412742 0.667923 0.092100
H30   H     H_    0.780944 0.412167 0.320482 0.094857
H31   H     H_    0.741058 0.914300 0.663232 0.095042
H32   H     H_    0.280726 0.911170 0.316399 0.105016
H33   H     H_    0.313315 0.663288 0.821496 0.138077
H34   H     H_    0.687640 0.664381 0.174830 0.144447
H35   H     H_    0.798439 0.161745 0.820876 0.136435
H36   H     H_    0.182401 0.163932 0.175672 0.133717
H37   H     H_    0.452551 0.348469 0.177487 0.174123
H38   H     H_    0.565821 0.363621 0.820685 0.130991
H39   H     H_    0.932399 0.869921 0.180959 0.171799
H40   H     H_    0.040878 0.847079 0.822266 0.172838
H41   H     H_    0.932229 0.432180 0.330724 0.087809
H42   H     H_    0.092257 0.415808 0.520877 0.079146
H43   H     H_    0.441772 0.975566 0.302521 0.121675
H44   H     H_    0.578737 0.927507 0.519983 0.095096
N1    N     N_R   0.395410 0.396350 0.944340 -0.043048
N2    N     N_R   0.604590 0.396350 0.055660 -0.047788
N3    N     N_R   0.895410 0.896350 0.944340 -0.043501
N4    N     N_R   0.104590 0.896350 0.055660 -0.042016
N5    N     N_R   0.449930 0.602500 0.055880 -0.112013
N6    N     N_R   0.550070 0.602500 0.944120 -0.110772
N7    N     N_R   0.949930 0.102500 0.055880 -0.100122
N8    N     N_R   0.050070 0.102500 0.944120 -0.112124
N9    N     N_R   0.525080 0.471030 0.205650 -0.041188
N10   N     N_R   0.474920 0.471030 0.794350 -0.040678
N11   N     N_R   0.025080 0.971030 0.205650 -0.044783
N12   N     N_R   0.974920 0.971030 0.794350 -0.041349
N13   N     N_R   0.320260 0.527820 0.794570 -0.037590
N14   N     N_R   0.679740 0.527820 0.205430 -0.034683
N15   N     N_R   0.820260 0.027820 0.794570 -0.038474
N16   N     N_R   0.179740 0.027820 0.205430 -0.033242
N17   N     N_R   0.524590 0.527840 0.205200 -0.051682
N18   N     N_R   0.475410 0.527840 0.794800 -0.051280
N19   N     N_R   0.024590 0.027840 0.205200 -0.047316
N20   N     N_R   0.975410 0.027840 0.794800 -0.053908
N21   N     N_R   0.320750 0.471000 0.795020 -0.028728
N22   N     N_R   0.679250 0.471000 0.204980 -0.026753
N23   N     N_R   0.820750 0.971000 0.795020 -0.030159
N24   N     N_R   0.179250 0.971000 0.204980 -0.029255
N25   N     N_R   0.393620 0.602490 0.942710 -0.071884
N26   N     N_R   0.606380 0.602490 0.057290 -0.070303
N27   N     N_R   0.893620 0.102490 0.942710 -0.071476
N28   N     N_R   0.106380 0.102490 0.057290 -0.068860
N29   N     N_R   0.451720 0.396350 0.057510 -0.055145
N30   N     N_R   0.548280 0.396350 0.942490 -0.055062
N31   N     N_R   0.951720 0.896350 0.057510 -0.056596
N32   N     N_R   0.048280 0.896350 0.942490 -0.053650
Ni1   Ni    Ni4+2 0.435420 0.434270 0.870230 0.209915
Ni2   Ni    Ni4+2 0.564580 0.434270 0.129770 0.217173
Ni3   Ni    Ni4+2 0.935420 0.934270 0.870230 0.215830
Ni4   Ni    Ni4+2 0.064580 0.934270 0.129770 0.213421
Ni5   Ni    Ni4+2 0.563430 0.564580 0.128740 0.209864
Ni6   Ni    Ni4+2 0.436570 0.564580 0.871260 0.204272
Ni7   Ni    Ni4+2 0.063430 0.064580 0.128740 0.202063
Ni8   Ni    Ni4+2 0.936570 0.064580 0.871260 0.208455
O1    O     O_3   0.966005 0.530931 0.507441 -0.727938
H45   H     H_    0.917802 0.552961 0.506479 0.309450
O2    O     O_3   0.093635 0.546090 0.448859 -0.721506
H46   H     H_    0.142602 0.574624 0.486648 0.302768
O3    O     O_3   0.456623 0.003109 0.534540 -0.744872
H47   H     H_    0.404952 0.013513 0.541330 0.316240
O4    O     O_3   0.612735 0.051075 0.449447 -0.742067
H48   H     H_    0.670388 0.073901 0.487688 0.304094
O5    O     O_3   0.741789 0.360239 0.853016 -0.760247
H49   H     H_    0.762858 0.351656 0.804963 0.316913
O6    O     O_3   0.358723 0.298159 0.204093 -0.813987
H50   H     H_    0.360512 0.276090 0.262149 0.314720
O7    O     O_3   0.128402 0.792372 0.795146 -0.812138
H51   H     H_    0.126351 0.772521 0.735708 0.315044
O8    O     O_3   0.817463 0.839253 0.203705 -0.785273
H52   H     H_    0.817559 0.820333 0.263606 0.317540
C105  C     C_3   0.748981 0.263301 0.238635 -0.991095
H53   H     H_    0.703240 0.297153 0.230223 0.251484
H54   H     H_    0.733424 0.228259 0.274298 0.263617
H55   H     H_    0.823941 0.275538 0.296709 0.259793
C106  C     C_3   0.069306 0.374233 0.739527 -0.935687
H56   H     H_    0.031146 0.391362 0.772571 0.267955
H57   H     H_    0.125405 0.403796 0.758444 0.262314
H58   H     H_    0.020500 0.370986 0.648283 0.248855
C107  C     C_3   0.419489 0.865692 0.255750 -1.019597
H59   H     H_    0.361482 0.894789 0.227647 0.258867
H60   H     H_    0.462109 0.862426 0.347236 0.254238
H61   H     H_    0.462990 0.883120 0.229211 0.275201
C108  C     C_3   0.556466 0.877193 0.730229 -0.898267
H62   H     H_    0.514179 0.891732 0.759872 0.263594
H63   H     H_    0.609076 0.909394 0.749448 0.265398
H64   H     H_    0.510184 0.872604 0.639085 0.248908
C109  C     C_3   0.552473 0.786021 0.276515 -0.947286
H65   H     H_    0.561297 0.820818 0.234079 0.226267
H66   H     H_    0.578537 0.798173 0.361730 0.226268
H67   H     H_    0.598912 0.752968 0.284361 0.289772
C110  C     C_3   0.437513 0.787149 0.714636 -0.963680
H68   H     H_    0.424596 0.820542 0.754521 0.225973
H69   H     H_    0.408423 0.799213 0.627943 0.228395
H70   H     H_    0.396444 0.751492 0.711158 0.288205
C111  C     C_3   0.844602 0.166985 0.232184 -0.910196
H71   H     H_    0.902225 0.194218 0.294056 0.247081
H72   H     H_    0.806300 0.150266 0.266207 0.229405
H73   H     H_    0.876196 0.131755 0.218278 0.260103
C112  C     C_3   0.939431 0.289948 0.719882 -0.964629
H74   H     H_    0.930054 0.325635 0.758241 0.223239
H75   H     H_    0.910714 0.299992 0.632422 0.231955
H76   H     H_    0.896345 0.256361 0.719882 0.288435
O9    O     O_3   0.435570 0.716732 0.247310 -0.757805
H77   H     H_    0.462961 0.719712 0.327327 0.307129
O10   O     O_3   0.563701 0.726861 0.743059 -0.730194
H78   H     H_    0.536568 0.732107 0.663345 0.309088
O11   O     O_3   0.713331 0.161833 0.036726 -0.764885
H79   H     H_    0.672834 0.145502 0.057566 0.324041
O12   O     O_3   0.058758 0.224074 0.748297 -0.747384
H80   H     H_    0.031993 0.228471 0.668516 0.309074
C113  C     C_3   0.306716 0.591558 0.455631 -0.987566
H81   H     H_    0.236107 0.599598 0.378866 0.263519
H82   H     H_    0.293573 0.582143 0.519234 0.229143
H83   H     H_    0.350858 0.628907 0.478773 0.258271
C114  C     C_3   0.325312 0.592353 0.268841 -0.937793
H84   H     H_    0.251599 0.601224 0.238767 0.251905
H85   H     H_    0.369155 0.629326 0.308555 0.268789
H86   H     H_    0.321167 0.582742 0.193088 0.247886
C115  C     C_3   0.171200 0.093988 0.721189 -0.941877
H87   H     H_    0.243634 0.105362 0.748991 0.252576
H88   H     H_    0.123817 0.129456 0.677916 0.264205
H89   H     H_    0.177539 0.084565 0.798793 0.246801
C116  C     C_3   0.200743 0.088530 0.542756 -0.998507
H90   H     H_    0.271322 0.095247 0.620263 0.256739
H91   H     H_    0.214501 0.078034 0.480391 0.241795
H92   H     H_    0.159300 0.126898 0.517780 0.260689
C117  C     C_3   0.247931 0.420552 0.208180 -0.930062
H93   H     H_    0.215608 0.459176 0.209930 0.254366
H94   H     H_    0.269209 0.425735 0.150512 0.258473
H95   H     H_    0.194541 0.387427 0.176944 0.256130
C118  C     C_3   0.340873 0.351415 0.476132 -1.021830
H96   H     H_    0.416776 0.341326 0.519656 0.263391
H97   H     H_    0.322916 0.353547 0.537011 0.247065
H98   H     H_    0.298148 0.318076 0.417725 0.264286
C119  C     C_3   0.156049 0.849360 0.533526 -1.013106
H99   H     H_    0.080035 0.839707 0.491437 0.265755
H100  H     H_    0.173039 0.850857 0.471662 0.250268
H101  H     H_    0.198511 0.816089 0.593647 0.261346
C120  C     C_3   0.249007 0.920326 0.796852 -0.951042
H102  H     H_    0.282530 0.958487 0.793267 0.255129
H103  H     H_    0.227138 0.926370 0.853492 0.260428
H104  H     H_    0.301596 0.886826 0.830626 0.254668
O13   O     O_3   0.529627 0.672877 0.185067 -0.768048
H105  H     H_    0.570900 0.641601 0.228916 0.302718
O14   O     O_3   0.477064 0.672691 0.809261 -0.765030
H106  H     H_    0.428261 0.643859 0.773851 0.291745
O15   O     O_3   0.004918 0.173118 0.189510 -0.786129
H107  H     H_    0.061936 0.149975 0.225768 0.302443
O16   O     O_3   0.968891 0.172654 0.810949 -0.765928
H108  H     H_    0.928489 0.140997 0.768740 0.300746

loop_
_geom_bond_atom_site_label_1
_geom_bond_atom_site_label_2
_ccdc_geom_bond_type
C96   H36   S    
C2    N2    A    
C99   C103  A    
O8    H52   S    
C55   C107  S    
C113  H82   S    
C84   H24   S    
C93   N25   A    
N20   Ni8   S    
C29   C33   A    
C15   C91   A    
C73   C74   S    
C19   C23   D    
C19   C20   S    
C8    C96   A    
C16   C84   A    
C110  H69   S    
N16   Ni7   S    
C106  H58   S    
C25   C51   A    
C53   C59   S    
N2    Ni2   S    
C54   C60   S    
C107  H59   S    
C108  H64   S    
N6    Ni6   S    
C88   N20   A    
C114  H84   S    
C50   C54   S    
C47   N7    A    
C34   C40   A    
C64   C68   A    
C14   C21   S    
C99   H39   S    
C35   C37   A    
C7    C31   S    
C38   C42   A    
C109  H67   S    
N26   Ni5   S    
C79   N11   A    
C117  H93   S    
C90   H30   S    
C74   C118  S    
C65   C69   A    
C80   N12   A    
C46   O14   S    
C63   C76   S    
C2    C102  A    
C3    C103  A    
O12   H80   S    
C15   C83   A    
C13   C81   A    
C100  C104  A    
C110  H70   S    
C41   C102  S    
C25   C29   A    
C116  H90   S    
O7    H51   S    
C87   H27   S    
C95   N27   A    
C43   C104  S    
C14   C90   A    
C83   N15   A    
C47   O15   S    
C9    C85   A    
N27   Ni8   S    
C9    C66   S    
C52   C56   S    
C97   N29   A    
C48   O16   S    
C54   C106  S    
C71   C115  S    
O10   H78   S    
C11   C87   A    
C6    C94   A    
C86   N18   A    
C36   H8    S    
C53   C105  S    
O14   H106  S    
C20   H44   S    
C62   C73   S    
C1    N1    A    
C105  H53   S    
C37   O5    S    
N11   Ni4   S    
N4    Ni4   S    
N15   N23   A    
C112  H74   S    
N12   Ni3   S    
C51   C55   S    
C84   N16   A    
N32   Ni3   S    
C6    C46   A    
N2    N30   A    
C73   H13   S    
C85   H25   S    
C44   C52   A    
C28   C60   S    
C48   N8    A    
C72   C116  S    
C18   C22   D    
C119  H99   S    
N22   Ni2   S    
N1    Ni1   S    
C108  H63   S    
C23   O3    S    
C61   C62   A    
C45   N5    A    
C25   C57   S    
C74   H14   S    
C41   C49   A    
C56   C108  S    
C118  H98   S    
C44   C103  S    
C73   C117  S    
C17   C18   S    
C5    C29   S    
N8    Ni8   S    
C10   C78   A    
C46   N6    A    
C12   C67   S    
C87   N19   A    
N25   Ni6   S    
C114  H85   S    
C89   H29   S    
C30   C34   A    
C27   C31   A    
O2    H46   S    
C8    C32   S    
C20   C24   D    
C28   C32   A    
C111  H73   S    
C77   H17   S    
C106  H56   S    
C100  H40   S    
N9    N17   A    
C117  H94   S    
C113  H81   S    
C62   C66   A    
C86   H26   S    
N23   Ni3   S    
C57   C109  S    
C82   N14   A    
C24   O4    S    
C3    H3    S    
O15   H107  S    
C98   C102  A    
C56   C58   S    
C5    C45   A    
C2    H2    S    
C19   H43   S    
C63   C64   A    
C82   H22   S    
C17   C21   D    
N15   Ni8   S    
C116  H91   S    
C7    C47   A    
N4    N32   A    
C17   H41   S    
C75   C76   S    
C8    C48   A    
C63   C67   A    
C99   N31   A    
C109  H65   S    
C97   H37   S    
C106  H57   S    
C26   C52   A    
C117  H95   S    
C33   C39   A    
C112  H76   S    
N24   Ni4   S    
C53   H9    S    
C21   O1    S    
C120  H104  S    
N14   N22   A    
C40   O8    S    
N5    N25   A    
C68   C72   A    
C12   C88   A    
N19   Ni7   S    
C90   N22   A    
N1    N29   A    
C110  H68   S    
C56   H12   S    
C75   H15   S    
C76   H16   S    
C92   H32   S    
C4    N4    A    
C26   C58   S    
C70   C114  S    
N21   Ni1   S    
C58   C110  S    
C11   C79   A    
C94   N26   A    
C57   O9    S    
C69   C113  S    
C15   C24   S    
C6    C30   S    
C42   C50   A    
C26   C30   A    
C16   C23   S    
C45   O13   S    
C119  H100  S    
C119  H101  S    
N3    N31   A    
C94   H34   S    
O13   H105  S    
C31   C35   A    
N16   N24   A    
C16   C92   A    
C98   N30   A    
N9    Ni2   S    
C14   C82   A    
C40   C44   A    
C58   O10   S    
C100  N32   A    
C42   C101  S    
C1    C101  A    
C35   H7    S    
C11   C68   S    
N10   N18   A    
N28   Ni7   S    
C115  H88   S    
N29   Ni2   S    
C118  H96   S    
C10   C65   S    
N7    N27   A    
O1    H45   S    
C107  H61   S    
C10   C86   A    
C60   O12   S    
C96   N28   A    
C81   H21   S    
N18   Ni6   S    
C95   H35   S    
C78   N10   A    
C79   H19   S    
C60   C112  S    
C83   H23   S    
C18   H42   S    
N8    N28   A    
C54   H10   S    
N14   Ni5   S    
C5    C93   A    
C7    C95   A    
C32   C36   A    
N3    Ni3   S    
C80   H20   S    
O5    H49   S    
C61   C74   S    
C13   C89   A    
C75   C119  S    
C66   C70   A    
C3    N3    A    
C111  H71   S    
C1    H1    S    
C91   N23   A    
C59   O11   S    
C116  H92   S    
C85   N17   A    
C28   C50   A    
C115  H89   S    
C55   C57   S    
C9    C77   A    
C107  H60   S    
N13   N21   A    
C71   C72   A    
C109  H66   S    
C118  H97   S    
N7    Ni7   S    
C81   N13   A    
C55   H11   S    
C43   C51   A    
C115  H87   S    
N5    Ni5   S    
C92   N24   A    
O11   H79   S    
C49   C53   S    
C12   C80   A    
C108  H62   S    
C36   C38   A    
C120  H103  S    
C64   C75   S    
N11   N19   A    
C13   C22   S    
C4    C104  A    
C33   H5    S    
C67   C71   A    
N12   N20   A    
C39   O7    S    
C37   C41   A    
C69   C70   A    
C78   H18   S    
N10   Ni1   S    
C97   C101  A    
C114  H86   S    
N30   Ni1   S    
C93   H33   S    
C76   C120  S    
C89   N21   A    
O4    H48   S    
N17   Ni5   S    
N31   Ni4   S    
C61   C65   A    
O6    H50   S    
N6    N26   A    
C91   H31   S    
C39   C43   A    
C111  H72   S    
O3    H47   S    
C113  H83   S    
C112  H75   S    
O16   H108  S    
C88   H28   S    
C38   O6    S    
C27   C59   S    
C105  H55   S    
C4    H4    S    
C34   H6    S    
C22   O2    S    
O9    H77   S    
C105  H54   S    
C98   H38   S    
C27   C49   A    
C120  H102  S    
C77   N9    A    
N13   Ni6   S    
C59   C111  S    
