data_mof_unit_29067.cif
_audit_creation_date              2012-10-26T19:15:58-0400
_audit_creation_method            fapswitch 2.2
_symmetry_space_group_name_H-M    P1
_symmetry_Int_Tables_number       1
_space_group_crystal_system       triclinic
_cell_length_a                    7.804267
_cell_length_b                    9.095081
_cell_length_c                    17.084555
_cell_angle_alpha                 89.59176
_cell_angle_beta                  93.657062
_cell_angle_gamma                 90.006747
_cell_volume                      1210.16909228

loop_
_atom_site_label
_atom_site_type_symbol
_atom_type_description
_atom_site_fract_x
_atom_site_fract_y
_atom_site_fract_z
_atom_type_partial_charge
C1    C     C_R   0.499975 0.220099 0.499999 0.559668
C2    C     C_R   0.616331 0.547040 0.141800 0.277418
C3    C     C_R   0.541153 0.461510 0.902884 0.215857
C4    C     C_R   0.458848 0.538490 0.097116 0.215858
C5    C     C_R   0.694039 0.471102 0.865221 -0.097349
C6    C     C_R   0.305961 0.528898 0.134779 -0.097349
C7    C     C_R   0.692924 0.477806 0.783423 0.021651
C8    C     C_R   0.307076 0.522193 0.216577 0.021652
C9    C     C_1   0.499987 0.065387 0.500001 -0.013628
C10   C     C_1   0.500013 0.934613 0.499999 -0.013628
C11   C     C_2   0.859912 0.478054 0.747792 0.635297
C12   C     C_R   0.500025 0.779901 0.500001 0.559668
C13   C     C_2   0.140089 0.521947 0.252208 0.635296
C14   C     C_R   0.521411 0.493311 0.651607 0.554978
C15   C     C_R   0.478589 0.506689 0.348393 0.554978
C16   C     C_R   0.533792 0.479394 0.738233 -0.063992
C17   C     C_R   0.466208 0.520605 0.261767 -0.063991
C18   C     C_R   0.381231 0.464931 0.776911 -0.110356
C19   C     C_R   0.618769 0.535068 0.223088 -0.110357
C20   C     C_R   0.383670 0.452959 0.858199 0.277419
Cl1   Cl    Cl    0.811361 0.581204 0.098425 -0.508244
Cl2   Cl    Cl    0.188640 0.418794 0.901575 -0.508243
Cu1   Cu    Cu3+1 0.669080 0.500010 0.500000 1.083824
Cu2   Cu    Cu3+1 0.330920 0.499990 0.500000 1.083823
H1    H     H_    0.740864 0.539421 0.256204 0.189787
H2    H     H_    0.259136 0.460577 0.743796 0.189787
H3    H     H_    0.814788 0.472620 0.900211 0.222716
H4    H     H_    0.185213 0.527381 0.099789 0.222715
H5    H     H_    0.017394 0.373912 0.676824 0.333753
H6    H     H_    0.982607 0.626093 0.323174 0.333753
N1    N     N_1   0.076820 0.499970 0.500010 -0.073579
N2    N     N_1   0.923180 0.500030 0.499990 -0.073578
N3    N     N_2   0.551005 0.456684 0.985630 -0.133784
N4    N     N_2   0.448996 0.543316 0.014370 -0.133785
O1    O     O_R   0.642760 0.288400 0.500000 -0.484001
O2    O     O_R   0.905106 0.358556 0.702319 -0.651477
O3    O     O_2   0.042252 0.418050 0.241576 -0.475479
O4    O     O_R   0.094895 0.641447 0.297679 -0.651477
O5    O     O_R   0.357240 0.711600 0.500000 -0.484001
O6    O     O_R   0.357190 0.288380 0.500000 -0.498418
O7    O     O_R   0.642810 0.711620 0.500000 -0.498418
O8    O     O_R   0.658410 0.498660 0.613920 -0.466122
O9    O     O_R   0.341590 0.501340 0.386080 -0.466123
O10   O     O_R   0.372840 0.498650 0.613930 -0.518518
O11   O     O_R   0.627160 0.501350 0.386070 -0.518518
O12   O     O_2   0.957750 0.581948 0.758426 -0.475479

loop_
_geom_bond_atom_site_label_1
_geom_bond_atom_site_label_2
_ccdc_geom_bond_type
C2    C4    A    
Cu1   Cu2   S    
C15   C17   S    
C8    C13   S    
Cu1   O11   S    
C9    C10   T    
C13   O3    D    
N1    N2    T    
C18   H2    S    
C14   O8    A    
Cu1   N2    S    
C2    Cl1   S    
N3    N4    D    
Cu2   N1    S    
C15   O9    A    
C3    C20   A    
C16   C18   A    
C7    C11   S    
H5    O2    S    
H6    O4    S    
C13   O4    S    
C12   O7    A    
Cu1   O8    S    
C10   C12   S    
C12   O5    A    
Cu2   O10   S    
C4    C6    A    
C11   O2    S    
Cu2   O6    S    
C20   Cl2   S    
C18   C20   A    
C4    N4    S    
C19   H1    S    
Cu1   O1    S    
C14   C16   S    
C3    N3    S    
Cu2   O5    S    
C1    C9    S    
C1    O1    A    
C14   O10   A    
C5    C7    A    
Cu2   O9    S    
C15   O11   A    
C7    C16   A    
C11   O12   D    
C6    C8    A    
C1    O6    A    
C17   C19   A    
C2    C19   A    
C5    H3    S    
C6    H4    S    
C8    C17   A    
C3    C5    A    
Cu1   O7    S    
