data_mof_unit_33787.cif
_audit_creation_date              2012-12-10T18:41:17-0500
_audit_creation_method            fapswitch 2.2
_symmetry_space_group_name_H-M    P1
_symmetry_Int_Tables_number       1
_space_group_crystal_system       triclinic
_cell_length_a                    15.080818
_cell_length_b                    13.94762
_cell_length_c                    10.831409
_cell_angle_alpha                 89.356967
_cell_angle_beta                  90.82977
_cell_angle_gamma                 89.688517
_cell_volume                      2277.87692212

loop_
_atom_site_label
_atom_site_type_symbol
_atom_type_description
_atom_site_fract_x
_atom_site_fract_y
_atom_site_fract_z
_atom_type_partial_charge
C1    C     C_R   0.329519 0.500267 0.499344 0.870560
C2    C     C_R   0.669571 0.499710 0.499842 0.903964
C3    C     C_R   0.188601 0.416459 0.455059 -0.252877
C4    C     C_R   0.805147 0.515522 0.380597 -0.254067
C5    C     C_R   0.096693 0.412569 0.444990 0.365175
C6    C     C_R   0.896876 0.512925 0.370040 0.381298
C7    C     C_R   0.046422 0.495127 0.473052 -0.108529
C8    C     C_R   0.949356 0.492452 0.476662 -0.111626
C9    C     C_R   0.547309 0.107426 0.590938 -0.375594
C10   C     C_R   0.455052 0.108465 0.409363 -0.380138
C11   C     C_R   0.551599 0.208667 0.583857 0.603232
C12   C     C_R   0.450304 0.210590 0.413662 0.630187
C13   C     C_R   0.501426 0.055382 0.500744 0.052554
C14   C     C_R   0.422907 0.894349 0.475204 0.183837
C15   C     C_R   0.578317 0.891359 0.531074 0.187214
C16   C     C_R   0.427174 0.793083 0.457874 0.564184
C17   C     C_R   0.572174 0.790489 0.545091 0.553258
C18   C     C_R   0.501286 0.946265 0.501771 -0.159309
C19   C     C_R   0.503558 0.500352 0.262603 0.891435
C20   C     C_R   0.503744 0.499696 0.737624 0.872096
C21   C     C_R   0.485585 0.581053 0.061888 -0.118751
C22   C     C_R   0.485018 0.580488 0.934922 -0.111736
C23   C     C_R   0.515204 0.501744 0.129893 -0.138328
C24   C     C_R   0.514120 0.500609 0.871111 -0.183454
C25   C     C_R   0.557874 0.425894 0.068278 0.272283
C26   C     C_R   0.560630 0.427793 0.936867 0.309443
C27   C     C_3   0.398610 0.633527 0.925116 0.199341
C28   C     C_3   0.399096 0.634436 0.065997 0.197207
C29   C     C_R   0.088801 0.580749 0.506146 0.401608
C30   C     C_R   0.909321 0.472628 0.590898 0.415319
C31   C     C_R   0.181471 0.582138 0.521884 0.384676
C32   C     C_R   0.816402 0.479733 0.600879 0.352678
C33   C     C_R   0.231912 0.500202 0.492567 -0.267676
C34   C     C_R   0.765379 0.498648 0.494246 -0.233576
Cu1   Cu    Cu3+1 0.500000 0.596430 0.500000 1.045298
Cu2   Cu    Cu3+1 0.500000 0.403570 0.500000 1.060760
H1    H     H_    0.344947 0.590641 0.882078 0.118294
H2    H     H_    0.406320 0.706469 0.106947 0.134096
H3    H     H_    0.226334 0.352841 0.433328 0.211107
H4    H     H_    0.764393 0.530307 0.299213 0.180985
H5    H     H_    0.581473 0.069619 0.665484 0.194367
H6    H     H_    0.422352 0.069760 0.335951 0.185676
N1    N     N_R   0.500000 0.258690 0.500000 -0.251826
N2    N     N_R   0.500000 0.741330 0.500000 -0.313617
O1    O     O_R   0.371460 0.581430 0.500010 -0.478765
O2    O     O_R   0.628540 0.581430 0.499990 -0.541083
O3    O     O_R   0.371470 0.418560 0.500010 -0.591771
O4    O     O_R   0.628530 0.418560 0.499990 -0.559250
O5    O     O_R   0.499990 0.581450 0.319660 -0.595063
O6    O     O_R   0.500010 0.581450 0.680340 -0.574942
O7    O     O_R   0.500010 0.418580 0.319660 -0.499186
O8    O     O_R   0.499990 0.418580 0.680340 -0.515100
O9    O     O_3   0.593140 0.350564 0.137226 -0.717271
H7    H     H_    0.592173 0.291895 0.086606 0.335024
O10   O     O_3   0.608447 0.361392 0.871827 -0.657804
H8    H     H_    0.659289 0.339055 0.923628 0.329961
O11   O     O_3   0.340757 0.938634 0.470731 -0.728889
H9    H     H_    0.342269 0.996091 0.523571 0.344991
O12   O     O_3   0.660695 0.932275 0.547862 -0.709943
H10   H     H_    0.663381 0.991573 0.496987 0.335895
O13   O     O_3   0.354166 0.743623 0.413019 -0.490324
C35   C     C_3   0.315657 0.787265 0.306606 -0.169637
H11   H     H_    0.285613 0.730472 0.249261 0.195649
H12   H     H_    0.364345 0.826800 0.249037 0.098828
H13   H     H_    0.260059 0.835000 0.332491 0.203260
O14   O     O_3   0.642539 0.741090 0.598588 -0.510508
C36   C     C_3   0.641286 0.755444 0.727323 -0.227072
H14   H     H_    0.691663 0.708014 0.771812 0.157013
H15   H     H_    0.576082 0.736476 0.767133 0.164106
H16   H     H_    0.658714 0.830432 0.750954 0.179494
O15   O     O_3   0.406875 0.725187 0.870809 -0.736389
H17   H     H_    0.456447 0.759293 0.912395 0.313404
O16   O     O_3   0.329927 0.580712 0.118355 -0.740315
H18   H     H_    0.328964 0.516250 0.080238 0.322248
O17   O     O_3   0.038423 0.660767 0.533662 -0.565102
C37   C     C_3   0.041254 0.725591 0.432975 -0.255062
H19   H     H_    0.016355 0.692288 0.346390 0.167825
H20   H     H_    0.109226 0.754010 0.419590 0.189447
H21   H     H_    0.997302 0.787397 0.452708 0.196260
O18   O     O_3   0.962180 0.452534 0.693583 -0.567824
C38   C     C_3   0.960725 0.352926 0.717146 -0.309571
H22   H     H_    0.981344 0.311290 0.635280 0.176970
H23   H     H_    0.894289 0.329317 0.747943 0.176627
H24   H     H_    0.008692 0.336277 0.793068 0.196484
O19   O     O_3   0.222644 0.664068 0.564127 -0.527175
C39   C     C_3   0.211923 0.669394 0.692965 -0.164081
H25   H     H_    0.143210 0.691179 0.715906 0.190076
H26   H     H_    0.257072 0.725240 0.729142 0.221844
H27   H     H_    0.229124 0.600442 0.740522 0.106004
O20   O     O_3   0.773593 0.463368 0.711637 -0.589668
C40   C     C_3   0.798883 0.532228 0.799833 -0.201174
H28   H     H_    0.854743 0.504380 0.857855 0.212176
H29   H     H_    0.742134 0.544426 0.861918 0.160663
H30   H     H_    0.816809 0.602956 0.758399 0.156462
O21   O     O_3   0.059595 0.326897 0.408204 -0.730726
H31   H     H_    0.994692 0.334328 0.397532 0.324730
O22   O     O_3   0.931597 0.530488 0.254612 -0.723520
H32   H     H_    0.996741 0.522147 0.257238 0.325970
O23   O     O_3   0.604779 0.258554 0.665244 -0.493958
C41   C     C_3   0.694396 0.232116 0.649218 -0.232651
H33   H     H_    0.736646 0.281639 0.702924 0.220566
H34   H     H_    0.714265 0.238157 0.550767 0.142012
H35   H     H_    0.708256 0.158825 0.685991 0.134738
O24   O     O_3   0.402150 0.264983 0.327179 -0.536783
C42   C     C_3   0.324422 0.219007 0.285077 -0.334760
H36   H     H_    0.279678 0.273957 0.242754 0.199893
H37   H     H_    0.287772 0.183983 0.361758 0.166145
H38   H     H_    0.340203 0.167056 0.211508 0.169573

loop_
_geom_bond_atom_site_label_1
_geom_bond_atom_site_label_2
_ccdc_geom_bond_type
C15   C18   A    
O10   H8    S    
C31   O19   S    
C10   H6    S    
O16   H18   S    
C14   C18   A    
O21   H31   S    
C37   H21   S    
C26   O10   S    
O22   H32   S    
O11   H9    S    
C1    C33   S    
C7    C8    S    
O19   C39   S    
C2    O2    A    
C42   H37   S    
C17   O14   S    
C13   C18   S    
C7    C29   A    
C24   C26   A    
C12   O24   S    
C12   N1    A    
C39   H26   S    
C3    C33   A    
Cu2   O3    S    
C11   O23   S    
C9    C13   A    
C20   O6    A    
C5    O21   S    
C32   O20   S    
C20   C24   S    
Cu1   O5    S    
C35   H12   S    
C31   C33   A    
C11   N1    A    
C16   N2    A    
Cu2   O8    S    
C30   O18   S    
C2    C34   S    
O14   C36   S    
C3    H3    S    
O12   H10   S    
C21   C22   A    
C25   O9    S    
C28   O16   S    
O24   C42   S    
C38   H23   S    
C38   H22   S    
C42   H38   S    
C4    C34   A    
C36   H14   S    
C6    O22   S    
C4    H4    S    
C37   H19   S    
C4    C6    A    
C40   H28   S    
C5    C7    A    
C39   H25   S    
C1    O3    A    
C6    C8    A    
C2    O4    A    
C25   C26   A    
O9    H7    S    
C10   C13   A    
C41   H35   S    
C36   H15   S    
Cu1   Cu2   S    
C32   C34   A    
C19   C23   S    
O17   C37   S    
C35   H11   S    
C40   H29   S    
C19   O5    A    
O23   C41   S    
C28   H2    S    
Cu1   O6    S    
C41   H34   S    
Cu1   N2    S    
C9    C11   A    
Cu2   O7    S    
C10   C12   A    
C21   C28   S    
C22   C27   S    
C21   C23   A    
C14   C16   A    
C16   O13   S    
Cu1   O1    S    
C38   H24   S    
C27   O15   S    
C15   C17   A    
C14   O11   S    
C35   H13   S    
C15   O12   S    
C37   H20   S    
O18   C38   S    
C3    C5    A    
C39   H27   S    
C29   O17   S    
C42   H36   S    
C9    H5    S    
C36   H16   S    
C8    C30   A    
C17   N2    A    
O15   H17   S    
C20   O8    A    
C40   H30   S    
C30   C32   A    
C1    O1    A    
O20   C40   S    
C27   H1    S    
C41   H33   S    
Cu2   O4    S    
C22   C24   A    
C23   C25   A    
O13   C35   S    
C19   O7    A    
C29   C31   A    
C27   C28   S    
Cu2   N1    S    
Cu1   O2    S    
