data_mof_unit_49517.cif
_audit_creation_date              2013-03-05T15:55:35-0500
_audit_creation_method            fapswitch 2.2
_symmetry_space_group_name_H-M    P1
_symmetry_Int_Tables_number       1
_space_group_crystal_system       triclinic
_cell_length_a                    12.437804
_cell_length_b                    13.229046
_cell_length_c                    15.841545
_cell_angle_alpha                 75.918434
_cell_angle_beta                  100.977241
_cell_angle_gamma                 117.016352
_cell_volume                      2242.70639155

loop_
_atom_site_label
_atom_site_type_symbol
_atom_site_description
_atom_site_fract_x
_atom_site_fract_y
_atom_site_fract_z
_atom_type_partial_charge
O1    O     O_R   0.972520 0.318130 0.524690 -0.593228
O2    O     O_R   0.806530 0.359650 0.491530 -0.527353
C1    C     C_R   0.855235 0.286812 0.506339 0.800242
O3    O     O_R   0.083030 0.479240 0.637150 -0.592308
O4    O     O_R   0.917040 0.520750 0.603990 -0.513507
C2    C     C_R   0.999780 0.499503 0.659464 0.859750
Cu1   Cu    Cu3+1 0.098280 0.475420 0.519630 0.991858
Cu2   Cu    Cu3+1 0.901720 0.524580 0.480370 0.975432
O5    O     O_R   0.193470 0.640350 0.508470 -0.556322
O6    O     O_R   0.027480 0.681870 0.475310 -0.592078
O7    O     O_R   0.082960 0.479250 0.396010 -0.524173
O8    O     O_R   0.916970 0.520760 0.362850 -0.607143
C3    C     C_R   0.144945 0.713564 0.487649 0.796020
C4    C     C_R   0.000318 0.500557 0.340535 0.804138
C5    C     C_3   0.004475 0.387248 0.973983 -0.536791
C6    C     C_3   0.884772 0.505559 0.933029 -0.350096
C7    C     C_3   0.885072 0.505812 0.030825 -0.463697
H1    H     H_    0.916274 0.312834 0.094242 0.110026
H2    H     H_    0.924568 0.310822 0.953420 0.166860
H3    H     H_    0.878905 0.584713 0.892499 0.219136
H4    H     H_    0.802898 0.430343 0.912850 0.162874
H5    H     H_    0.802981 0.431187 0.057350 0.174926
H6    H     H_    0.880023 0.585475 0.037255 0.197400
C8    C     C_1   0.000401 0.500458 0.250850 -0.150149
C9    C     C_3   0.000971 0.499446 0.917315 0.186118
C10   C     C_3   0.002602 0.385822 0.072168 0.234729
C11   C     C_3   0.001309 0.499422 0.083252 0.139636
C12   C     C_3   0.111411 0.606626 0.043763 -0.396207
C13   C     C_3   0.114876 0.604455 0.946545 0.378785
C14   C     C_1   0.000755 0.500132 0.175331 -0.040283
C15   C     C_1   0.999869 0.498771 0.824970 -0.026595
C16   C     C_1   0.999579 0.498940 0.749257 -0.144663
H7    H     H_    0.195999 0.591390 0.941219 0.098342
H8    H     H_    0.197831 0.611536 0.081892 0.182782
H9    H     H_    0.086222 0.380017 0.962879 0.211797
H10   H     H_    0.104716 0.686176 0.048504 0.189642
C17   C     C_R   0.275051 0.034382 0.408421 -0.185768
H11   H     H_    0.094925 0.898562 0.409253 0.164148
H12   H     H_    0.457244 0.232241 0.351180 0.150393
H13   H     H_    0.245022 0.097536 0.368408 0.156752
C18   C     C_R   0.228277 0.836318 0.475530 -0.069964
C19   C     C_R   0.811656 0.083865 0.568773 -0.263402
C20   C     C_R   0.728472 0.976312 0.605296 -0.189913
C21   C     C_R   0.604087 0.945530 0.588256 0.324213
C22   C     C_R   0.561527 0.015891 0.520185 -0.049885
C23   C     C_R   0.647565 0.126019 0.482959 0.049506
C24   C     C_R   0.437060 0.982378 0.488370 0.087098
C25   C     C_R   0.398753 0.064229 0.433299 0.147956
C26   C     C_R   0.484641 0.171481 0.398044 -0.243878
C27   C     C_R   0.606963 0.198234 0.417501 -0.148173
C28   C     C_R   0.351192 0.867518 0.502732 -0.141511
C29   C     C_R   0.189625 0.921083 0.431271 -0.188221
C30   C     C_R   0.771975 0.163088 0.514144 -0.111885
H14   H     H_    0.380353 0.800130 0.530198 0.193949
H15   H     H_    0.906641 0.109271 0.591350 0.178673
H16   H     H_    0.761526 0.921860 0.654723 0.185295
H17   H     H_    0.669168 0.276670 0.380394 0.163493
C31   C     C_R   0.369249 0.380186 0.664706 -0.255803
H18   H     H_    0.188120 0.349427 0.674493 0.148876
H19   H     H_    0.573595 0.369559 0.708202 0.152761
H20   H     H_    0.378501 0.335865 0.731009 0.149039
N1    N     N_R   0.246300 0.438200 0.549400 -0.221644
C32   C     C_R   0.759733 0.642341 0.378635 -0.054721
C33   C     C_R   0.666078 0.678008 0.351419 0.427479
C34   C     C_R   0.567863 0.630078 0.401486 -0.172329
C35   C     C_R   0.556719 0.542274 0.475068 -0.146712
C36   C     C_R   0.655628 0.510507 0.502099 0.162198
C37   C     C_R   0.452564 0.487809 0.524867 -0.084350
C38   C     C_R   0.463816 0.429473 0.610829 0.054744
C39   C     C_R   0.565994 0.412044 0.641194 -0.311991
C40   C     C_R   0.647457 0.429684 0.583312 0.516157
C41   C     C_R   0.336263 0.485491 0.493758 0.634803
C42   C     C_R   0.260681 0.385512 0.632489 0.003893
N2    N     N_R   0.754300 0.561180 0.451130 -0.216250
H21   H     H_    0.839759 0.681693 0.343739 0.139472
H22   H     H_    0.503227 0.666751 0.383272 0.219694
N3    N     N_R   0.103327 0.365194 0.125869 0.122045
O9    O     O_R   0.214763 0.428037 0.106792 -0.405180
O10   O     O_R   0.080697 0.278765 0.190909 -0.389173
N4    N     N_R   0.526163 0.853422 0.649098 0.094343
O11   O     O_R   0.450391 0.869401 0.684781 -0.390099
O12   O     O_R   0.544018 0.761029 0.679359 -0.368797
O13   O     O_3   0.310224 0.526340 0.407415 -0.598390
C43   C     C_3   0.282384 0.439974 0.358456 -0.235698
H23   H     H_    0.256134 0.470654 0.289606 0.235777
H24   H     H_    0.204380 0.358432 0.382587 0.175642
H25   H     H_    0.362034 0.422729 0.358696 0.140169
O14   O     O_3   0.670930 0.766344 0.281214 -0.568069
C44   C     C_3   0.717783 0.759873 0.209188 -0.296674
H26   H     H_    0.682252 0.669656 0.198198 0.151245
H27   H     H_    0.818469 0.800965 0.217084 0.159233
H28   H     H_    0.689169 0.809301 0.149504 0.200881
O15   O     O_3   0.719055 0.370472 0.608163 -0.538756
C45   C     C_3   0.657114 0.254814 0.650689 -0.306019
H29   H     H_    0.565275 0.210262 0.617384 0.173970
H30   H     H_    0.653144 0.250336 0.720943 0.149554
H31   H     H_    0.709983 0.206811 0.650007 0.185268
O16   O     O_3   0.116957 0.708129 0.892561 -0.575849
C46   C     C_3   0.237398 0.792534 0.884480 -0.289047
H32   H     H_    0.285154 0.767510 0.846453 0.201439
H33   H     H_    0.288054 0.808060 0.949503 0.151990
H34   H     H_    0.235596 0.874860 0.848112 0.200105

loop_
_geom_bond_atom_site_label_1
_geom_bond_atom_site_label_2
_geom_bond_distance
_ccdc_geom_bond_type
C9    C15   1.462503 S    
C35   C37   1.443732 A    
O15   C45   1.419023 S    
C2    C16   1.421150 S    
H1    C10   1.115487 S    
C43   H25   1.112191 S    
C3    C18   1.463965 S    
Cu1   Cu2   2.730426 S    
N3    O9    1.301526 A    
Cu1   O7    1.921540 S    
C10   C11   1.562365 S    
C7    H6    1.113450 S    
C34   H22   1.078333 S    
C13   O16   1.420735 S    
C12   C13   1.556439 S    
C43   H24   1.113931 S    
C17   H13   1.083942 S    
C19   C30   1.398876 A    
O4    C2    1.307102 A    
O7    C4    1.306506 A    
C5    C9    1.551244 S    
H11   C29   1.083084 S    
C13   H7    1.119371 S    
C4    C8    1.421262 S    
O5    C3    1.308035 A    
C46   H32   1.112308 S    
C37   C38   1.408444 A    
N1    C42   1.351855 A    
C39   C40   1.398834 A    
Cu2   O8    1.921828 S    
C44   H27   1.111035 S    
H18   C42   1.080692 S    
C18   C29   1.399624 A    
C6    H3    1.112859 S    
C31   H20   1.084355 S    
C22   C24   1.426605 A    
C35   C36   1.433487 A    
C12   H8    1.110321 S    
C11   C14   1.462337 S    
C38   C39   1.370799 A    
O3    Cu1   1.921828 S    
C5    H9    1.112894 S    
N3    O10   1.301130 A    
C9    C13   1.557728 S    
C10   N3    1.469502 S    
C7    C11   1.551329 S    
C24   C25   1.418212 A    
C21   N4    1.436813 S    
C43   H23   1.109188 S    
N4    O12   1.301548 A    
C17   C29   1.393596 A    
C6    C7    1.549353 S    
C5    C10   1.555420 S    
C24   C28   1.396873 A    
C45   H31   1.105079 S    
C22   C23   1.421735 A    
C17   C25   1.404042 A    
C5    H2    1.113627 S    
C20   C21   1.397941 A    
Cu1   N1    2.057715 S    
C19   H15   1.083257 S    
O13   C43   1.412910 S    
H19   C39   1.082301 S    
C37   C41   1.425422 A    
Cu2   N2    2.045720 S    
N1    C41   1.375392 A    
C31   C38   1.397080 A    
C36   N2    1.405017 A    
C44   H28   1.109324 S    
C45   H30   1.109397 S    
O3    C2    1.306373 A    
C25   C26   1.389546 A    
H12   C26   1.084185 S    
O8    C4    1.307036 A    
C26   C27   1.385747 A    
C19   C20   1.385510 A    
C21   C22   1.432238 A    
C6    C9    1.552496 S    
Cu1   O5    1.933577 S    
C46   H33   1.112839 S    
O1    Cu1   1.947430 S    
C27   H17   1.080681 S    
C15   C16   1.198186 T    
O2    Cu2   1.933577 S    
N4    O11   1.301687 A    
O6    C3    1.312690 A    
O4    Cu2   1.921540 S    
C6    H4    1.113341 S    
C40   O15   1.382660 S    
C32   N2    1.356425 A    
C23   C27   1.414144 A    
C7    H5    1.113314 S    
C28   H14   1.077256 S    
C33   C34   1.394260 A    
O2    C1    1.310213 A    
C1    C30   1.475490 S    
C32   H21   1.079850 S    
C23   C30   1.419963 A    
C18   C28   1.398453 A    
C36   C40   1.445836 A    
C34   C35   1.408405 A    
C45   H29   1.113866 S    
C8    C14   1.198247 T    
C41   O13   1.377831 S    
C32   C33   1.405167 A    
C20   H16   1.083061 S    
C46   H34   1.109276 S    
O14   C44   1.412394 S    
C12   H10   1.113785 S    
Cu2   O6    1.947430 S    
O16   C46   1.411066 S    
C11   C12   1.551802 S    
O1    C1    1.316136 A    
C44   H26   1.114758 S    
C33   O14   1.391129 S    
C31   C42   1.376717 A    
