data_mof_unit_29208.cif
_audit_creation_date              2012-10-26T21:12:36-0400
_audit_creation_method            fapswitch 2.2
_symmetry_space_group_name_H-M    P1
_symmetry_Int_Tables_number       1
_space_group_crystal_system       triclinic
_cell_length_a                    23.583612
_cell_length_b                    10.841281
_cell_length_c                    9.563448
_cell_angle_alpha                 88.117198
_cell_angle_beta                  90.473512
_cell_angle_gamma                 91.761358
_cell_volume                      2442.61037845

loop_
_atom_site_label
_atom_site_type_symbol
_atom_type_description
_atom_site_fract_x
_atom_site_fract_y
_atom_site_fract_z
_atom_type_partial_charge
Br1   Br    Br    0.925511 0.121986 0.358019 -0.154677
Br2   Br    Br    0.068934 0.825704 0.693522 -0.181991
Br3   Br    Br    0.932528 0.825996 0.679188 -0.156435
Br4   Br    Br    0.196325 0.506465 0.804379 -0.258980
Br5   Br    Br    0.333462 0.561277 0.802584 -0.319800
Br6   Br    Br    0.326009 0.462588 0.193584 -0.348363
Br7   Br    Br    0.791306 0.250958 0.676200 -0.181424
Br8   Br    Br    0.650361 0.253870 0.645632 -0.282049
Br9   Br    Br    0.671389 0.743102 0.385469 -0.347277
Br10  Br    Br    0.809270 0.703664 0.340637 -0.202081
Br11  Br    Br    0.558909 0.142674 0.227806 -0.426500
Br12  Br    Br    0.406916 0.830046 0.013702 -0.389826
Br13  Br    Br    0.061536 0.132938 0.331066 -0.194038
Br14  Br    Br    0.626231 0.898131 0.794272 -0.272717
Br15  Br    Br    0.649829 0.577321 0.844646 -0.321887
C1    C     C_R   0.503792 0.262141 0.503008 0.578912
C2    C     C_R   0.118242 0.590589 0.535740 0.470332
C3    C     C_R   0.237290 0.505429 0.630155 0.243058
C4    C     C_R   0.390546 0.501325 0.499829 0.573420
C5    C     C_R   0.296895 0.516774 0.628441 0.135342
C6    C     C_R   0.327057 0.501571 0.501019 -0.027456
C7    C     C_R   0.294866 0.483758 0.376173 0.128787
C8    C     C_R   0.235848 0.480380 0.379753 -0.040147
C9    C     C_R   0.206930 0.489936 0.504990 0.159856
C10   C     C_R   0.755722 0.383792 0.573098 0.221980
C11   C     C_R   0.696342 0.388768 0.566666 0.150477
C12   C     C_R   0.965937 0.273194 0.408348 0.197116
C13   C     C_R   0.670692 0.492256 0.502774 -0.017167
C14   C     C_R   0.704505 0.589664 0.444332 0.137612
C15   C     C_R   0.763515 0.579441 0.440040 0.221842
C16   C     C_R   0.495748 0.736936 0.498584 0.553781
C17   C     C_R   0.789344 0.478012 0.507382 0.157423
C18   C     C_R   0.490992 0.104011 0.770438 -0.089283
C19   C     C_R   0.466501 0.036736 0.882230 -0.084360
C20   C     C_R   0.441669 0.921139 0.861108 0.178594
C21   C     C_R   0.445316 0.869052 0.730465 -0.048225
C22   C     C_R   0.475317 0.931234 0.619798 -0.009851
C23   C     C_R   0.025658 0.273567 0.410001 0.195004
C24   C     C_R   0.491226 0.056597 0.633547 0.013124
C25   C     C_R   0.507907 0.126949 0.510678 0.037534
C26   C     C_R   0.522277 0.064788 0.388750 0.156474
C27   C     C_R   0.514859 0.938175 0.384896 -0.072974
C28   C     C_R   0.608710 0.499356 0.500575 0.617420
C29   C     C_R   0.491850 0.870731 0.498295 -0.005551
C30   C     C_R   0.564159 0.683953 0.133147 -0.098782
C31   C     C_R   0.586235 0.782841 0.050893 -0.117862
C32   C     C_R   0.588497 0.771952 0.906423 0.172320
C33   C     C_R   0.577600 0.655247 0.853621 0.219905
C34   C     C_R   0.057234 0.376878 0.461095 0.012214
C35   C     C_R   0.535876 0.580756 0.922803 0.139820
C36   C     C_R   0.533143 0.586553 0.071188 0.149845
C37   C     C_R   0.467776 0.417872 0.076460 0.083699
C38   C     C_R   0.466763 0.419853 0.928163 0.048918
C39   C     C_R   0.879702 0.560973 0.586929 0.473435
C40   C     C_R   0.877466 0.385988 0.443305 0.473347
C41   C     C_R   0.936958 0.376755 0.454778 0.011610
C42   C     C_R   0.968141 0.476801 0.512922 -0.093401
C43   C     C_R   0.939145 0.573933 0.574201 0.011829
C44   C     C_R   0.028073 0.479982 0.509281 -0.092742
C45   C     C_R   0.058875 0.586634 0.553231 0.015061
C46   C     C_R   0.029576 0.685294 0.611280 0.196971
C47   C     C_R   0.970053 0.679575 0.620011 0.196313
C48   C     C_R   0.117205 0.380703 0.469449 0.449711
Cu1   Cu    Cu3+1 0.500000 0.499990 0.640660 1.037038
Cu2   Cu    Cu3+1 0.500000 0.500010 0.359340 1.064303
H1    H     H_    0.424896 0.779517 0.717331 0.187951
H2    H     H_    0.528833 0.891916 0.293383 0.160606
H3    H     H_    0.211812 0.468912 0.283736 0.202706
H4    H     H_    0.512923 0.188440 0.797528 0.183766
H5    H     H_    0.466785 0.074988 0.985406 0.164813
H6    H     H_    0.441647 0.350268 0.133798 0.158449
H7    H     H_    0.572565 0.686626 0.241831 0.208335
H8    H     H_    0.604989 0.863204 0.099672 0.210171
H9    H     H_    0.439423 0.354623 0.874465 0.135403
N1    N     N_R   0.850281 0.473886 0.513691 -0.389927
N2    N     N_R   0.145878 0.486778 0.503578 -0.397558
N3    N     N_R   0.500540 0.501210 0.147910 -0.225531
N4    N     N_R   0.500560 0.501290 0.852040 -0.247326
O1    O     O_R   0.500000 0.319640 0.618810 -0.530242
O2    O     O_R   0.582120 0.500020 0.618760 -0.450782
O3    O     O_R   0.582120 0.500050 0.381190 -0.491109
O4    O     O_2   0.850896 0.633449 0.671414 -0.357047
O5    O     O_2   0.846710 0.310706 0.360567 -0.364791
O6    O     O_2   0.147276 0.279849 0.446488 -0.386469
O7    O     O_2   0.148791 0.696723 0.548532 -0.372018
O8    O     O_R   0.500000 0.319660 0.381240 -0.469930
O9    O     O_R   0.417880 0.499950 0.618810 -0.480862
O10   O     O_R   0.417880 0.499980 0.381240 -0.455671
O11   O     O_R   0.500000 0.680340 0.618760 -0.517482
O12   O     O_R   0.500000 0.680360 0.381190 -0.524031

loop_
_geom_bond_atom_site_label_1
_geom_bond_atom_site_label_2
_ccdc_geom_bond_type
C43   C47   A    
C40   C41   A    
C34   C48   A    
Br8   C11   S    
C26   C27   A    
C38   H9    S    
C17   N1    S    
Cu2   O8    S    
Br5   C5    S    
C30   C31   A    
C18   C24   A    
C3    C9    A    
Br15  C33   S    
C13   C14   A    
C4    C6    S    
C4    O9    A    
C21   H1    S    
C42   C44   A    
C48   N2    A    
C30   C36   A    
C12   C23   A    
Br6   C7    S    
C41   C42   A    
C19   C20   A    
C20   C21   A    
C16   O11   A    
C2    N2    A    
C8    C9    A    
C19   H5    S    
Cu1   O9    S    
Br2   C46   S    
Br9   C14   S    
Br4   C3    S    
C10   C17   A    
C33   C35   A    
C44   C45   A    
C6    C7    A    
C30   H7    S    
C1    O8    A    
Cu1   O2    S    
C27   C29   A    
Cu1   O11   S    
C35   N4    A    
C18   C19   A    
Cu2   O12   S    
Cu2   N3    S    
C16   C29   S    
C4    O10   A    
C24   C25   A    
C23   C34   A    
C12   C41   A    
C9    N2    S    
C28   O2    A    
C45   C46   A    
C8    H3    S    
C36   N3    A    
C14   C15   A    
Br10  C15   S    
Cu2   O3    S    
C32   C33   A    
C16   O12   A    
C35   C36   A    
Br12  C20   S    
Br13  C23   S    
C1    C25   S    
C25   C26   A    
C27   H2    S    
C28   O3    A    
Cu1   O1    S    
C2    O7    S    
C40   O5    S    
C37   N3    A    
C39   O4    S    
C37   C38   A    
Cu2   O10   S    
C39   C43   A    
Br3   C47   S    
C31   C32   A    
C21   C22   A    
Cu1   N4    S    
C34   C44   A    
Br14  C32   S    
C18   H4    S    
C13   C28   S    
C11   C13   A    
Br7   C10   S    
C48   O6    S    
C1    O1    A    
Cu1   Cu2   S    
C22   C29   A    
C38   N4    A    
C10   C11   A    
C40   N1    A    
C22   C24   A    
C37   H6    S    
C15   C17   A    
C42   C43   A    
Br11  C26   S    
C3    C5    A    
C46   C47   A    
C2    C45   A    
C39   N1    A    
C5    C6    A    
Br1   C12   S    
C7    C8    A    
C31   H8    S    
