data_mof_unit_17815.cif
_audit_creation_date              2012-12-10T17:44:32-0500
_audit_creation_method            fapswitch 2.2
_symmetry_space_group_name_H-M    P1
_symmetry_Int_Tables_number       1
_space_group_crystal_system       triclinic
_cell_length_a                    10.079729
_cell_length_b                    10.732546
_cell_length_c                    15.560573
_cell_angle_alpha                 95.290648
_cell_angle_beta                  69.729366
_cell_angle_gamma                 88.933673
_cell_volume                      1570.07242127

loop_
_atom_site_label
_atom_site_type_symbol
_atom_type_description
_atom_site_fract_x
_atom_site_fract_y
_atom_site_fract_z
_atom_type_partial_charge
C1    C     C_R   0.504227 0.738552 0.490559 0.900276
C2    C     C_R   0.448563 0.431887 0.896069 0.120330
C3    C     C_R   0.319348 0.376723 0.939698 0.093596
C4    C     C_R   0.555395 0.434419 0.935792 -0.086959
C5    C     C_R   0.520666 0.405214 0.027408 -0.078011
C6    C     C_R   0.401356 0.331717 0.063140 0.516029
C7    C     C_R   0.299656 0.322325 0.020860 -0.332799
C8    C     C_R   0.694330 0.468564 0.888352 0.122620
C9    C     C_R   0.776198 0.517131 0.938109 0.108337
C10   C     C_R   0.733986 0.507753 0.032993 0.017841
C11   C     C_R   0.606615 0.450396 0.078245 0.060226
C12   C     C_R   0.412223 0.497573 0.674820 0.879306
C13   C     C_R   0.817346 0.555382 0.083103 -0.287980
C14   C     C_R   0.773179 0.555617 0.179407 0.514641
C15   C     C_R   0.561166 0.453851 0.174351 -0.268874
C16   C     C_R   0.284686 0.888130 0.447603 -0.185137
C17   C     C_R   0.153677 0.951374 0.467910 -0.354931
C18   C     C_R   0.121673 0.066128 0.524305 0.583295
C19   C     C_R   0.224957 0.118751 0.554294 0.548237
C20   C     C_R   0.364856 0.065836 0.518755 -0.134462
C21   C     C_R   0.387210 0.940899 0.480786 0.001866
C22   C     C_R   0.507913 0.873261 0.482134 -0.239777
C23   C     C_R   0.494254 0.262033 0.510399 0.937030
C24   C     C_R   0.617362 0.938326 0.501218 0.471850
C25   C     C_R   0.591337 0.063317 0.537182 0.051803
C26   C     C_R   0.479965 0.130336 0.527856 -0.215561
C27   C     C_R   0.786826 0.673304 0.614575 -0.115196
C28   C     C_R   0.814719 0.780242 0.657609 -0.261040
C29   C     C_R   0.949799 0.799559 0.656821 0.537411
C30   C     C_R   0.059128 0.703335 0.616075 0.160283
C31   C     C_R   0.037754 0.593935 0.557626 -0.005963
C32   C     C_R   0.893477 0.587370 0.557679 0.040837
C33   C     C_R   0.962667 0.424571 0.437606 0.490012
C34   C     C_R   0.588574 0.501331 0.325071 0.884727
C35   C     C_R   0.103840 0.419596 0.441179 0.117046
C36   C     C_R   0.365680 0.476923 0.772473 -0.042388
C37   C     C_R   0.642961 0.503502 0.224507 -0.191126
C38   C     C_R   0.213358 0.374714 0.900186 -0.198238
C39   C     C_R   0.237672 0.423199 0.816050 -0.151764
C40   C     C_R   0.463478 0.491094 0.817186 -0.174677
H1    H     H_    0.205990 0.271110 0.051314 0.162251
H2    H     H_    0.916907 0.592770 0.046791 0.184372
H3    H     H_    0.304634 0.798759 0.405873 0.183031
H4    H     H_    0.075259 0.907304 0.444466 0.168167
H5    H     H_    0.678885 0.666041 0.622672 0.231624
H6    H     H_    0.728806 0.849647 0.691398 0.191980
H7    H     H_    0.457908 0.424410 0.212217 0.246655
H8    H     H_    0.113989 0.332332 0.932715 0.145613
H9    H     H_    0.159230 0.414677 0.783277 0.214837
H10   H     H_    0.553345 0.546737 0.788299 0.168541
N1    N     N_R   0.856800 0.501200 0.500850 -0.138115
N2    N     N_R   0.142390 0.501280 0.500880 -0.116639
O1    O     O_R   0.385310 0.683220 0.500000 -0.610941
O2    O     O_R   0.614640 0.683250 0.500010 -0.592882
O3    O     O_R   0.319840 0.499980 0.632240 -0.556757
O4    O     O_R   0.549160 0.500000 0.632250 -0.638833
O5    O     O_R   0.385360 0.316750 0.499990 -0.560024
O6    O     O_R   0.614690 0.316780 0.500000 -0.586270
O7    O     O_R   0.450840 0.500000 0.367750 -0.619035
O8    O     O_R   0.680160 0.500020 0.367760 -0.545128
Zn1   Zn    Zn3+2 0.346880 0.499980 0.499990 1.022960
Zn2   Zn    Zn3+2 0.653120 0.500020 0.500010 1.017479
O9    O     O_3   0.742964 0.877791 0.495343 -0.597836
C41   C     C_3   0.823358 0.842250 0.401225 -0.280555
H11   H     H_    0.917236 0.783285 0.397138 0.181946
H12   H     H_    0.860336 0.925242 0.363458 0.127071
H13   H     H_    0.763804 0.785896 0.364924 0.216387
O10   O     O_3   0.988563 0.125896 0.557615 -0.544250
C42   C     C_3   0.935296 0.134854 0.486081 -0.192699
H14   H     H_    0.879306 0.051637 0.479235 0.211325
H15   H     H_    0.016480 0.144349 0.418063 0.163396
H16   H     H_    0.857408 0.215427 0.505671 0.250029
O11   O     O_3   0.183558 0.214154 0.625809 -0.556754
C43   C     C_3   0.186972 0.166064 0.706779 -0.242229
H17   H     H_    0.287541 0.188938 0.717206 0.173940
H18   H     H_    0.176191 0.062932 0.707245 0.196009
H19   H     H_    0.096889 0.210257 0.766332 0.187267
I1    I     I_    0.631642 0.117587 0.659775 -0.336614
O12   O     O_3   0.926813 0.345099 0.374681 -0.623618
C44   C     C_3   0.994175 0.376010 0.283881 -0.209130
H20   H     H_    0.046676 0.466906 0.278999 0.154151
H21   H     H_    0.914363 0.379318 0.249932 0.206588
H22   H     H_    0.073127 0.299982 0.243594 0.193692
O13   O     O_3   0.979455 0.916220 0.691497 -0.587777
C45   C     C_3   0.882475 0.955878 0.780860 -0.218919
H23   H     H_    0.841764 0.876954 0.822600 0.167269
H24   H     H_    0.793075 0.013375 0.776420 0.204506
H25   H     H_    0.937153 0.016283 0.818277 0.176176
I2    I     I_    0.210204 0.751820 0.682997 -0.294736
I3    I     I_    0.256985 0.283438 0.352204 -0.362339
O14   O     O_3   0.846674 0.610201 0.233665 -0.625429
C46   C     C_3   0.979032 0.655578 0.184116 -0.409665
H26   H     H_    0.051404 0.579501 0.136609 0.179309
H27   H     H_    0.030075 0.690216 0.233743 0.183549
H28   H     H_    0.965486 0.736405 0.147526 0.194020
I4    I     I_    0.942338 0.631185 0.871764 -0.440873
O15   O     O_3   0.386396 0.260609 0.135008 -0.617033
C47   C     C_3   0.480476 0.153793 0.101968 -0.276474
H29   H     H_    0.592788 0.179811 0.080098 0.163327
H30   H     H_    0.460342 0.097412 0.044387 0.160875
H31   H     H_    0.463131 0.093546 0.158696 0.203986
I5    I     I_    0.804069 0.400582 0.746820 -0.283487

loop_
_geom_bond_atom_site_label_1
_geom_bond_atom_site_label_2
_ccdc_geom_bond_type
O6    Zn2   S    
C23   O6    A    
C16   C21   A    
C34   C37   S    
O11   C43   S    
C19   C20   A    
C15   H7    S    
C31   N2    A    
C4    C8    A    
O15   C47   S    
C45   H23   S    
C28   H6    S    
C43   H18   S    
C28   C29   A    
C5    C11   A    
C3    C7    A    
N2    Zn1   S    
C30   I2    S    
C5    C6    A    
C16   C17   A    
C18   O10   S    
O8    Zn2   S    
C18   C19   A    
C23   C26   S    
C42   H15   S    
C1    O1    A    
C15   C37   A    
O1    Zn1   S    
C3    C38   A    
C8    C9    A    
C43   H19   S    
C12   C36   S    
C9    C10   A    
C38   H8    S    
C27   H5    S    
C1    C22   S    
C21   C22   A    
C34   O8    A    
N1    Zn2   S    
C11   C15   A    
C44   H22   S    
C13   H2    S    
C45   H24   S    
C38   C39   A    
O7    Zn1   S    
C43   H17   S    
C25   I1    S    
C6    O15   S    
C19   O11   S    
C24   C25   A    
C29   O13   S    
C44   H21   S    
O14   C46   S    
O10   C42   S    
O2    Zn2   S    
C25   C26   A    
C46   H28   S    
O12   C44   S    
C41   H12   S    
C42   H16   S    
C2    C4    A    
C1    O2    A    
C41   H13   S    
C32   N1    A    
C29   C30   A    
C31   C32   A    
C16   H3    S    
C36   C40   A    
C46   H27   S    
C17   C18   A    
O13   C45   S    
C9    I4    S    
C12   O4    A    
C39   H9    S    
C24   O9    S    
C47   H30   S    
C34   O7    A    
C22   C24   A    
C27   C28   A    
C45   H25   S    
C23   O5    A    
C27   C32   A    
C36   C39   A    
C33   O12   S    
C44   H20   S    
C10   C13   A    
O5    Zn1   S    
C6    C7    A    
C33   N1    A    
C47   H31   S    
C41   H11   S    
C2    C3    A    
C17   H4    S    
C14   C37   A    
C30   C31   A    
C20   C26   A    
C40   H10   S    
O3    Zn1   S    
C46   H26   S    
C33   C35   A    
O4    Zn2   S    
C7    H1    S    
C42   H14   S    
C14   O14   S    
C12   O3    A    
C10   C11   A    
O9    C41   S    
C35   I3    S    
C2    C40   A    
C4    C5    A    
C20   C21   A    
C47   H29   S    
C35   N2    A    
C13   C14   A    
C8    I5    S    
