data_mof_unit_9492.cif
_audit_creation_date              2013-03-05T15:39:32-0500
_audit_creation_method            fapswitch 2.2
_symmetry_space_group_name_H-M    P1
_symmetry_Int_Tables_number       1
_space_group_crystal_system       triclinic
_cell_length_a                    19.697837
_cell_length_b                    16.965492
_cell_length_c                    15.395631
_cell_angle_alpha                 90.184395
_cell_angle_beta                  53.328962
_cell_angle_gamma                 90.132688
_cell_volume                      4126.64010374

loop_
_atom_site_label
_atom_site_type_symbol
_atom_site_description
_atom_site_fract_x
_atom_site_fract_y
_atom_site_fract_z
_atom_type_partial_charge
C1    C     C_R   0.375461 0.198006 0.994959 -0.059164
C2    C     C_R   0.339568 0.825466 0.050793 -0.043018
C3    C     C_R   0.875460 0.698006 0.994961 -0.059232
C4    C     C_R   0.839570 0.325464 0.050786 -0.042998
H1    H     H_    0.384354 0.253219 0.022064 0.101005
H2    H     H_    0.330011 0.776755 0.101633 0.108396
H3    H     H_    0.884353 0.753218 0.022066 0.101000
H4    H     H_    0.830014 0.276747 0.101617 0.108062
N1    N     N_R   0.408680 0.130160 0.995800 -0.055415
N2    N     N_R   0.408680 0.869840 0.995800 -0.057833
N3    N     N_R   0.908680 0.630160 0.995800 -0.055426
N4    N     N_R   0.908680 0.369840 0.995800 -0.057806
C5    C     C_R   0.399371 0.800246 0.207819 -0.007505
C6    C     C_R   0.348469 0.170349 0.218836 -0.113494
C7    C     C_R   0.899319 0.300255 0.207833 -0.007925
C8    C     C_R   0.848479 0.670360 0.218839 -0.113515
H5    H     H_    0.397109 0.743902 0.176790 0.097927
H6    H     H_    0.329702 0.221028 0.196058 0.184479
H7    H     H_    0.897098 0.243906 0.176779 0.097457
H8    H     H_    0.829712 0.721039 0.196058 0.184499
N5    N     N_R   0.421680 0.867580 0.153120 -0.054447
N6    N     N_R   0.421680 0.132420 0.153120 -0.067822
N7    N     N_R   0.921680 0.367580 0.153120 -0.054408
N8    N     N_R   0.921680 0.632420 0.153120 -0.067830
C9    C     C_R   0.328771 0.913318 0.953311 -0.093341
C10   C     C_R   0.366239 0.111417 0.895848 -0.126256
C11   C     C_R   0.828773 0.413319 0.953308 -0.093341
C12   C     C_R   0.866239 0.611417 0.895849 -0.126260
H9    H     H_    0.307147 0.947528 0.915011 0.120885
H10   H     H_    0.362948 0.085545 0.834130 0.119772
H11   H     H_    0.807149 0.447529 0.915008 0.120972
H12   H     H_    0.862948 0.585545 0.834131 0.119869
N9    N     N_R   0.403730 0.921770 0.935950 -0.050597
N10   N     N_R   0.403730 0.078230 0.935950 -0.047044
N11   N     N_R   0.903730 0.421770 0.935950 -0.050603
N12   N     N_R   0.903730 0.578230 0.935950 -0.047067
C13   C     C_R   0.357524 0.077644 0.314036 -0.099196
C14   C     C_R   0.409350 0.892101 0.302144 -0.089502
C15   C     C_R   0.857539 0.577665 0.314046 -0.098986
C16   C     C_R   0.909265 0.392108 0.302200 -0.089701
H13   H     H_    0.348828 0.041689 0.377418 0.132792
H14   H     H_    0.415434 0.922856 0.358634 0.113097
H15   H     H_    0.848858 0.541736 0.377438 0.132899
H16   H     H_    0.915259 0.422845 0.358782 0.113235
N13   N     N_R   0.426630 0.075970 0.212960 -0.058841
N14   N     N_R   0.426630 0.924030 0.212960 -0.047857
N15   N     N_R   0.926630 0.575970 0.212960 -0.058866
N16   N     N_R   0.926630 0.424030 0.212960 -0.047875
C17   C     C_R   0.348378 0.188046 0.931883 0.152052
C18   C     C_R   0.286599 0.852292 0.027133 0.131147
C19   C     C_R   0.848377 0.688046 0.931884 0.152013
C20   C     C_R   0.786602 0.352291 0.027127 0.131071
C21   C     C_R   0.391557 0.814022 0.301697 0.116271
C22   C     C_R   0.306028 0.136923 0.321281 0.166713
C23   C     C_R   0.891431 0.314045 0.301754 0.117583
C24   C     C_R   0.806044 0.636943 0.321286 0.166657
C25   C     C_R   0.620498 0.200772 0.015717 -0.003923
C26   C     C_R   0.660881 0.822475 0.953361 -0.115759
C27   C     C_R   0.120489 0.700773 0.015734 -0.003831
C28   C     C_R   0.160881 0.322475 0.953361 -0.115753
H17   H     H_    0.609695 0.257858 0.995425 0.154304
H18   H     H_    0.671943 0.771590 0.904345 0.169672
H19   H     H_    0.109667 0.757863 0.995471 0.154303
H20   H     H_    0.171942 0.271590 0.904345 0.169666
N17   N     N_R   0.591320 0.134600 0.004200 -0.066804
N18   N     N_R   0.591320 0.865400 0.004200 -0.054576
N19   N     N_R   0.091320 0.634600 0.004200 -0.066758
N20   N     N_R   0.091320 0.365400 0.004200 -0.054562
C29   C     C_R   0.598554 0.800194 0.793156 0.751112
C30   C     C_R   0.650088 0.171405 0.780608 0.819966
C31   C     C_R   0.098562 0.300196 0.793150 0.751139
C32   C     C_R   0.150034 0.671467 0.780644 0.819724
N21   N     N_R   0.578320 0.867660 0.846880 -0.123039
N22   N     N_R   0.578320 0.132340 0.846880 -0.118685
N23   N     N_R   0.078320 0.367660 0.846880 -0.123043
N24   N     N_R   0.078320 0.632340 0.846880 -0.118649
C33   C     C_R   0.641397 0.077864 0.684996 -0.262520
C34   C     C_R   0.592133 0.892710 0.696699 -0.253897
C35   C     C_R   0.141413 0.577904 0.684989 -0.262545
C36   C     C_R   0.092154 0.392716 0.696684 -0.253874
H21   H     H_    0.649995 0.042815 0.620688 0.145264
H22   H     H_    0.587627 0.922869 0.638701 0.143611
H23   H     H_    0.150061 0.542873 0.620631 0.145292
H24   H     H_    0.087669 0.422880 0.638672 0.143669
N25   N     N_R   0.573370 0.074390 0.787040 -0.071372
N26   N     N_R   0.573370 0.925610 0.787040 -0.070199
N27   N     N_R   0.073370 0.574390 0.787040 -0.071280
N28   N     N_R   0.073370 0.425610 0.787040 -0.070193
C37   C     C_R   0.669755 0.917877 0.049998 -0.094896
C38   C     C_R   0.632802 0.105547 0.106270 -0.136176
C39   C     C_R   0.169756 0.417877 0.049998 -0.094891
C40   C     C_R   0.132801 0.605545 0.106272 -0.136093
H25   H     H_    0.690949 0.951974 0.089045 0.113264
H26   H     H_    0.637358 0.078113 0.165918 0.110267
H27   H     H_    0.190950 0.451974 0.089044 0.113304
H28   H     H_    0.137359 0.578108 0.165917 0.110421
N29   N     N_R   0.596270 0.927870 0.064040 -0.055858
N30   N     N_R   0.596270 0.072130 0.064040 -0.053767
N31   N     N_R   0.096270 0.427870 0.064040 -0.055858
N32   N     N_R   0.096270 0.572130 0.064040 -0.053791
Ni1   Ni    Ni4+2 0.500000 0.131190 0.000000 0.251361
Ni2   Ni    Ni4+2 0.500000 0.868810 0.000000 0.276159
Ni3   Ni    Ni4+2 0.000000 0.631190 0.000000 0.251307
Ni4   Ni    Ni4+2 0.000000 0.368810 0.000000 0.276132
Ni5   Ni    Ni4+2 0.488650 1.000000 0.862740 0.225225
Ni6   Ni    Ni4+2 0.988650 0.500000 0.862740 0.225279
Ni7   Ni    Ni4+2 0.511350 1.000000 0.137260 0.217922
Ni8   Ni    Ni4+2 0.011350 0.500000 0.137260 0.217998
C41   C     C_R   0.648463 0.184736 0.076749 0.095571
C42   C     C_R   0.711374 0.853937 0.980043 0.121981
C43   C     C_R   0.148458 0.684735 0.076759 0.095387
C44   C     C_R   0.211374 0.353937 0.980043 0.121927
C45   C     C_R   0.607170 0.813482 0.698577 -0.044233
C46   C     C_R   0.691739 0.138882 0.677429 -0.006402
C47   C     C_R   0.107195 0.313488 0.698561 -0.044311
C48   C     C_R   0.191719 0.638957 0.677462 -0.007294
C49   C     C_3   0.196458 0.124991 0.523540 -0.574031
C50   C     C_3   0.373119 0.777647 0.471698 -0.592747
C51   C     C_3   0.696435 0.625001 0.523534 -0.573616
C52   C     C_3   0.873502 0.277117 0.471269 -0.591473
H29   H     H_    0.238438 0.082761 0.525056 0.250186
H30   H     H_    0.438503 0.754079 0.429174 0.274472
H31   H     H_    0.738391 0.582743 0.525059 0.250333
H32   H     H_    0.938687 0.253023 0.428513 0.274659
H33   H     H_    0.149884 0.088143 0.523908 0.241094
H34   H     H_    0.376663 0.840430 0.488475 0.183463
H35   H     H_    0.649852 0.588184 0.523883 0.241201
H36   H     H_    0.877701 0.339795 0.487765 0.183609
C53   C     C_3   0.151951 0.173872 0.628156 0.763980
C54   C     C_3   0.312843 0.735254 0.580118 0.742751
C55   C     C_3   0.651925 0.673871 0.628158 0.763912
C56   C     C_3   0.813101 0.234923 0.579848 0.741895
H37   H     H_    0.585768 0.652683 0.686906 0.128903
H38   H     H_    0.779834 0.281470 0.642462 0.159179
H39   H     H_    0.085797 0.152678 0.686914 0.128924
H40   H     H_    0.279363 0.781723 0.642799 0.158934
H41   H     H_    0.341730 0.201262 0.451253 0.203962
H42   H     H_    0.422012 0.659194 0.323624 0.216215
H43   H     H_    0.841707 0.701245 0.451316 0.204019
H44   H     H_    0.921317 0.158956 0.322888 0.216092
H45   H     H_    0.770858 0.795960 0.580379 0.221808
H46   H     H_    0.844496 0.089953 0.482768 0.255499
H47   H     H_    0.270885 0.295974 0.580320 0.221793
H48   H     H_    0.344569 0.589982 0.483297 0.255323
C57   C     C_3   0.301870 0.236512 0.436516 -0.342650
C58   C     C_3   0.354046 0.676051 0.371206 -0.410712
C59   C     C_3   0.801868 0.736509 0.436557 -0.342601
C60   C     C_3   0.853410 0.176093 0.371135 -0.412874
C61   C     C_3   0.681028 0.732820 0.420149 0.763874
C62   C     C_3   0.746874 0.288238 0.460960 0.806105
C63   C     C_3   0.180997 0.232785 0.420172 0.763880
C64   C     C_3   0.246895 0.787772 0.460411 0.805631
C65   C     C_3   0.245924 0.180776 0.422785 -0.066815
C66   C     C_3   0.342731 0.765376 0.399491 -0.077260
C67   C     C_3   0.745931 0.680792 0.422787 -0.066977
C68   C     C_3   0.842643 0.265377 0.399516 -0.078523
C69   C     C_3   0.653110 0.762640 0.601356 -0.111456
C70   C     C_3   0.749358 0.183301 0.576308 -0.127056
C71   C     C_3   0.153122 0.262636 0.601346 -0.111321
C72   C     C_3   0.249375 0.683371 0.576346 -0.126629
C73   C     C_3   0.746076 0.792181 0.531673 -0.433005
C74   C     C_3   0.801558 0.127414 0.476023 -0.430185
C75   C     C_3   0.246086 0.292185 0.531635 -0.433094
C76   C     C_3   0.301842 0.627446 0.476155 -0.429719
C77   C     C_3   0.616986 0.769687 0.534551 0.373067
C78   C     C_3   0.692292 0.236778 0.562537 0.343954
C79   C     C_3   0.116973 0.269666 0.534571 0.373039
C80   C     C_3   0.192320 0.736616 0.562319 0.343189
H49   H     H_    0.607585 0.832178 0.523206 0.107750
H50   H     H_    0.651025 0.198357 0.553255 0.123560
H51   H     H_    0.107568 0.332154 0.523221 0.107807
H52   H     H_    0.150971 0.698064 0.553337 0.123803
H53   H     H_    0.345928 0.272083 0.362298 0.204991
H54   H     H_    0.332339 0.661299 0.320993 0.206838
H55   H     H_    0.845946 0.772080 0.362345 0.205013
H56   H     H_    0.831040 0.161730 0.321572 0.207035
H57   H     H_    0.749900 0.852475 0.500572 0.195526
H58   H     H_    0.760299 0.087304 0.469435 0.170439
H59   H     H_    0.249896 0.352475 0.500533 0.195505
H60   H     H_    0.260692 0.587343 0.469344 0.170456
C81   C     C_2   0.189092 0.741746 0.102713 -0.164725
C82   C     C_2   0.285656 0.315843 0.958552 -0.129069
C83   C     C_2   0.689094 0.241747 0.102705 -0.164990
C84   C     C_2   0.785655 0.815842 0.958553 -0.129104
H61   H     H_    0.215532 0.718891 0.142256 0.149443
H62   H     H_    0.305675 0.335371 0.007140 0.143099
H63   H     H_    0.715531 0.218892 0.142252 0.149119
H64   H     H_    0.805675 0.835371 0.007141 0.143084
C85   C     C_2   0.710114 0.313378 0.056158 -0.142120
C86   C     C_2   0.812685 0.747826 0.903526 -0.158285
C87   C     C_2   0.210112 0.813377 0.056167 -0.142178
C88   C     C_2   0.312686 0.247826 0.903525 -0.158328
H65   H     H_    0.682153 0.337267 0.019096 0.141713
H66   H     H_    0.795065 0.729411 0.851995 0.145568
H67   H     H_    0.182150 0.837266 0.019105 0.141667
H68   H     H_    0.295066 0.229411 0.851994 0.145538
F1    F     F_    0.195172 0.162224 0.672608 -0.647257
F2    F     F_    0.358550 0.689737 0.603318 -0.613025
F3    F     F_    0.695137 0.662204 0.672619 -0.647076
F4    F     F_    0.858688 0.189206 0.603052 -0.612999
F5    F     F_    0.724289 0.795527 0.349481 -0.742131
F6    F     F_    0.723053 0.271341 0.394013 -0.712692
F7    F     F_    0.224238 0.295484 0.349482 -0.742096
F8    F     F_    0.223450 0.770026 0.393248 -0.713351
N33   N     N_R   0.638252 0.688620 0.382854 0.249374
O1    O     O_R   0.647408 0.710653 0.295497 -0.364828
O2    O     O_R   0.589880 0.628408 0.436218 -0.322950
N34   N     N_R   0.731231 0.372849 0.488927 0.248728
O3    O     O_R   0.703425 0.417332 0.447647 -0.321674
O4    O     O_R   0.742224 0.403993 0.557080 -0.405181
N35   N     N_R   0.138201 0.188560 0.382923 0.249390
O5    O     O_R   0.147337 0.210563 0.295569 -0.364764
O6    O     O_R   0.089837 0.128352 0.436322 -0.322692
N36   N     N_R   0.230815 0.872479 0.487736 0.248936
O7    O     O_R   0.203087 0.916309 0.445770 -0.320966
O8    O     O_R   0.241512 0.904387 0.555807 -0.405014
F9    F     F_    0.538109 0.733942 0.590241 -0.634318
F10   F     F_    0.638119 0.282571 0.654151 -0.635079
F11   F     F_    0.038094 0.233922 0.590293 -0.634365
F12   F     F_    0.138251 0.782642 0.653714 -0.635417
F13   F     F_    0.583755 0.729539 0.842348 -0.681132
F14   F     F_    0.669011 0.239226 0.808121 -0.710110
F15   F     F_    0.083763 0.229539 0.842340 -0.681181
F16   F     F_    0.168874 0.739294 0.808239 -0.710561

loop_
_geom_bond_atom_site_label_1
_geom_bond_atom_site_label_2
_geom_bond_distance
_ccdc_geom_bond_type
C26   H18   1.078187 S    
C70   C74   1.561707 S    
C35   H23   1.076588 S    
C88   H68   1.083637 S    
H45   C73   1.114202 S    
N34   O4    1.301671 A    
C61   F5    1.391930 S    
N18   Ni2   1.839202 S    
N17   Ni1   1.838927 S    
C36   H24   1.079253 S    
H44   C60   1.113161 S    
C22   C65   1.477830 S    
C35   N27   1.324163 A    
N19   Ni3   1.838927 S    
C17   C88   1.444401 S    
N33   O1    1.301640 A    
C30   C46   1.393086 A    
C7    H7    1.079926 S    
N31   Ni8   1.820612 S    
C14   C21   1.370493 A    
C29   C45   1.380794 A    
C60   H56   1.111620 S    
N6    Ni1   1.895674 S    
C63   N35   1.474498 S    
C4    C20   1.373184 A    
C1    H1    1.079955 S    
C72   C76   1.561610 S    
N18   N29   1.442925 A    
H41   C57   1.114186 S    
N3    N12   1.317734 A    
N17   N30   1.447605 A    
C48   C72   1.474060 S    
C3    H3    1.079954 S    
C50   H30   1.113903 S    
C12   C19   1.373329 A    
N36   O8    1.302034 A    
C32   F16   1.351134 S    
C56   F4    1.386984 S    
C54   C72   1.556398 S    
C82   H62   1.083964 S    
H47   C75   1.114202 S    
C4    H4    1.076325 S    
C55   C69   1.559221 S    
C49   H29   1.106140 S    
C9    C18   1.389095 A    
C46   C70   1.474050 S    
C2    C18   1.373186 A    
C27   N19   1.318937 A    
C53   H39   1.112459 S    
C52   H32   1.113637 S    
C10   N10   1.338771 A    
C25   C41   1.371466 A    
N35   O5    1.301640 A    
C71   C79   1.566427 S    
N34   O3    1.301619 A    
C1    C17   1.368755 A    
C30   N22   1.325113 A    
C51   C55   1.535769 S    
C29   N21   1.324887 A    
C71   C75   1.551818 S    
C4    N4    1.326463 A    
C59   C67   1.557369 S    
C78   F10   1.389496 S    
C29   F13   1.354984 S    
C76   H60   1.108790 S    
C77   F9    1.387341 S    
C57   C65   1.557374 S    
C34   N26   1.328387 A    
N24   Ni3   1.895746 S    
C7    N7    1.329995 A    
C42   C84   1.446667 S    
C21   C66   1.465499 S    
C8    N8    1.332168 A    
C62   C68   1.572726 S    
C35   C48   1.388195 A    
H48   C76   1.112595 S    
C63   C65   1.575664 S    
C77   H49   1.108835 S    
N10   Ni5   1.891726 S    
C2    H2    1.076332 S    
C82   C88   1.338104 D    
C24   C67   1.477804 S    
N25   Ni5   1.847325 S    
C83   C85   1.345623 D    
C79   F11   1.387340 S    
C64   C80   1.536326 S    
C26   N18   1.319229 A    
C38   H26   1.081382 S    
C5    C21   1.378233 A    
N33   O2    1.300860 A    
C40   H28   1.081381 S    
C9    H9    1.081363 S    
C23   C68   1.465361 S    
N32   Ni8   1.820281 S    
C62   C78   1.536200 S    
C31   F15   1.354983 S    
N12   Ni6   1.891726 S    
C12   H12   1.081884 S    
C1    N1    1.329260 A    
C59   C73   1.522474 S    
C10   C17   1.373328 A    
C69   C77   1.566448 S    
C3    C19   1.368757 A    
N36   O7    1.301995 A    
C44   C82   1.446669 S    
C57   C75   1.522471 S    
C11   N11   1.341636 A    
C61   N33   1.474500 S    
C37   C42   1.396689 A    
N20   N31   1.442925 A    
C56   C70   1.556551 S    
N30   Ni7   1.820281 S    
C84   H64   1.083963 S    
N7    Ni4   1.895762 S    
C47   C71   1.476754 S    
C37   H25   1.080136 S    
C7    C23   1.378165 A    
C39   C44   1.396689 A    
C55   F3    1.389184 S    
C52   C68   1.558717 S    
C8    C24   1.391638 A    
C28   C44   1.388170 A    
C83   H63   1.083226 S    
N28   Ni6   1.847482 S    
C34   H22   1.079245 S    
C27   C43   1.371458 A    
C15   C24   1.386241 A    
C58   C66   1.554748 S    
C36   C47   1.381179 A    
C33   H21   1.076514 S    
C31   C47   1.380799 A    
C16   C23   1.370434 A    
H43   C59   1.114184 S    
N14   Ni7   1.865740 S    
C61   C77   1.558016 S    
C32   N24   1.324918 A    
C40   C43   1.393264 A    
C8    H8    1.075707 S    
C80   F12   1.389496 S    
N4    N11   1.321994 A    
C25   H17   1.078515 S    
C18   C87   1.448634 S    
N24   N27   1.387754 A    
C28   N20   1.319231 A    
C19   C86   1.444399 S    
N19   N32   1.447605 A    
N22   Ni1   1.895746 S    
C13   C22   1.386244 A    
N1    Ni1   1.838197 S    
N21   Ni2   1.895663 S    
N35   O6    1.300860 A    
C57   H53   1.113796 S    
C78   H50   1.114353 S    
C11   H11   1.081361 S    
C75   H59   1.114013 S    
N23   Ni4   1.895663 S    
C84   C86   1.338104 D    
N26   Ni5   1.847482 S    
N5    Ni2   1.895762 S    
C13   N13   1.321014 A    
C33   C46   1.388011 A    
C2    N2    1.326462 A    
C69   C73   1.551825 S    
C52   C56   1.533143 S    
C53   C71   1.559226 S    
C49   C53   1.535782 S    
C11   C20   1.389083 A    
C40   N32   1.347771 A    
C15   N15   1.321007 A    
N5    N14   1.369902 A    
C64   C66   1.572867 S    
C80   H52   1.114352 S    
C16   N16   1.319289 A    
C81   H61   1.083226 S    
N7    N16   1.369902 A    
C6    C22   1.391651 A    
C26   C42   1.388171 A    
N8    N15   1.374356 A    
C6    H6    1.075706 S    
C54   H40   1.106832 S    
N20   Ni4   1.839202 S    
C25   N17   1.318919 A    
C55   H37   1.112458 S    
H46   C74   1.112601 S    
C15   H15   1.075779 S    
C52   H36   1.106812 S    
C50   C54   1.532891 S    
N4    Ni4   1.838280 S    
C51   H31   1.106150 S    
C60   C68   1.554641 S    
C32   C48   1.392972 A    
C27   H19   1.078508 S    
C63   F7    1.391925 S    
N9    Ni5   1.891382 S    
C79   H51   1.108844 S    
C28   H20   1.078185 S    
N8    Ni3   1.895674 S    
C60   C74   1.538675 S    
C6    N6    1.332179 A    
C61   C67   1.575665 S    
C49   C65   1.565613 S    
C62   N34   1.476647 S    
C36   N28   1.328391 A    
N11   Ni6   1.891382 S    
C39   N31   1.340853 A    
C5    N5    1.330082 A    
C14   N14   1.319181 A    
C31   N23   1.324885 A    
C81   C87   1.345629 D    
C41   C83   1.453164 S    
N16   Ni8   1.865740 S    
N27   Ni6   1.847325 S    
C58   C76   1.538888 S    
H42   C58   1.113436 S    
C63   C79   1.558031 S    
C58   H54   1.111842 S    
N2    Ni2   1.838280 S    
C30   F14   1.351186 S    
C51   C67   1.565616 S    
N1    N10   1.317734 A    
C50   C66   1.558913 S    
N2    N9    1.321994 A    
C59   H55   1.113797 S    
C20   C85   1.448626 S    
C72   C80   1.556135 S    
N22   N25   1.387754 A    
C13   H13   1.075783 S    
C87   H67   1.082168 S    
N21   N26   1.392268 A    
C74   H58   1.108730 S    
C3    N3    1.329259 A    
C86   H66   1.083638 S    
C64   N36   1.477028 S    
C33   N25   1.323983 A    
C5    H5    1.079913 S    
N29   Ni7   1.820612 S    
C14   H14   1.079019 S    
C85   H65   1.082168 S    
N23   N28   1.392268 A    
C16   H16   1.079062 S    
N6    N13   1.374356 A    
C12   N12   1.338769 A    
C39   H27   1.080135 S    
C56   H38   1.106911 S    
N15   Ni8   1.865897 S    
C70   C78   1.556363 S    
C37   N29   1.340851 A    
C62   F6    1.392767 S    
C43   C81   1.453179 S    
C64   F8    1.393156 S    
N3    Ni3   1.838197 S    
C50   H34   1.107034 S    
C38   C41   1.393272 A    
C45   C69   1.476735 S    
C54   F2    1.386940 S    
C49   H33   1.106183 S    
C73   H57   1.114014 S    
C34   C45   1.381155 A    
C38   N30   1.347768 A    
C53   F1    1.389187 S    
N13   Ni7   1.865897 S    
C9    N9    1.341639 A    
C10   H10   1.081884 S    
C51   H35   1.106167 S    
