data_mof_unit_7538.cif
_audit_creation_date              2012-12-10T20:33:33-0500
_audit_creation_method            fapswitch 2.2
_symmetry_space_group_name_H-M    P1
_symmetry_Int_Tables_number       1
_space_group_crystal_system       triclinic
_cell_length_a                    14.145688
_cell_length_b                    10.694635
_cell_length_c                    9.891359
_cell_angle_alpha                 90.290707
_cell_angle_beta                  90.651627
_cell_angle_gamma                 90.551789
_cell_volume                      1496.20789945

loop_
_atom_site_label
_atom_site_type_symbol
_atom_type_description
_atom_site_fract_x
_atom_site_fract_y
_atom_site_fract_z
_atom_type_partial_charge
C1    C     C_R   0.502822 0.260152 0.499951 0.865923
C2    C     C_3   0.451397 0.076948 0.742145 -0.533786
C3    C     C_R   0.441651 0.420783 0.069505 0.195167
C4    C     C_R   0.329211 0.499968 0.499397 0.938924
C5    C     C_R   0.563481 0.569139 0.075331 -0.136631
C6    C     C_R   0.565986 0.567793 0.931928 0.178475
C7    C     C_R   0.441392 0.421137 0.927269 0.168505
C8    C     C_3   0.336159 0.417704 0.919863 -0.466853
C9    C     C_3   0.336319 0.417255 0.073441 -0.480697
C10   C     C_R   0.501315 0.739985 0.500270 0.938202
C11   C     C_R   0.670797 0.500237 0.500622 0.873858
C12   C     C_1   0.772262 0.500530 0.501786 -0.221775
C13   C     C_1   0.227754 0.500364 0.498392 -0.159671
C14   C     C_1   0.142505 0.500687 0.498759 0.022513
C15   C     C_1   0.042636 0.500916 0.499915 0.028715
C16   C     C_1   0.957387 0.500943 0.500971 0.021188
C17   C     C_1   0.857516 0.500779 0.501803 -0.013622
C18   C     C_3   0.643082 0.645755 0.868329 -0.398219
C19   C     C_3   0.738304 0.577188 0.864052 -0.328411
C20   C     C_3   0.789865 0.575050 0.000658 -0.847110
C21   C     C_R   0.514884 0.064847 0.623117 0.047582
C22   C     C_R   0.516722 0.129011 0.501017 -0.067755
C23   C     C_R   0.534250 0.064390 0.380389 -0.211921
C24   C     C_R   0.532862 0.935066 0.380633 -0.203537
C25   C     C_R   0.512683 0.871771 0.501113 -0.046091
C26   C     C_R   0.510021 0.937640 0.622786 -0.035197
C27   C     C_3   0.444307 0.934751 0.741209 0.287770
H1    H     H_    0.543164 0.112727 0.285322 0.168623
H2    H     H_    0.305933 0.504248 0.875898 0.251352
H3    H     H_    0.299353 0.998363 0.530730 0.348768
H4    H     H_    0.795107 0.670625 0.044726 0.258801
H5    H     H_    0.753000 0.511915 0.071893 0.260645
H6    H     H_    0.862502 0.539096 0.986664 0.256388
H7    H     H_    0.727932 0.479483 0.827718 0.241271
H8    H     H_    0.784664 0.625977 0.790756 0.217552
H9    H     H_    0.623665 0.674184 0.765742 0.222576
H10   H     H_    0.651740 0.735697 0.924322 0.163636
H11   H     H_    0.308919 0.328996 0.874366 0.204684
H12   H     H_    0.306143 0.503514 0.118163 0.229433
H13   H     H_    0.309083 0.328315 0.116517 0.206509
H14   H     H_    0.541865 0.885728 0.285782 0.164131
H15   H     H_    0.476476 0.891124 0.832338 0.082580
H16   H     H_    0.384721 0.126458 0.717009 0.218292
H17   H     H_    0.489797 0.114717 0.832376 0.179145
H18   H     H_    0.612326 0.627372 0.133174 0.156096
N1    N     N_R   0.499420 0.499140 0.142800 -0.115965
N2    N     N_R   0.499420 0.499180 0.857150 -0.114182
O1    O     O_R   0.500010 0.316790 0.614690 -0.612201
O2    O     O_2   0.257387 0.945281 0.792579 -0.289576
O3    O     O_3   0.297835 0.906221 0.540215 -0.532856
O4    O     O_R   0.500000 0.316760 0.385350 -0.619391
O5    O     O_R   0.373720 0.500020 0.614700 -0.568552
O6    O     O_R   0.373710 0.499980 0.385350 -0.602541
O7    O     O_R   0.500000 0.683240 0.614650 -0.614395
O8    O     O_R   0.499990 0.683210 0.385310 -0.621301
O9    O     O_R   0.626290 0.500020 0.614650 -0.625401
O10   O     O_R   0.626280 0.499980 0.385300 -0.600419
O11   O     O_2   0.320356 0.741761 0.729743 -0.266962
S1    S     S_3+6 0.326490 0.879642 0.703033 0.033545
Zn1   Zn    Zn3+2 0.500010 0.500020 0.653130 0.959502
Zn2   Zn    Zn3+2 0.499990 0.499980 0.346870 0.944668

loop_
_geom_bond_atom_site_label_1
_geom_bond_atom_site_label_2
_ccdc_geom_bond_type
C12   C17   T    
C21   C26   A    
C1    O1    A    
O10   Zn2   S    
C2    C27   S    
C10   O8    A    
C4    O6    A    
O5    Zn1   S    
C5    N1    A    
C3    N1    A    
C19   C20   S    
O2    S1    D    
O4    Zn2   S    
C9    H12   S    
C2    H16   S    
C23   C24   A    
C11   O10   A    
C2    C21   S    
H3    O3    S    
C7    C8    S    
C5    H18   S    
C27   S1    S    
C13   C14   T    
O7    Zn1   S    
C24   H14   S    
C1    O4    A    
C27   H15   S    
C26   C27   S    
O6    Zn2   S    
C4    O5    A    
C3    C9    S    
C8    H2    S    
O8    Zn2   S    
C10   C25   S    
C22   C23   A    
C25   C26   A    
C18   H10   S    
O1    Zn1   S    
C3    C7    A    
C8    H11   S    
C5    C6    A    
C6    C18   S    
O11   S1    D    
C23   H1    S    
C6    N2    A    
O3    S1    S    
C10   O7    A    
C15   C16   T    
C1    C22   S    
C24   C25   A    
C20   H6    S    
C18   C19   S    
C20   H5    S    
C4    C13   S    
C14   C15   S    
C16   C17   S    
C19   H8    S    
N1    Zn2   S    
N2    Zn1   S    
C21   C22   A    
C18   H9    S    
C19   H7    S    
C9    H13   S    
C11   O9    A    
O9    Zn1   S    
C11   C12   S    
C2    H17   S    
C8    C9    S    
C20   H4    S    
C7    N2    A    
