data_mof_unit_64771.cif
_audit_creation_date              2012-12-10T21:11:34-0500
_audit_creation_method            fapswitch 2.2
_symmetry_space_group_name_H-M    P1
_symmetry_Int_Tables_number       1
_space_group_crystal_system       triclinic
_cell_length_a                    17.608307
_cell_length_b                    16.80202
_cell_length_c                    10.38412
_cell_angle_alpha                 90.000019
_cell_angle_beta                  90.596791
_cell_angle_gamma                 90.0
_cell_volume                      3072.02848156

loop_
_atom_site_label
_atom_site_type_symbol
_atom_type_description
_atom_site_fract_x
_atom_site_fract_y
_atom_site_fract_z
_atom_type_partial_charge
C1    C     C_R   0.353255 0.500000 0.498877 0.913283
C2    C     C_R   0.646745 0.500000 0.501123 0.913283
C3    C     C_R   0.886471 0.500000 0.502200 0.139045
C4    C     C_R   0.113529 0.500000 0.497800 0.139045
C5    C     C_1   0.966330 0.500000 0.500714 -0.033098
C6    C     C_1   0.033670 0.500000 0.499286 -0.033098
C7    C     C_R   0.452186 0.833387 0.417505 -0.246088
C8    C     C_R   0.547814 0.166613 0.582495 -0.246087
C9    C     C_R   0.547814 0.833387 0.582495 -0.246088
C10   C     C_R   0.452186 0.166613 0.417505 -0.246088
C11   C     C_R   0.452446 0.749466 0.418456 0.292829
C12   C     C_R   0.547554 0.250534 0.581544 0.292829
C13   C     C_R   0.547554 0.749466 0.581544 0.292829
C14   C     C_R   0.452446 0.250533 0.418456 0.292829
C15   C     C_R   0.500000 0.876268 0.500000 0.092855
C16   C     C_R   0.500000 0.123732 0.500000 0.092855
C17   C     C_1   0.500000 0.963616 0.500000 0.015930
C18   C     C_1   0.500000 0.036384 0.500000 0.015930
C19   C     C_R   0.514165 0.500000 0.259886 0.925405
C20   C     C_R   0.485835 0.500000 0.740114 0.925405
C21   C     C_R   0.555214 0.645236 0.097864 0.180340
C22   C     C_R   0.444786 0.354764 0.902136 0.180340
C23   C     C_R   0.444786 0.645236 0.902136 0.180340
C24   C     C_R   0.555214 0.354764 0.097864 0.180341
C25   C     C_R   0.528545 0.717932 0.048735 0.324297
C26   C     C_R   0.471455 0.282068 0.951265 0.324298
C27   C     C_R   0.471455 0.717932 0.951266 0.324298
C28   C     C_R   0.528545 0.282068 0.048734 0.324298
C29   C     C_R   0.476948 0.572616 0.944869 -0.086494
C30   C     C_R   0.523052 0.427384 0.055131 -0.086494
C31   C     C_R   0.523052 0.572616 0.055131 -0.086494
C32   C     C_R   0.476948 0.427384 0.944869 -0.086494
C33   C     C_R   0.467513 0.500000 0.878316 -0.083736
C34   C     C_R   0.532487 0.500000 0.121684 -0.083736
C35   C     C_R   0.847751 0.572292 0.502469 -0.133718
C36   C     C_R   0.152249 0.427708 0.497531 -0.133718
C37   C     C_R   0.152249 0.572292 0.497531 -0.133718
C38   C     C_R   0.847751 0.427708 0.502468 -0.133718
C39   C     C_R   0.769084 0.572385 0.502575 -0.140373
C40   C     C_R   0.230916 0.427615 0.497425 -0.140373
C41   C     C_R   0.230916 0.572385 0.497425 -0.140373
C42   C     C_R   0.769084 0.427615 0.502575 -0.140372
C43   C     C_R   0.729292 0.500000 0.502261 -0.042589
C44   C     C_R   0.270708 0.500000 0.497739 -0.042589
H1    H     H_    0.878300 0.628298 0.502148 0.152905
H2    H     H_    0.121700 0.371702 0.497852 0.152905
H3    H     H_    0.121700 0.628298 0.497852 0.152905
H4    H     H_    0.878300 0.371702 0.502148 0.152905
H5    H     H_    0.739670 0.628931 0.502073 0.193753
H6    H     H_    0.260330 0.371069 0.497926 0.193753
H7    H     H_    0.260330 0.628931 0.497927 0.193753
H8    H     H_    0.739670 0.371069 0.502073 0.193753
H9    H     H_    0.414398 0.864994 0.352309 0.171883
H10   H     H_    0.585602 0.135006 0.647691 0.171883
H11   H     H_    0.585602 0.864994 0.647691 0.171883
H12   H     H_    0.414398 0.135006 0.352309 0.171883
N1    N     N_R   0.500000 0.707230 0.500000 -0.117932
N2    N     N_R   0.500000 0.292770 0.500000 -0.117932
O1    O     O_R   0.389110 0.566570 0.499990 -0.600309
O2    O     O_R   0.610890 0.433430 0.500010 -0.600309
O3    O     O_R   0.610890 0.566570 0.500010 -0.600309
O4    O     O_R   0.389110 0.433430 0.499990 -0.600309
O5    O     O_R   0.499990 0.566540 0.316770 -0.591426
O6    O     O_R   0.500010 0.433460 0.683230 -0.591426
O7    O     O_R   0.500010 0.566540 0.683230 -0.591426
O8    O     O_R   0.499990 0.433460 0.316770 -0.591426
Zn1   Zn    Zn3+2 0.500000 0.588860 0.500000 1.025621
Zn2   Zn    Zn3+2 0.500000 0.411140 0.500000 1.025621
O9    O     O_3   0.557100 0.212828 0.101866 -0.720372
H13   H     H_    0.517129 0.171429 0.098616 0.344982
O10   O     O_3   0.442900 0.787172 0.898134 -0.720372
H14   H     H_    0.482871 0.828571 0.901385 0.344982
O11   O     O_3   0.442900 0.212828 0.898133 -0.720372
H15   H     H_    0.482870 0.171429 0.901384 0.344982
O12   O     O_3   0.557100 0.787172 0.101867 -0.720372
H16   H     H_    0.517129 0.828571 0.098616 0.344982
I1    I     I_    0.653350 0.647558 0.219310 -0.245877
I2    I     I_    0.346650 0.352442 0.780689 -0.245877
I3    I     I_    0.346650 0.647559 0.780690 -0.245877
I4    I     I_    0.653350 0.352441 0.219310 -0.245877
I5    I     I_    0.375002 0.695577 0.287670 -0.313727
I6    I     I_    0.624998 0.304423 0.712330 -0.313727
I7    I     I_    0.624998 0.695577 0.712330 -0.313727
I8    I     I_    0.375002 0.304423 0.287670 -0.313727

loop_
_geom_bond_atom_site_label_1
_geom_bond_atom_site_label_2
_ccdc_geom_bond_type
O8    Zn2   S    
C4    C36   A    
O11   H15   S    
C28   O9    S    
C14   I8    S    
C1    O4    A    
C11   I5    S    
C7    C11   A    
C21   C31   A    
C22   C32   A    
C23   C29   A    
C38   C42   A    
C1    O1    A    
C5    C6    T    
C2    O2    A    
C13   N1    A    
C29   C33   A    
C26   O11   S    
C19   O8    A    
C9    C13   A    
O1    Zn1   S    
C24   I4    S    
C3    C38   A    
C19   O5    A    
O7    Zn1   S    
C36   H2    S    
C9    H11   S    
C23   C27   A    
C37   H3    S    
C10   H12   S    
C38   H4    S    
C2    O3    A    
C12   N2    A    
C7    C15   A    
C8    C16   A    
N1    Zn1   S    
C14   N2    A    
O5    Zn1   S    
C30   C34   A    
C20   O7    A    
C36   C40   A    
C22   I2    S    
C4    C6    S    
C10   C14   A    
C8    H10   S    
C39   C43   A    
C25   O12   S    
C20   O6    A    
C35   C39   A    
O12   H16   S    
O3    Zn1   S    
C1    C44   S    
C3    C35   A    
C2    C43   S    
C8    C12   A    
C17   C18   T    
C31   C34   A    
C12   I6    S    
C20   C33   S    
N2    Zn2   S    
C39   H5    S    
C41   C44   A    
C42   C43   A    
C7    H9    S    
C35   H1    S    
O6    Zn2   S    
C27   O10   S    
C15   C17   S    
C21   C25   A    
C24   C28   A    
C3    C5    S    
C19   C34   S    
C25   C27   A    
C13   I7    S    
C26   C28   A    
O4    Zn2   S    
C32   C33   A    
C9    C15   A    
O10   H14   S    
C29   C31   A    
C10   C16   A    
C30   C32   A    
C40   H6    S    
C37   C41   A    
O9    H13   S    
C24   C30   A    
C40   C44   A    
C4    C37   A    
O2    Zn2   S    
C16   C18   S    
C22   C26   A    
C21   I1    S    
C23   I3    S    
C11   N1    A    
C41   H7    S    
C42   H8    S    
