data_mof_unit_15255.cif
_audit_creation_date              2012-12-10T17:27:50-0500
_audit_creation_method            fapswitch 2.2
_symmetry_space_group_name_H-M    P1
_symmetry_Int_Tables_number       1
_space_group_crystal_system       triclinic
_cell_length_a                    10.657706
_cell_length_b                    11.946111
_cell_length_c                    12.860156
_cell_angle_alpha                 93.6982
_cell_angle_beta                  89.91977
_cell_angle_gamma                 85.966258
_cell_volume                      1629.845074

loop_
_atom_site_label
_atom_site_type_symbol
_atom_type_description
_atom_site_fract_x
_atom_site_fract_y
_atom_site_fract_z
_atom_type_partial_charge
C1    C     C_R   0.499989 0.522490 0.700462 0.907192
C2    C     C_R   0.444188 0.633139 0.863603 -0.186270
C3    C     C_R   0.552865 0.447330 0.865972 -0.194189
C4    C     C_R   0.739305 0.497597 0.484729 0.903089
C5    C     C_R   0.542069 0.449986 0.973128 0.105166
C6    C     C_R   0.480512 0.546535 0.025370 0.152777
C7    C     C_R   0.465629 0.550802 0.131487 -0.299143
C8    C     C_R   0.575641 0.365074 0.137530 0.049451
C9    C     C_R   0.589323 0.358379 0.028927 0.106343
C10   C     C_R   0.380461 0.954614 0.402940 -0.024062
C11   C     C_R   0.393387 0.837709 0.412465 -0.023688
C12   C     C_R   0.946959 0.392497 0.481608 0.008541
C13   C     C_R   0.549363 0.858417 0.542282 -0.009166
C14   C     C_R   0.540744 0.975873 0.535626 0.047057
C15   C     C_R   0.455619 0.024773 0.464766 0.084225
C16   C     C_R   0.503987 0.477247 0.299301 0.914447
C17   C     C_R   0.448750 0.142631 0.458348 -0.007399
C18   C     C_R   0.604831 0.161544 0.588474 0.038900
C19   C     C_R   0.615083 0.045191 0.598035 -0.301229
C20   C     C_R   0.259449 0.501103 0.509649 0.919066
C21   C     C_R   0.906095 0.284559 0.453644 -0.138528
C22   C     C_R   0.972368 0.187888 0.486143 0.111090
C23   C     C_R   0.873604 0.493607 0.466851 -0.165711
C24   C     C_R   0.074712 0.199708 0.553034 -0.205274
C25   C     C_R   0.118923 0.305739 0.576656 0.175500
C26   C     C_R   0.065097 0.400484 0.527026 0.040502
C27   C     C_R   0.931945 0.594669 0.458785 0.168416
C28   C     C_R   0.057058 0.597025 0.482434 -0.235579
C29   C     C_R   0.124550 0.501345 0.515882 -0.140821
C30   C     C_R   0.513555 0.461982 0.187621 -0.081753
C31   C     C_R   0.501052 0.536492 0.811723 -0.060519
C32   C     C_R   0.433888 0.638165 0.970914 -0.162989
H1    H     H_    0.404170 0.702443 0.821207 0.164649
H2    H     H_    0.102297 0.673700 0.470705 0.186841
H3    H     H_    0.417104 0.624654 0.170839 0.167788
H4    H     H_    0.387539 0.712381 0.011083 0.144282
H5    H     H_    0.202335 0.977821 0.351552 0.203272
H6    H     H_    0.313490 0.964448 0.256883 0.199156
H7    H     H_    0.842916 0.072996 0.487929 0.201875
H8    H     H_    0.991331 0.015962 0.483786 0.194076
H9    H     H_    0.724672 0.265379 0.183734 0.211911
H10   H     H_    0.586631 0.201839 0.173856 0.223080
H11   H     H_    0.599048 0.375244 0.823060 0.187450
H12   H     H_    0.384510 0.183090 0.404974 0.160468
H13   H     H_    0.662484 0.215171 0.636207 0.150768
H14   H     H_    0.680986 0.009788 0.653194 0.167743
H15   H     H_    0.336287 0.782942 0.365354 0.134459
H16   H     H_    0.614059 0.819401 0.596266 0.146213
H17   H     H_    0.824617 0.274573 0.404565 0.171143
H18   H     H_    0.118589 0.127056 0.588358 0.161045
I1    I     I_    0.847344 0.744597 0.398932 -0.388033
I2    I     I_    0.682227 0.209590 0.953409 -0.411297
I3    I     I_    0.235889 0.319426 0.710167 -0.331047
N1    N     N_R   0.523130 0.207800 0.519340 -0.109677
N2    N     N_R   0.476870 0.792180 0.480660 -0.104547
N3    N     N_3   0.291464 0.001085 0.331287 -0.467590
N4    N     N_3   0.931207 0.079170 0.454332 -0.434618
N5    N     N_3   0.627772 0.276088 0.197629 -0.431013
O1    O     O_R   0.506170 0.421690 0.658830 -0.602895
O2    O     O_R   0.491330 0.609320 0.646410 -0.629556
O3    O     O_R   0.690660 0.406170 0.506210 -0.639650
O4    O     O_R   0.675810 0.593790 0.493790 -0.585282
O5    O     O_R   0.508670 0.390680 0.353590 -0.608522
O6    O     O_R   0.493830 0.578310 0.341170 -0.623093
O7    O     O_R   0.324190 0.406210 0.506210 -0.605963
O8    O     O_R   0.309340 0.593830 0.493790 -0.634447
Zn1   Zn    Zn3+2 0.509910 0.374720 0.508290 0.968395
Zn2   Zn    Zn3+2 0.490090 0.625280 0.491710 0.967174

loop_
_geom_bond_atom_site_label_1
_geom_bond_atom_site_label_2
_ccdc_geom_bond_type
C13   H16   S    
C6    C32   A    
C5    C9    A    
C6    C7    A    
N1    Zn1   S    
C16   O5    A    
C23   C27   A    
C3    C5    A    
C10   N3    S    
O3    Zn1   S    
O1    Zn1   S    
C11   H15   S    
O4    Zn2   S    
C10   C15   A    
C4    O4    A    
C8    C30   A    
H10   N5    S    
C22   N4    S    
C21   H17   S    
N2    Zn2   S    
C19   H14   S    
H6    N3    S    
C4    O3    A    
C7    C30   A    
C21   C22   A    
C3    C31   A    
C17   N1    A    
C12   C23   A    
C3    H11   S    
C9    I2    S    
C32   H4    S    
C2    H1    S    
C20   O8    A    
C28   C29   A    
C27   I1    S    
H9    N5    S    
C22   C24   A    
C20   C29   S    
C1    O1    A    
C24   H18   S    
C5    C6    A    
O5    Zn1   S    
C17   H12   S    
O7    Zn1   S    
C10   C11   A    
C18   N1    A    
C16   C30   S    
O8    Zn2   S    
C12   C21   A    
C18   H13   S    
O6    Zn2   S    
C20   O7    A    
C1    C31   S    
C11   N2    A    
C24   C25   A    
O2    Zn2   S    
C26   C29   A    
C2    C32   A    
C18   C19   A    
C1    O2    A    
C12   C26   A    
C27   C28   A    
C15   C17   A    
C4    C23   S    
C14   C15   A    
C2    C31   A    
H8    N4    S    
C16   O6    A    
C28   H2    S    
C8    N5    S    
C25   C26   A    
C13   C14   A    
H5    N3    S    
C7    H3    S    
C14   C19   A    
C25   I3    S    
C8    C9    A    
C13   N2    A    
H7    N4    S    
