data_mof_unit_42712.cif
_audit_creation_date              2012-12-11T16:17:53-0500
_audit_creation_method            fapswitch 2.2
_symmetry_space_group_name_H-M    P1
_symmetry_Int_Tables_number       1
_space_group_crystal_system       triclinic
_cell_length_a                    14.056431
_cell_length_b                    14.055801
_cell_length_c                    30.056604
_cell_angle_alpha                 96.974014
_cell_angle_beta                  96.918979
_cell_angle_gamma                 61.340442
_cell_volume                      5159.09681819

loop_
_atom_site_label
_atom_site_type_symbol
_atom_type_description
_atom_site_fract_x
_atom_site_fract_y
_atom_site_fract_z
_atom_type_partial_charge
C1    C     C_R   0.386427 0.709763 0.441850 0.546311
C2    C     C_R   0.341316 0.239522 0.223066 -0.087906
C3    C     C_R   0.349872 0.247974 0.269931 -0.099889
C4    C     C_R   0.326933 0.348161 0.293147 0.026654
C5    C     C_R   0.310253 0.331085 0.199345 0.035771
C6    C     C_1   0.300165 0.320483 0.151260 -0.036436
C7    C     C_1   0.345263 0.355225 0.341046 -0.061570
C8    C     C_1   0.290298 0.303037 0.111315 0.010467
C9    C     C_R   0.762424 0.370343 0.399597 -0.027335
C10   C     C_R   0.782640 0.269085 0.377461 -0.140723
C11   C     C_R   0.806280 0.246766 0.332456 -0.142500
C12   C     C_R   0.399042 0.381240 0.426461 0.548322
C13   C     C_R   0.810483 0.325128 0.309461 0.030573
C14   C     C_R   0.799985 0.422752 0.332260 0.274955
C15   C     C_R   0.774859 0.445252 0.377080 -0.101642
C16   C     C_R   0.843824 0.387402 0.161493 -0.135610
C17   C     C_R   0.874505 0.381937 0.118706 -0.140403
C18   C     C_R   0.871879 0.210247 0.101063 -0.124164
C19   C     C_R   0.841142 0.214292 0.144331 0.057602
C20   C     C_R   0.831489 0.302561 0.175109 0.012086
C21   C     C_1   0.821950 0.304073 0.222050 0.049597
C22   C     C_1   0.817117 0.310098 0.261878 0.048363
C23   C     C_R   0.709387 0.406029 0.442217 0.545677
C24   C     C_R   0.892978 0.291347 0.088704 -0.012684
C25   C     C_R   0.367632 0.765482 0.400679 -0.008851
C26   C     C_R   0.455682 0.764625 0.382623 -0.130928
C27   C     C_R   0.446073 0.792351 0.338872 -0.134748
C28   C     C_R   0.348074 0.823227 0.312777 0.009405
C29   C     C_R   0.255221 0.835209 0.331752 0.060170
C30   C     C_R   0.266714 0.804774 0.375738 -0.135658
C31   C     C_R   0.252974 0.830238 0.151629 0.027813
C32   C     C_R   0.231145 0.864512 0.108138 -0.183884
C33   C     C_R   0.403053 0.868562 0.112338 0.247669
C34   C     C_R   0.389619 0.711579 0.568210 0.546254
C35   C     C_R   0.423429 0.840801 0.157361 0.039153
C36   C     C_R   0.345263 0.826727 0.177414 -0.052327
C37   C     C_1   0.350170 0.825531 0.225451 0.110774
C38   C     C_1   0.349716 0.826352 0.265406 0.091314
C39   C     C_R   0.301183 0.891141 0.089388 -0.044370
C40   C     C_R   0.365328 0.363491 0.592400 0.018521
C41   C     C_R   0.431623 0.268785 0.614951 -0.122290
C42   C     C_R   0.412413 0.262649 0.658624 -0.119065
C43   C     C_R   0.326613 0.350565 0.679789 0.030081
C44   C     C_R   0.254849 0.441156 0.656398 -0.105604
C45   C     C_R   0.402174 0.383031 0.552341 0.540477
C46   C     C_R   0.273711 0.447490 0.612696 -0.130078
C47   C     C_R   0.217275 0.416794 0.835796 0.015596
C48   C     C_R   0.210319 0.394282 0.879112 -0.151039
C49   C     C_R   0.392685 0.242904 0.878766 -0.108099
C50   C     C_R   0.400337 0.261219 0.835119 0.255612
C51   C     C_R   0.311863 0.346627 0.813217 0.014776
C52   C     C_1   0.315087 0.351851 0.766224 0.062101
C53   C     C_1   0.318789 0.351903 0.726660 0.010716
C54   C     C_R   0.295586 0.304899 0.899913 -0.056713
C55   C     C_1   0.760773 0.377215 0.612749 -0.012675
C56   C     C_R   0.712942 0.407770 0.568535 0.546257
C57   C     C_R   0.738451 0.414308 0.729118 -0.096588
C58   C     C_R   0.757714 0.397785 0.774938 -0.089865
C59   C     C_R   0.922838 0.230479 0.759683 -0.101030
C60   C     C_R   0.903534 0.247032 0.713798 -0.104610
C61   C     C_R   0.811600 0.339431 0.698505 0.040166
C62   C     C_R   0.850026 0.305916 0.790320 0.047164
C63   C     C_1   0.875636 0.293462 0.837697 -0.042283
C64   C     C_1   0.788910 0.357250 0.651447 -0.056035
C65   C     C_1   0.904794 0.282934 0.876949 -0.002598
C66   C     C_1   0.375197 0.759683 0.613343 -0.014513
C67   C     C_1   0.366017 0.364339 0.380763 -0.010086
C68   C     C_R   0.279995 0.916003 0.717238 -0.118309
C69   C     C_R   0.266455 0.936294 0.763350 -0.115310
C70   C     C_R   0.405795 0.751822 0.775768 -0.105537
C71   C     C_R   0.419376 0.731566 0.729643 -0.103766
C72   C     C_R   0.356309 0.813459 0.700288 0.034138
C73   C     C_R   0.328831 0.854100 0.792650 0.037231
C74   C     C_1   0.312645 0.876507 0.839861 -0.054261
C75   C     C_1   0.365777 0.788757 0.652678 -0.057972
C76   C     C_1   0.293232 0.903993 0.878662 -0.011850
C77   C     C_R   0.950611 0.272941 0.048175 0.541286
C78   C     C_R   0.294689 0.440126 0.269465 -0.103562
C79   C     C_R   0.275280 0.270158 0.065387 0.550780
C80   C     C_R   0.261036 0.953185 0.048732 0.548580
C81   C     C_R   0.952285 0.269176 0.922117 0.545724
C82   C     C_R   0.276516 0.266543 0.939672 0.546029
C83   C     C_R   0.261587 0.950894 0.922901 0.537006
C84   C     C_R   0.286036 0.431673 0.222519 -0.100019
Cr1   Cr    Cr6+3 0.581000 0.584320 0.508140 1.023049
Cr2   Cr    Cr6+3 0.339110 0.576430 0.496080 1.024009
Cr3   Cr    Cr6+3 0.579910 0.339270 0.495810 1.028172
Cr4   Cr    Cr6+3 0.082090 0.079210 0.982490 1.042150
Cr5   Cr    Cr6+3 0.082460 0.324610 0.994920 1.032205
Cr6   Cr    Cr6+3 0.323630 0.087860 0.996130 1.049075
H1    H     H_    0.277756 0.517798 0.287278 0.134668
H2    H     H_    0.884520 0.141110 0.077552 0.176565
H3    H     H_    0.815665 0.170923 0.315025 0.159271
H4    H     H_    0.156243 0.874944 0.089483 0.191127
H5    H     H_    0.197928 0.807953 0.389994 0.163005
H6    H     H_    0.534529 0.734932 0.401029 0.141310
H7    H     H_    0.261204 0.502911 0.204384 0.144804
H8    H     H_    0.517287 0.783409 0.324473 0.156864
H9    H     H_    0.136126 0.444016 0.895938 0.180098
H10   H     H_    0.187900 0.509190 0.672713 0.139260
H11   H     H_    0.220924 0.521253 0.596098 0.133799
H12   H     H_    0.502439 0.202634 0.600110 0.134518
H13   H     H_    0.460550 0.175666 0.894889 0.148733
H14   H     H_    0.467814 0.191988 0.676688 0.105543
H15   H     H_    0.666799 0.485739 0.717552 0.104074
H16   H     H_    0.359405 0.161513 0.205300 0.143520
H17   H     H_    0.701636 0.457260 0.798357 0.112313
H18   H     H_    0.995212 0.159789 0.771349 0.105820
H19   H     H_    0.960266 0.188357 0.690403 0.107793
H20   H     H_    0.230240 0.979586 0.694849 0.108403
H21   H     H_    0.206950 0.015859 0.776151 0.105172
H22   H     H_    0.454573 0.687851 0.798106 0.113620
H23   H     H_    0.477903 0.651642 0.716763 0.108139
H24   H     H_    0.375872 0.176331 0.287989 0.122832
H25   H     H_    0.891060 0.445140 0.110383 0.138844
H26   H     H_    0.836123 0.455227 0.185019 0.136951
H27   H     H_    0.758232 0.524426 0.393155 0.139752
H28   H     H_    0.773511 0.209967 0.394025 0.146827
O1    O     O_R   0.688580 0.499770 0.460490 -0.522738
O2    O     O_R   0.348600 0.476260 0.536540 -0.503449
O3    O     O_R   0.494840 0.313840 0.539010 -0.515818
O4    O     O_R   0.672120 0.351750 0.545910 -0.493990
O5    O     O_3   0.500010 0.500010 0.500010 -0.244957
O6    O     O_R   0.167510 0.972920 0.030390 -0.518461
O7    O     O_R   0.990840 0.178580 0.027590 -0.497289
O8    O     O_R   0.972840 0.345510 0.038590 -0.518628
O9    O     O_R   0.181550 0.320660 0.045200 -0.497884
O10   O     O_R   0.346150 0.177650 0.050510 -0.478449
O11   O     O_R   0.314200 0.996600 0.036060 -0.457896
O12   O     O_R   0.480400 0.672610 0.462660 -0.502232
O13   O     O_R   0.168690 0.969990 0.933130 -0.497912
O14   O     O_R   0.991920 0.175870 0.937430 -0.491654
O15   O     O_R   0.974010 0.342590 0.941330 -0.503665
O16   O     O_R   0.182630 0.317940 0.955040 -0.497937
O17   O     O_R   0.347320 0.174720 0.953250 -0.517607
O18   O     O_R   0.315290 0.993890 0.945900 -0.507961
O19   O     O_3   0.162730 0.163890 0.991180 -0.253851
O20   O     O_R   0.315310 0.685650 0.451800 -0.512049
O21   O     O_R   0.346220 0.474990 0.446280 -0.496003
O22   O     O_R   0.492270 0.312460 0.441630 -0.504545
O23   O     O_R   0.669740 0.350480 0.455640 -0.495837
O24   O     O_R   0.691150 0.501150 0.557860 -0.504715
O25   O     O_R   0.482790 0.673890 0.552920 -0.493340
O26   O     O_R   0.317880 0.687030 0.549170 -0.507862
C85   C     C_2   0.823977 0.123940 0.156349 0.590129
O27   O     O_2   0.784917 0.130459 0.191516 -0.510424
O28   O     O_R   0.851077 0.031202 0.126790 -0.674197
H29   H     H_    0.835274 0.975844 0.138445 0.365793
C86   C     C_2   0.175386 0.803476 0.169974 0.605277
O29   O     O_2   0.080839 0.842086 0.154555 -0.500192
O30   O     O_R   0.210777 0.731900 0.204058 -0.699097
H30   H     H_    0.150403 0.720518 0.213601 0.341003
C87   C     C_2   0.147143 0.875657 0.306191 0.578333
O31   O     O_2   0.079271 0.853305 0.316837 -0.532906
O32   O     O_R   0.121460 0.941667 0.270686 -0.688982
H31   H     H_    0.045400 0.964269 0.256244 0.360949
C88   C     C_2   0.525344 0.829195 0.183301 0.575805
O33   O     O_2   0.568961 0.763542 0.212029 -0.532630
O34   O     O_R   0.572017 0.892799 0.174692 -0.642618
H32   H     H_    0.641158 0.876961 0.194305 0.340874
O35   O     O_3   0.479481 0.882497 0.092676 -0.501081
C89   C     C_3   0.526538 0.799517 0.058089 0.036593
H33   H     H_    0.554206 0.832605 0.033607 0.158536
H34   H     H_    0.468020 0.774845 0.038751 0.103827
C90   C     C_3   0.625222 0.699769 0.076863 -0.271066
H35   H     H_    0.684346 0.724516 0.095185 0.199080
H36   H     H_    0.598984 0.663985 0.100770 0.168450
C91   C     C_3   0.680593 0.613802 0.039115 -0.473369
H37   H     H_    0.623245 0.586673 0.020847 0.152797
H38   H     H_    0.751592 0.542365 0.053331 0.166026
H39   H     H_    0.709387 0.646966 0.015125 0.156139
C92   C     C_2   0.123464 0.511051 0.814625 0.577796
O36   O     O_2   0.033331 0.549602 0.828845 -0.522347
O37   O     O_R   0.137900 0.557597 0.779132 -0.704187
H40   H     H_    0.067990 0.621101 0.767915 0.338883
O38   O     O_3   0.496442 0.197081 0.814541 -0.563022
C93   C     C_3   0.490908 0.109091 0.788064 0.005733
H41   H     H_    0.540536 0.090388 0.758988 0.156970
H42   H     H_    0.407203 0.128096 0.773651 0.111114
C94   C     C_3   0.538432 0.008312 0.815002 -0.269401
H43   H     H_    0.616389 0.996563 0.833371 0.190717
H44   H     H_    0.480720 0.019936 0.839906 0.155447
C95   C     C_3   0.559034 0.906490 0.784323 -0.467604
H45   H     H_    0.483670 0.918553 0.763708 0.165530
H46   H     H_    0.585806 0.836354 0.804918 0.160754
H47   H     H_    0.623578 0.887697 0.761630 0.154702
O39   O     O_3   0.798819 0.503209 0.309475 -0.560162
C96   C     C_3   0.906661 0.480671 0.304523 0.010215
H48   H     H_    0.906731 0.512334 0.272411 0.161985
H49   H     H_    0.965651 0.391964 0.301902 0.119210
C97   C     C_3   0.944575 0.539222 0.343096 -0.269861
H50   H     H_    0.887203 0.627831 0.344294 0.187983
H51   H     H_    0.945416 0.508318 0.375529 0.154662
C98   C     C_3   0.058469 0.520968 0.337156 -0.463220
H52   H     H_    0.116732 0.432784 0.336528 0.154673
H53   H     H_    0.084287 0.563585 0.365649 0.164718
H54   H     H_    0.059708 0.553069 0.305350 0.164332

loop_
_geom_bond_atom_site_label_1
_geom_bond_atom_site_label_2
_ccdc_geom_bond_type
C58   C62   A    
C57   H15   S    
C55   C56   S    
C63   C65   T    
C27   H8    S    
C90   H35   S    
C14   O39   S    
C44   H10   S    
C41   C42   A    
C32   H4    S    
C35   C36   A    
Cr3   O22   S    
Cr4   O6    S    
C34   C66   S    
C35   C88   S    
O35   C89   S    
Cr2   O26   S    
C52   C53   T    
C40   C46   A    
C79   O10   A    
C34   O26   A    
C26   C27   A    
C19   C85   S    
C74   C76   T    
C96   C97   S    
C18   C24   A    
C84   H7    S    
C96   H49   S    
C28   C29   A    
C37   C38   T    
C58   H17   S    
C86   O30   S    
C23   O1    A    
C5    C6    S    
C31   C86   S    
C98   H54   S    
C49   C54   A    
C11   C13   A    
C41   H12   S    
C71   H23   S    
C30   H5    S    
C50   O38   S    
C18   C19   A    
C73   C74   S    
C32   C39   A    
C82   O17   A    
Cr1   O1    S    
O37   H40   S    
C60   H19   S    
Cr6   O11   S    
C43   C53   S    
C91   H39   S    
O28   H29   S    
C44   C46   A    
C16   C17   A    
C93   H42   S    
C8    C79   S    
O30   H30   S    
C12   O22   A    
C69   C73   A    
C70   C71   A    
C80   O11   A    
C87   O32   S    
C9    C10   A    
C94   C95   S    
C68   C72   A    
C56   O24   A    
C11   H3    S    
C91   H38   S    
C98   H52   S    
C59   C60   A    
C90   H36   S    
C21   C22   T    
C88   O33   D    
Cr1   O25   S    
Cr1   O5    S    
C70   C73   A    
C4    C7    S    
C16   H26   S    
C76   C83   S    
C85   O28   S    
C92   O37   S    
C85   O27   D    
C89   H34   S    
Cr5   O8    S    
C26   H6    S    
C40   C45   S    
C12   C67   S    
C34   O25   A    
C17   C24   A    
Cr5   O15   S    
C97   H50   S    
C1    O20   A    
C47   C48   A    
C91   H37   S    
C1    O12   A    
C95   H47   S    
Cr3   O3    S    
C5    C84   A    
C68   C69   A    
C81   O14   A    
C6    C8    T    
C45   O3    A    
C25   C26   A    
C2    H16   S    
C15   H27   S    
C42   H14   S    
C60   C61   A    
C56   O4    A    
C82   O16   A    
C61   C64   S    
C48   C54   A    
C95   H45   S    
C97   H51   S    
C4    C78   A    
C29   C30   A    
C10   H28   S    
Cr1   O12   S    
C89   C90   S    
Cr6   O18   S    
C65   C81   S    
O34   H32   S    
C28   C38   S    
C16   C20   A    
C93   C94   S    
C55   C64   T    
C62   C63   S    
C50   C51   A    
C12   O21   A    
C68   H20   S    
Cr3   O23   S    
C57   C61   A    
C83   O18   A    
C70   H22   S    
Cr2   O21   S    
C47   C92   S    
C45   O2    A    
C40   C41   A    
Cr2   O5    S    
C93   H41   S    
C90   C91   S    
Cr5   O19   S    
C77   O8    A    
C43   C44   A    
C2    C5    A    
C42   C43   A    
Cr4   O14   S    
C3    C4    A    
C98   H53   S    
C54   C82   S    
Cr6   O19   S    
C77   O7    A    
C92   O36   D    
C17   H25   S    
C29   C87   S    
C89   H33   S    
Cr5   O9    S    
C25   C30   A    
C48   H9    S    
C79   O9    A    
O38   C93   S    
C59   C62   A    
Cr5   O16   S    
C94   H44   S    
C14   C15   A    
C31   C32   A    
C9    C23   S    
C3    H24   S    
C46   H11   S    
Cr1   O24   S    
C49   H13   S    
Cr3   O4    S    
C47   C51   A    
C1    C25   S    
C81   O15   A    
C78   H1    S    
C59   H18   S    
C18   H2    S    
C39   C80   S    
C19   C20   A    
C95   H46   S    
C83   O13   A    
C9    C15   A    
C97   C98   S    
C51   C52   S    
C86   O29   D    
Cr3   O5    S    
Cr6   O17   S    
C69   H21   S    
C72   C75   S    
C57   C58   A    
C36   C37   S    
C66   C75   T    
C33   C35   A    
C13   C22   S    
C2    C3    A    
C33   C39   A    
Cr4   O19   S    
Cr4   O7    S    
C80   O6    A    
C10   C11   A    
Cr2   O20   S    
C7    C67   T    
C78   C84   A    
C24   C77   S    
O39   C96   S    
C33   O35   S    
C20   C21   S    
C88   O34   S    
C49   C50   A    
C23   O23   A    
O32   H31   S    
Cr6   O10   S    
C31   C36   A    
C96   H48   S    
Cr2   O2    S    
Cr4   O13   S    
C71   C72   A    
C87   O31   D    
C13   C14   A    
C94   H43   S    
C27   C28   A    
