data_mof_unit_29641.cif
_audit_creation_date              2013-03-05T15:53:16-0500
_audit_creation_method            fapswitch 2.2
_symmetry_space_group_name_H-M    P1
_symmetry_Int_Tables_number       1
_space_group_crystal_system       triclinic
_cell_length_a                    11.516462
_cell_length_b                    10.608416
_cell_length_c                    10.022344
_cell_angle_alpha                 87.671367
_cell_angle_beta                  88.156027
_cell_angle_gamma                 94.142585
_cell_volume                      1219.47882719

loop_
_atom_site_label
_atom_site_type_symbol
_atom_site_description
_atom_site_fract_x
_atom_site_fract_y
_atom_site_fract_z
_atom_type_partial_charge
O1    O     O_R   0.500000 0.316780 0.614690 -0.668952
O2    O     O_R   0.499990 0.316750 0.385360 -0.616355
C1    C     C_R   0.515937 0.262381 0.502762 0.860606
O3    O     O_R   0.334450 0.500030 0.614670 -0.553882
O4    O     O_R   0.334440 0.500000 0.385330 -0.653009
C2    C     C_R   0.282347 0.500153 0.501458 0.879593
Zn1   Zn    Zn3+2 0.500010 0.500020 0.653130 0.983280
Zn2   Zn    Zn3+2 0.499990 0.499980 0.346870 1.010971
O5    O     O_R   0.500010 0.683250 0.614640 -0.592553
O6    O     O_R   0.500000 0.683220 0.385310 -0.600383
O7    O     O_R   0.665560 0.500000 0.614670 -0.635362
O8    O     O_R   0.665550 0.499970 0.385330 -0.504776
C3    C     C_R   0.493821 0.739950 0.497857 0.927722
C4    C     C_R   0.717760 0.501009 0.498217 0.933877
C5    C     C_1   0.161652 0.500073 0.503373 -0.097906
C6    C     C_1   0.059380 0.500063 0.501102 0.030639
C7    C     C_1   0.940726 0.500348 0.496965 0.030857
C8    C     C_1   0.838443 0.500693 0.495312 -0.105886
C9    C     C_R   0.526245 0.095016 0.757966 -0.258730
H1    H     H_    0.581241 0.179983 0.773545 0.182118
C10   C     C_R   0.485007 0.018393 0.869448 -0.096811
C11   C     C_R   0.407160 0.911178 0.849507 -0.117101
C12   C     C_R   0.387404 0.875340 0.717552 0.503034
C13   C     C_R   0.457545 0.935820 0.610772 -0.085207
C14   C     C_R   0.506424 0.056990 0.627469 0.006139
C15   C     C_R   0.543838 0.131059 0.512213 -0.106819
C16   C     C_R   0.584218 0.071702 0.398646 -0.021071
H2    H     H_    0.592956 0.894042 0.308018 0.198816
C17   C     C_R   0.557564 0.942796 0.391185 -0.236713
C18   C     C_R   0.492078 0.875386 0.494448 -0.127860
C19   C     C_R   0.360794 0.319229 0.159774 -0.266585
H3    H     H_    0.344974 0.332039 0.262055 0.209297
C20   C     C_R   0.301576 0.214363 0.107649 0.591207
C21   C     C_R   0.302135 0.207353 0.971442 -0.240731
H4    H     H_    0.247880 0.130422 0.931661 0.178577
C22   C     C_R   0.354238 0.304867 0.886301 -0.120575
C23   C     C_R   0.430353 0.406097 0.936623 0.122859
C24   C     C_R   0.432494 0.408072 0.080682 0.086754
N1    N     N_R   0.498930 0.498800 0.142780 -0.101370
C25   C     C_R   0.561931 0.590933 0.062659 0.032427
H5    H     H_    0.611386 0.663229 0.861067 0.141713
C26   C     C_R   0.561135 0.589986 0.920928 -0.174782
N2    N     N_R   0.498900 0.498720 0.857170 -0.100886
C27   C     C_2   0.665056 0.136780 0.295221 0.462881
H6    H     H_    0.689020 0.087824 0.206714 0.073381
O9    O     O_2   0.711508 0.241967 0.310777 -0.562289
C28   C     C_2   0.286595 0.308286 0.766395 0.558253
H7    H     H_    0.307030 0.251850 0.682393 0.025072
O10   O     O_2   0.193766 0.357383 0.769773 -0.557818
C29   C     C_2   0.522432 0.059806 0.002027 0.323877
H8    H     H_    0.586040 0.139934 0.007384 0.084071
O11   O     O_2   0.481834 0.009178 0.106123 -0.644592
C30   C     C_2   0.349821 0.832547 0.962482 0.548199
H9    H     H_    0.396600 0.810760 0.051480 0.084767
O12   O     O_2   0.249128 0.788987 0.956338 -0.512456
O13   O     O_3   0.307398 0.774630 0.696435 -0.552042
C31   C     C_3   0.218605 0.817196 0.615881 -0.247436
H10   H     H_    0.248603 0.826668 0.509286 0.126612
H11   H     H_    0.186546 0.907917 0.649240 0.149207
H12   H     H_    0.143418 0.745610 0.623920 0.205889
C32   C     C_2   0.630465 0.698158 0.117909 0.426579
H13   H     H_    0.635499 0.789932 0.065122 0.028098
O14   O     O_2   0.688372 0.684972 0.216110 -0.535996
O15   O     O_3   0.228012 0.125711 0.182153 -0.576503
C33   C     C_3   0.264899 0.103579 0.313419 -0.246655
H14   H     H_    0.236810 0.177889 0.379829 0.134033
H15   H     H_    0.360307 0.095620 0.316236 0.192278
H16   H     H_    0.222194 0.012134 0.353143 0.186407

loop_
_geom_bond_atom_site_label_1
_geom_bond_atom_site_label_2
_geom_bond_distance
_ccdc_geom_bond_type
C23   N2    1.416560 A    
O4    Zn2   1.932948 S    
C29   O11   1.217498 D    
C12   C13   1.422368 A    
C19   C20   1.391446 A    
Zn1   O5    1.966255 S    
C23   C24   1.445783 A    
Zn2   N1    2.046431 S    
Zn1   N2    2.044067 S    
C16   C17   1.385278 A    
H5    C26   1.083221 S    
C4    C8    1.389461 S    
C21   C22   1.401411 A    
C19   H3    1.051365 S    
C19   C24   1.408257 A    
Zn2   O8    1.957363 S    
C33   H16   1.108403 S    
O15   C33   1.411254 S    
C32   H13   1.085871 S    
C25   C26   1.421251 A    
C20   C21   1.369982 A    
C15   C16   1.405265 A    
C12   O13   1.387035 S    
C28   O10   1.222645 D    
C14   C15   1.408087 A    
O1    Zn1   1.996984 S    
C30   H9    1.082323 S    
O13   C31   1.411240 S    
Zn1   O7    1.932946 S    
C31   H10   1.110539 S    
C17   C18   1.401054 A    
O3    Zn1   1.957366 S    
O3    C2    1.300493 A    
H2    C17   1.082599 S    
C9    C10   1.403900 A    
O8    C4    1.298279 A    
C7    C8    1.178860 T    
C11   C30   1.486421 S    
O2    C1    1.313369 A    
C30   O12   1.221283 D    
O4    C2    1.292240 A    
C9    C14   1.405057 A    
O7    C4    1.294839 A    
C13   C18   1.412837 A    
C31   H11   1.115286 S    
C33   H15   1.109242 S    
C26   N2    1.356058 A    
C25   C32   1.474121 S    
C5    C6    1.178753 T    
C28   H7    1.082213 S    
C20   O15   1.395314 S    
C3    C18   1.437385 S    
C24   N1    1.368219 A    
C13   C14   1.384261 A    
C22   C28   1.453657 S    
Zn2   O6    1.996984 S    
C33   H14   1.111170 S    
N1    C25   1.386646 A    
C32   O14   1.215518 D    
O5    C3    1.300440 A    
C11   C12   1.411751 A    
C22   C23   1.453434 A    
C31   H12   1.108370 S    
C10   C29   1.483665 S    
C21   H4    1.088217 S    
C29   H8    1.085515 S    
C2    C5    1.389434 S    
C10   C11   1.421273 A    
C16   C27   1.484807 S    
C1    C15   1.452204 S    
O2    Zn2   1.966255 S    
C27   H6    1.084032 S    
C9    H1    1.083183 S    
C27   O9    1.220205 D    
C6    C7    1.368653 S    
O1    C1    1.296060 A    
O6    C3    1.302227 A    
