data_mof_unit_46825.cif
_audit_creation_date              2012-12-10T16:42:59-0500
_audit_creation_method            fapswitch 2.2
_symmetry_space_group_name_H-M    P1
_symmetry_Int_Tables_number       1
_space_group_crystal_system       triclinic
_cell_length_a                    7.52211
_cell_length_b                    8.70667
_cell_length_c                    13.045538
_cell_angle_alpha                 85.940439
_cell_angle_beta                  79.689743
_cell_angle_gamma                 103.379964
_cell_volume                      812.134180647

loop_
_atom_site_label
_atom_site_type_symbol
_atom_type_description
_atom_site_fract_x
_atom_site_fract_y
_atom_site_fract_z
_atom_type_partial_charge
C1    C     C_R   0.450129 0.198399 0.514097 0.846806
C2    C     C_R   0.544396 0.797089 0.510458 0.825693
C3    C     C_R   0.464585 0.484235 0.701653 0.774746
C4    C     C_R   0.534620 0.502830 0.298413 0.801984
C5    C     C_R   0.560173 0.502640 0.183652 -0.073562
C6    C     C_R   0.444119 0.462070 0.816309 -0.096632
C7    C     C_R   0.264455 0.388580 0.993567 -0.226993
C8    C     C_R   0.753691 0.548023 0.007672 -0.243173
C9    C     C_R   0.272177 0.385168 0.886419 0.155949
C10   C     C_R   0.738899 0.527045 0.116801 0.158080
C11   C     C_R   0.604700 0.518262 0.857482 -0.295295
C12   C     C_R   0.402378 0.466539 0.140025 -0.317527
C13   C     C_R   0.593353 0.511849 0.965462 0.145225
C14   C     C_R   0.419011 0.458071 0.032921 0.129249
C15   C     C_2   0.415721 0.026442 0.542630 -0.040119
C16   C     C_2   0.562028 0.958708 0.538960 -0.084583
Cu1   Cu    Cu3+1 0.686350 0.517570 0.488220 0.925233
Cu2   Cu    Cu3+1 0.313650 0.482430 0.511780 0.913610
H1    H     H_    0.266752 0.438081 0.190367 0.168112
H2    H     H_    0.739173 0.567443 0.805725 0.162741
H3    H     H_    0.139252 0.328205 0.047705 0.171089
H4    H     H_    0.889598 0.577163 0.955839 0.126468
H5    H     H_    0.935861 0.382810 0.588941 0.224511
H6    H     H_    0.064749 0.620441 0.412694 0.220275
N1    N     N_2   0.033570 0.455950 0.529530 -0.235475
N2    N     N_2   0.966430 0.544050 0.470470 -0.223337
O1    O     O_R   0.621060 0.286250 0.492350 -0.589409
O2    O     O_R   0.378940 0.713750 0.507650 -0.601162
O3    O     O_R   0.306310 0.256580 0.512240 -0.581707
O4    O     O_R   0.693690 0.743420 0.487760 -0.587211
O5    O     O_R   0.631800 0.512400 0.642670 -0.588625
O6    O     O_R   0.368200 0.487600 0.357330 -0.583613
O7    O     O_R   0.317060 0.482730 0.662570 -0.606197
O8    O     O_R   0.682940 0.517270 0.337430 -0.577663
C17   C     C_3   0.907127 0.500842 0.156937 -0.365370
C18   C     C_3   0.868118 0.324854 0.202693 -0.783281
H7    H     H_    0.740962 0.286136 0.264998 0.258374
H8    H     H_    0.844707 0.246582 0.140591 0.222782
H9    H     H_    0.983758 0.301520 0.237770 0.224222
H10   H     H_    0.030458 0.531192 0.092342 0.177308
H11   H     H_    0.949661 0.584134 0.213511 0.213316
C19   C     C_3   0.093872 0.297765 0.854488 -0.399966
C20   C     C_3   0.013467 0.129419 0.912815 -0.870986
H12   H     H_    0.124830 0.065173 0.913253 0.260384
H13   H     H_    0.944121 0.132109 0.994646 0.245527
H14   H     H_    0.905116 0.061472 0.874492 0.249677
H15   H     H_    0.987281 0.366970 0.870352 0.204221
H16   H     H_    0.114558 0.283619 0.771045 0.227274
C21   C     C_3   0.214761 0.932576 0.590448 -0.365689
C22   C     C_3   0.130033 0.002846 0.684771 -0.902780
H17   H     H_    0.232513 0.033964 0.736178 0.264817
H18   H     H_    0.086558 0.108823 0.658566 0.276509
H19   H     H_    0.003900 0.915216 0.730461 0.245901
H20   H     H_    0.127676 0.926538 0.529819 0.204602
H21   H     H_    0.204401 0.810772 0.625415 0.254046
C23   C     C_3   0.733064 0.034167 0.582013 -0.384749
C24   C     C_3   0.677242 0.082805 0.691820 -0.832354
H22   H     H_    0.589110 0.168629 0.691550 0.251816
H23   H     H_    0.599585 0.976122 0.747588 0.249835
H24   H     H_    0.802237 0.141539 0.720757 0.225621
H25   H     H_    0.817524 0.947274 0.590515 0.222645
H26   H     H_    0.827046 0.134889 0.527187 0.228808

loop_
_geom_bond_atom_site_label_1
_geom_bond_atom_site_label_2
_ccdc_geom_bond_type
C22   H18   S    
C20   H12   S    
C16   C23   S    
C8    C13   A    
C1    C15   S    
Cu1   O8    S    
C7    C14   A    
C2    C16   S    
C8    H4    S    
C17   C18   S    
C2    O4    A    
C3    C6    S    
C21   H21   S    
C6    C9    A    
C1    O3    A    
Cu1   Cu2   S    
C9    C19   S    
C5    C10   A    
Cu2   O3    S    
C19   H16   S    
C13   C14   A    
C3    O5    A    
Cu1   O4    S    
C20   H13   S    
C24   H22   S    
C4    O6    A    
Cu2   N1    S    
C17   H11   S    
Cu1   N2    S    
C12   H1    S    
C18   H8    S    
C18   H7    S    
C20   H14   S    
C12   C14   A    
C22   H17   S    
C23   H26   S    
C19   H15   S    
C15   C21   S    
Cu1   O5    S    
C10   C17   S    
C4    O8    A    
C11   H2    S    
C24   H23   S    
C22   H19   S    
Cu2   O6    S    
Cu2   O7    S    
C3    O7    A    
C17   H10   S    
C21   H20   S    
Cu1   O1    S    
C7    C9    A    
C11   C13   A    
H5    N1    S    
Cu2   O2    S    
C23   C24   S    
C5    C12   A    
C8    C10   A    
C21   C22   S    
C19   C20   S    
C6    C11   A    
C1    O1    A    
C23   H25   S    
C24   H24   S    
C2    O2    A    
N1    N2    D    
C7    H3    S    
C18   H9    S    
C15   C16   D    
H6    N2    S    
C4    C5    S    
