data_mof_unit_17736.cif
_audit_creation_date              2012-12-11T15:23:36-0500
_audit_creation_method            fapswitch 2.2
_symmetry_space_group_name_H-M    P1
_symmetry_Int_Tables_number       1
_space_group_crystal_system       triclinic
_cell_length_a                    6.927426
_cell_length_b                    17.514598
_cell_length_c                    19.293335
_cell_angle_alpha                 109.554916
_cell_angle_beta                  90.105043
_cell_angle_gamma                 90.626812
_cell_volume                      2205.69228031

loop_
_atom_site_label
_atom_site_type_symbol
_atom_type_description
_atom_site_fract_x
_atom_site_fract_y
_atom_site_fract_z
_atom_type_partial_charge
O1    O     O_R   0.505810 0.439670 0.562310 -0.546591
O2    O     O_R   0.169070 0.404920 0.411210 -0.548598
O3    O     O_R   0.005550 0.560330 0.437690 -0.536532
C1    C     C_R   0.338406 0.381426 0.382939 0.653445
O4    O     O_R   0.175650 0.430000 0.560110 -0.537490
O5    O     O_R   0.012170 0.585580 0.587650 -0.512008
C2    C     C_R   0.344414 0.415270 0.582071 0.733978
O6    O     O_R   0.499180 0.414420 0.412350 -0.543667
O7    O     O_3   0.341430 0.551020 0.508860 -0.351552
V1    V     V_3+5 0.063930 0.490540 0.498360 1.468948
O8    O     O_R   0.682850 0.595080 0.588790 -0.540479
C3    C     C_R   0.852670 0.618237 0.616796 0.803705
O9    O     O_R   0.676280 0.570000 0.439890 -0.546394
C4    C     C_R   0.845464 0.584994 0.418119 0.717370
V2    V     V_3+5 0.564760 0.509460 0.501640 1.461227
O10   O     O_3   0.837130 0.448980 0.491140 -0.382404
C5    C     C_R   0.773301 0.875465 0.180993 -0.267138
C6    C     C_R   0.914784 0.860057 0.126459 -0.091811
C7    C     C_R   0.043595 0.794563 0.116353 0.103618
C8    C     C_R   0.050546 0.754252 0.169986 0.064026
C9    C     C_R   0.899484 0.769213 0.222838 -0.019584
C10   C     C_R   0.759732 0.828731 0.226969 0.100381
C11   C     C_R   0.200643 0.700050 0.173998 0.156328
C12   C     C_R   0.184930 0.657247 0.223792 -0.194637
C13   C     C_R   0.028530 0.667779 0.271423 0.054396
C14   C     C_R   0.885995 0.724314 0.271704 0.054772
C15   C     C_R   0.729401 0.735966 0.321064 0.098690
C16   C     C_R   0.590932 0.794357 0.323221 -0.167652
C17   C     C_R   0.607807 0.841246 0.277532 -0.170122
C18   C     C_R   0.015374 0.623561 0.320055 -0.197118
C19   C     C_R   0.857996 0.633391 0.368082 -0.074803
C20   C     C_R   0.714597 0.689497 0.367880 -0.204669
H1    H     H_    0.670935 0.923662 0.186991 0.129434
H2    H     H_    0.297913 0.615751 0.226149 0.128192
H3    H     H_    0.126650 0.580349 0.319687 0.117952
H4    H     H_    0.593601 0.698181 0.405195 0.141650
H5    H     H_    0.470197 0.804262 0.360716 0.140705
H6    H     H_    0.499410 0.886435 0.280729 0.124884
C21   C     C_3   0.817823 0.816514 0.741208 0.120382
C22   C     C_3   0.986424 0.766086 0.697906 0.270354
C23   C     C_3   0.867462 0.688109 0.687324 -0.169371
C24   C     C_3   0.696730 0.738409 0.730150 -0.188920
C25   C     C_3   0.784643 0.733290 0.802325 0.114769
C26   C     C_3   0.953110 0.682507 0.759231 0.269858
C27   C     C_3   0.073678 0.760856 0.770228 -0.227837
C28   C     C_3   0.903331 0.811297 0.813164 -0.114509
H7    H     H_    0.542252 0.729371 0.713693 0.170159
H8    H     H_    0.228096 0.769921 0.786745 0.154635
C29   C     C_3   0.483128 0.236713 0.304626 -0.132639
C30   C     C_3   0.322343 0.180907 0.257586 -0.136984
H9    H     H_    0.271187 0.123244 0.263756 0.099844
H10   H     H_    0.562828 0.225658 0.350267 0.101184
C31   C     C_3   0.414591 0.189350 0.187737 -0.009327
C32   C     C_3   0.575179 0.244404 0.234013 -0.121113
C33   C     C_3   0.448752 0.319401 0.242151 -0.139364
C34   C     C_3   0.287976 0.263582 0.195098 -0.132653
C35   C     C_3   0.195916 0.255897 0.265715 -0.120195
C36   C     C_3   0.356502 0.310947 0.312007 -0.005656
H11   H     H_    0.730799 0.239409 0.220130 0.102850
H12   H     H_    0.499906 0.377061 0.235973 0.098455
H13   H     H_    0.208321 0.274612 0.149432 0.104040
H14   H     H_    0.040281 0.260885 0.279571 0.101572
C37   C     C_R   0.258998 0.132727 0.826955 -0.252385
C38   C     C_R   0.417615 0.141881 0.874874 -0.095568
C39   C     C_R   0.562866 0.201266 0.877590 0.106335
C40   C     C_R   0.556391 0.243327 0.825927 0.083374
C41   C     C_R   0.394384 0.233020 0.778564 0.017210
C42   C     C_R   0.244337 0.178707 0.780253 0.088394
C43   C     C_R   0.707196 0.295966 0.820376 -0.177602
C44   C     C_R   0.695221 0.338793 0.771173 -0.180207
C45   C     C_R   0.532698 0.330584 0.726032 0.086903
C46   C     C_R   0.381232 0.277700 0.729607 0.067247
C47   C     C_R   0.216411 0.269564 0.684291 0.094337
C48   C     C_R   0.067969 0.215617 0.687085 -0.183524
C49   C     C_R   0.082340 0.170248 0.734270 -0.162735
C50   C     C_R   0.519835 0.374312 0.677217 -0.188447
C51   C     C_R   0.355288 0.367460 0.632559 -0.072238
C52   C     C_R   0.203247 0.315282 0.636843 -0.204873
H15   H     H_    0.145909 0.088912 0.825590 0.137669
H16   H     H_    0.838129 0.303498 0.852688 0.150255
H17   H     H_    0.814122 0.378389 0.768359 0.162919
H18   H     H_    0.637314 0.414802 0.674867 0.144445
H19   H     H_    0.076135 0.309280 0.602469 0.122495
H20   H     H_    0.940608 0.208402 0.652678 0.133034
H21   H     H_    0.965660 0.128868 0.735195 0.134016
O11   O     O_R   0.271890 0.085690 0.087580 -0.537131
O12   O     O_R   0.595690 0.070020 0.939870 -0.536883
O13   O     O_R   0.758900 0.914390 0.912370 -0.535186
C53   C     C_R   0.426933 0.088150 0.920723 0.718669
O14   O     O_R   0.602020 0.095100 0.088770 -0.543435
O15   O     O_R   0.765280 0.939660 0.062330 -0.540885
C54   C     C_R   0.432667 0.118756 0.116916 0.670036
O16   O     O_R   0.265520 0.060430 0.937620 -0.540971
O17   O     O_3   0.429560 0.949050 0.991100 -0.367099
V3    V     V_3+5 0.707160 0.009450 0.001650 1.400264
O18   O     O_R   0.094540 0.929890 0.060190 -0.537227
C55   C     C_R   0.925169 0.913047 0.080198 0.715166
O19   O     O_R   0.088200 0.904800 0.911290 -0.543236
C56   C     C_R   0.918315 0.881443 0.883475 0.734129
V4    V     V_3+5 0.206300 0.990390 0.998440 1.408567
O20   O     O_3   0.934030 0.050940 0.008900 -0.369051
C57   C     C_3   0.740357 0.892971 0.730920 -0.688616
H22   H     H_    0.689938 0.879089 0.673333 0.239615
H23   H     H_    0.617644 0.916109 0.768783 0.200473
H24   H     H_    0.856145 0.939988 0.743073 0.199313
C58   C     C_3   0.668997 0.714400 0.861676 -0.697725
H25   H     H_    0.600335 0.653551 0.838364 0.240791
H26   H     H_    0.766056 0.715339 0.907783 0.204468
H27   H     H_    0.555003 0.760376 0.882511 0.204086
Br1   Br    Br    0.052319 0.585123 0.772336 -0.601999
C59   C     C_3   0.140964 0.759579 0.042216 -0.714096
H28   H     H_    0.061213 0.774278 0.998430 0.188035
H29   H     H_    0.290291 0.783602 0.043973 0.211542
H30   H     H_    0.137440 0.692484 0.023598 0.215056
C60   C     C_3   0.714681 0.224493 0.938150 -0.757619
H31   H     H_    0.667114 0.211254 0.987785 0.205198
H32   H     H_    0.851760 0.192903 0.917362 0.212650
H33   H     H_    0.740444 0.290979 0.958592 0.193213
C61   C     C_3   0.389563 0.692065 0.133254 -0.751984
H34   H     H_    0.441858 0.752130 0.133546 0.219930
H35   H     H_    0.504865 0.668292 0.160311 0.207127
H36   H     H_    0.375020 0.648932 0.076423 0.211887
Br2   Br    Br    0.134578 0.790196 0.622495 -0.578114

loop_
_geom_bond_atom_site_label_1
_geom_bond_atom_site_label_2
_ccdc_geom_bond_type
C9    C14   A    
C10   C17   A    
C23   C24   S    
C7    C8    A    
C4    C19   S    
C1    O6    A    
C35   H14   S    
C37   H15   S    
C51   C52   A    
C42   C49   A    
C14   C15   A    
C18   H3    S    
C20   H4    S    
C16   C17   A    
C6    C7    A    
C11   C61   S    
C18   C19   A    
C61   H36   S    
C40   C43   A    
C58   H25   S    
C29   C32   S    
O19   C56   A    
C34   C35   S    
C57   H24   S    
C41   C46   A    
C47   C48   A    
C44   H17   S    
C37   C42   A    
O8    V2    S    
C52   H19   S    
C49   H21   S    
C59   H28   S    
C60   H32   S    
O12   V3    S    
C17   H6    S    
C11   C12   A    
C44   C45   A    
O1    V2    S    
C6    C55   S    
O9    C4    A    
O11   V4    S    
O7    V1    S    
C2    C51   S    
C60   H33   S    
C40   C41   A    
O13   V3    S    
C33   H12   S    
C39   C60   S    
C43   C44   A    
C5    H1    S    
C38   C53   S    
C31   C54   S    
O15   C55   A    
C30   H9    S    
C21   C24   S    
C32   H11   S    
C61   H35   S    
C22   C27   S    
C30   C31   S    
C48   C49   A    
C41   C42   A    
O14   V3    S    
C12   C13   A    
C50   H18   S    
C21   C22   S    
O4    C2    A    
C13   C14   A    
C31   C32   S    
C12   H2    S    
C29   C36   S    
C25   C58   S    
O2    C1    A    
C25   C26   S    
C3    C23   S    
O14   C54   A    
C19   C20   A    
C8    C11   A    
O17   V4    S    
C47   C52   A    
C29   H10   S    
O18   C55   A    
C33   C34   S    
C5    C6    A    
O17   V3    S    
C59   H29   S    
C50   C51   A    
C57   H23   S    
O16   V4    S    
O3    C4    A    
C21   C28   S    
C22   C23   S    
C39   C40   A    
O6    V2    S    
O19   V4    S    
O12   C53   A    
C23   C26   S    
C24   C25   S    
O2    V1    S    
C26   C27   S    
C21   C57   S    
C27   H8    S    
C13   C18   A    
C22   Br2   S    
C32   C33   S    
C15   C20   A    
O1    C2    A    
C30   C35   S    
C48   H20   S    
C46   C47   A    
O5    V1    S    
C61   H34   S    
C7    C59   S    
V3    O20   S    
C5    C10   A    
C38   C39   A    
C28   C56   S    
O9    V2    S    
O7    V2    S    
C45   C46   A    
O3    V1    S    
V1    O10   S    
O5    C3    A    
C35   C36   S    
C45   C50   A    
C58   H26   S    
C16   H5    S    
O18   V4    S    
V4    O20   S    
C59   H30   S    
C24   H7    S    
C53   O16   A    
C57   H22   S    
C25   C28   S    
C31   C34   S    
O13   C56   A    
O15   V3    S    
C37   C38   A    
C27   C28   S    
O4    V1    S    
C8    C9    A    
C29   C30   S    
C33   C36   S    
C1    C36   S    
C15   C16   A    
C34   H13   S    
C43   H16   S    
O11   C54   A    
C60   H31   S    
C9    C10   A    
V2    O10   S    
O8    C3    A    
C58   H27   S    
C26   Br1   S    
