data_mof_unit_13580.cif
_audit_creation_date              2012-12-10T20:38:24-0500
_audit_creation_method            fapswitch 2.2
_symmetry_space_group_name_H-M    P1
_symmetry_Int_Tables_number       1
_space_group_crystal_system       triclinic
_cell_length_a                    9.868416
_cell_length_b                    10.678773
_cell_length_c                    16.781723
_cell_angle_alpha                 89.991614
_cell_angle_beta                  83.971828
_cell_angle_gamma                 90.041979
_cell_volume                      1758.7215141

loop_
_atom_site_label
_atom_site_type_symbol
_atom_type_description
_atom_site_fract_x
_atom_site_fract_y
_atom_site_fract_z
_atom_type_partial_charge
C1    C     C_R   0.501653 0.739950 0.494542 0.878346
C2    C     C_R   0.534069 0.517573 0.259712 -0.049021
C3    C     C_R   0.381804 0.936014 0.488528 0.104725
C4    C     C_R   0.479529 0.503966 0.652943 0.852158
C5    C     C_R   0.505215 0.871555 0.478467 -0.159861
C6    C     C_R   0.627381 0.938187 0.452767 0.145993
C7    C     C_R   0.623442 0.068433 0.456454 -0.256216
C8    C     C_R   0.501582 0.129283 0.482989 -0.149693
C9    C     C_R   0.379881 0.063420 0.490185 0.144693
C10   C     C_3   0.262956 0.068392 0.554248 -0.472677
C11   C     C_3   0.265089 0.926615 0.552791 -0.486043
C12   C     C_R   0.349897 0.492205 0.786567 -0.212684
C13   C     C_R   0.916617 0.463033 0.566140 0.185212
C14   C     C_R   0.940213 0.528311 0.432362 -0.143869
C15   C     C_R   0.083940 0.527934 0.432265 -0.128538
C16   C     C_R   0.500341 0.260086 0.497382 0.899100
C17   C     C_R   0.058896 0.466824 0.566900 0.127472
C18   C     C_3   0.045357 0.529061 0.647710 -0.086156
C19   C     C_3   0.891530 0.519182 0.647450 -0.496771
C20   C     C_R   0.520275 0.501273 0.346596 0.900047
C21   C     C_R   0.462084 0.537207 0.736841 -0.015849
C22   C     C_R   0.548050 0.627751 0.764816 -0.217138
C23   C     C_R   0.432840 0.501679 0.135024 -0.209554
C24   C     C_R   0.526090 0.668577 0.843402 -0.158439
C25   C     C_R   0.419312 0.617163 0.894868 0.205041
C26   C     C_R   0.328445 0.532315 0.865597 -0.182288
C27   C     C_3   0.763164 0.878347 0.424015 -0.371919
C28   C     C_3   0.857105 0.872015 0.490755 -0.836155
C29   C     C_3   0.095421 0.665761 0.646922 -0.310914
C30   C     C_3   0.066828 0.726104 0.729398 -0.911033
C31   C     C_R   0.433480 0.467941 0.215004 0.042015
C32   C     C_R   0.638778 0.593971 0.221702 0.061344
C33   C     C_R   0.637072 0.625506 0.141269 -0.231949
C34   C     C_R   0.531498 0.584151 0.099108 0.159252
C35   C     C_2   0.415826 0.631663 0.981302 -0.249963
C36   C     C_2   0.531795 0.620017 0.015379 -0.210185
H1    H     H_    0.630727 0.668264 0.725657 0.138983
H2    H     H_    0.085615 0.469461 0.694108 0.159606
H3    H     H_    0.844216 0.451014 0.692110 0.184097
H4    H     H_    0.837299 0.610292 0.646500 0.210601
H5    H     H_    0.630213 0.624547 0.979750 0.148942
H6    H     H_    0.245881 0.491818 0.904993 0.123141
H7    H     H_    0.355721 0.462080 0.101073 0.133310
H8    H     H_    0.281161 0.424273 0.764746 0.132285
H9    H     H_    0.317835 0.625506 0.017275 0.147343
H10   H     H_    0.595161 0.736714 0.864763 0.126893
H11   H     H_    0.808332 0.819662 0.543290 0.271282
H12   H     H_    0.716001 0.685853 0.112452 0.132082
H13   H     H_    0.953020 0.823467 0.468270 0.233407
H14   H     H_    0.882693 0.967842 0.510134 0.245401
H15   H     H_    0.750548 0.784275 0.398396 0.230477
H16   H     H_    0.814437 0.934364 0.373684 0.181206
H17   H     H_    0.339690 0.299459 0.217921 0.179662
H18   H     H_    0.236151 0.421572 0.245175 0.177741
H19   H     H_    0.955593 0.728352 0.748296 0.261134
H20   H     H_    0.118633 0.673145 0.774391 0.271544
H21   H     H_    0.105852 0.823719 0.727093 0.250098
H22   H     H_    0.206419 0.669160 0.629355 0.248632
H23   H     H_    0.716671 0.121400 0.442263 0.176518
H24   H     H_    0.045215 0.721631 0.602469 0.199387
H25   H     H_    0.740723 0.742439 0.259634 0.166378
H26   H     H_    0.837327 0.614314 0.237460 0.173958
H27   H     H_    0.291285 0.108837 0.611296 0.194470
H28   H     H_    0.170009 0.108863 0.532237 0.205268
H29   H     H_    0.294956 0.884823 0.609058 0.202109
H30   H     H_    0.173217 0.885468 0.530039 0.204390
H31   H     H_    0.896014 0.552884 0.378334 0.160639
H32   H     H_    0.147131 0.552383 0.377979 0.156771
N1    N     N_R   0.857140 0.500860 0.500530 -0.098019
N2    N     N_R   0.142780 0.500820 0.500530 -0.108670
N3    N     N_3   0.332070 0.382926 0.250644 -0.447509
N4    N     N_3   0.743302 0.644951 0.265103 -0.470230
O1    O     O_R   0.385310 0.683210 0.499990 -0.628308
O2    O     O_R   0.614650 0.683240 0.500000 -0.613296
O3    O     O_R   0.371780 0.500000 0.615800 -0.632579
O4    O     O_R   0.601120 0.500040 0.615800 -0.616453
O5    O     O_R   0.385350 0.316760 0.500000 -0.607924
O6    O     O_R   0.614690 0.316790 0.500010 -0.618956
O7    O     O_R   0.398880 0.499960 0.384200 -0.606402
O8    O     O_R   0.628220 0.500000 0.384200 -0.610676
Zn1   Zn    Zn3+2 0.346870 0.499980 0.499990 0.934737
Zn2   Zn    Zn3+2 0.653130 0.500020 0.500010 0.938041

loop_
_geom_bond_atom_site_label_1
_geom_bond_atom_site_label_2
_ccdc_geom_bond_type
C28   H11   S    
C10   H27   S    
C7    C8    A    
C32   N4    S    
C1    C5    S    
C1    O2    A    
C16   O5    A    
C5    C6    A    
C30   H21   S    
C23   H7    S    
C2    C32   A    
C18   C19   S    
C7    H23   S    
N2    Zn1   S    
C4    O3    A    
N1    Zn2   S    
C28   H14   S    
H18   N3    S    
C35   C36   D    
C8    C9    A    
C14   H31   S    
C9    C10   S    
C16   O6    A    
C11   H30   S    
C31   N3    S    
C17   N2    A    
C8    C16   S    
C21   C22   A    
C36   H5    S    
O2    Zn2   S    
O1    Zn1   S    
C27   H15   S    
C33   C34   A    
C20   O8    A    
C2    C20   S    
C24   C25   A    
O8    Zn2   S    
C10   C11   S    
O4    Zn2   S    
O7    Zn1   S    
C13   C19   S    
O3    Zn1   S    
C25   C26   A    
C22   H1    S    
C30   H20   S    
C12   C21   A    
C12   C26   A    
C2    C31   A    
C23   C31   A    
C29   C30   S    
C3    C9    A    
C28   H13   S    
O6    Zn2   S    
C6    C27   S    
C29   H24   S    
O5    Zn1   S    
C23   C34   A    
C17   C18   S    
H26   N4    S    
C18   C29   S    
C19   H3    S    
C25   C35   S    
H25   N4    S    
C14   N1    A    
C22   C24   A    
C35   H9    S    
C27   H16   S    
C26   H6    S    
C15   N2    A    
C20   O7    A    
C10   H28   S    
C3    C5    A    
C6    C7    A    
C30   H19   S    
C13   C17   A    
C1    O1    A    
C32   C33   A    
C18   H2    S    
C24   H10   S    
C12   H8    S    
C4    C21   S    
C13   N1    A    
C15   H32   S    
C34   C36   S    
C4    O4    A    
C3    C11   S    
C19   H4    S    
C29   H22   S    
C27   C28   S    
C33   H12   S    
C14   C15   A    
C11   H29   S    
H17   N3    S    
