data_mof_unit_26271.cif
_audit_creation_date              2012-12-10T17:44:36-0500
_audit_creation_method            fapswitch 2.2
_symmetry_space_group_name_H-M    P1
_symmetry_Int_Tables_number       1
_space_group_crystal_system       triclinic
_cell_length_a                    10.024588
_cell_length_b                    10.641034
_cell_length_c                    15.352871
_cell_angle_alpha                 92.475721
_cell_angle_beta                  67.099494
_cell_angle_gamma                 90.207926
_cell_volume                      1507.07650754

loop_
_atom_site_label
_atom_site_type_symbol
_atom_type_description
_atom_site_fract_x
_atom_site_fract_y
_atom_site_fract_z
_atom_type_partial_charge
C1    C     C_R   0.502860 0.740320 0.493111 0.894595
C2    C     C_R   0.707841 0.358326 0.039819 0.064676
C3    C     C_R   0.581833 0.432713 0.088160 -0.042896
C4    C     C_R   0.408998 0.494852 0.676008 0.902285
C5    C     C_R   0.803259 0.334785 0.085526 0.010630
C6    C     C_R   0.769831 0.384147 0.178019 -0.316726
C7    C     C_R   0.570467 0.502465 0.170347 0.457618
C8    C     C_R   0.254386 0.901358 0.476865 -0.127358
C9    C     C_R   0.117004 0.961635 0.517704 0.464636
C10   C     C_R   0.096166 0.061485 0.583421 -0.332096
C11   C     C_R   0.214153 0.118222 0.594219 0.497182
C12   C     C_R   0.405566 0.436398 0.916054 0.079796
C13   C     C_R   0.354513 0.066692 0.544039 -0.050439
C14   C     C_R   0.370720 0.945473 0.501767 -0.058544
C15   C     C_R   0.498889 0.876541 0.492582 -0.097644
C16   C     C_R   0.492129 0.262628 0.513689 0.885611
C17   C     C_R   0.611591 0.937506 0.509234 -0.264265
C18   C     C_R   0.602453 0.064240 0.531737 -0.047784
C19   C     C_R   0.479765 0.131269 0.536905 -0.135310
C20   C     C_R   0.770759 0.618852 0.653247 0.574404
C21   C     C_R   0.777974 0.614022 0.742039 -0.440196
C22   C     C_R   0.912629 0.621197 0.746462 0.452153
C23   C     C_R   0.264746 0.482943 0.975169 0.106444
C24   C     C_R   0.037035 0.609975 0.661721 -0.090010
C25   C     C_R   0.026017 0.555852 0.577106 0.002214
C26   C     C_R   0.883234 0.557804 0.575296 -0.036811
C27   C     C_R   0.970445 0.443120 0.428163 0.581680
C28   C     C_R   0.592209 0.495738 0.323526 0.895699
C29   C     C_R   0.114440 0.446821 0.427582 -0.192975
C30   C     C_R   0.353165 0.479977 0.778231 -0.105198
C31   C     C_R   0.651122 0.466511 0.221238 -0.172331
C32   C     C_R   0.167440 0.520082 0.934450 -0.004396
C33   C     C_R   0.212222 0.515792 0.836357 -0.231812
C34   C     C_R   0.505613 0.403570 0.956448 0.066926
C35   C     C_R   0.446712 0.435380 0.817895 -0.280120
C36   C     C_1   0.931562 0.256493 0.041479 0.131951
C37   C     C_1   0.272818 0.805260 0.403997 0.253653
C38   C     C_3   0.015839 0.942743 0.406245 -0.319424
C39   C     C_3   0.177357 0.180958 0.744739 -0.319602
C40   C     C_1   0.714086 0.123016 0.555942 0.237055
C41   C     C_3   0.014332 0.270330 0.323369 -0.393960
C42   C     C_3   0.590011 0.778798 0.714341 -0.310924
C43   C     C_3   0.560695 0.711060 0.149850 -0.295244
C44   C     C_3   0.870084 0.782124 0.859521 -0.315595
C45   C     C_R   0.472548 0.439434 0.052046 0.074979
C46   C     C_1   0.146640 0.696607 0.663246 0.315037
C47   C     C_1   0.026546 0.574157 0.990757 0.222833
C48   C     C_R   0.329157 0.475122 0.110715 -0.159629
C49   C     C_R   0.226271 0.494388 0.073110 -0.245554
C50   C     C_R   0.637259 0.337303 0.905380 -0.212429
C51   C     C_R   0.733873 0.310866 0.947825 -0.173482
H1    H     H_    0.118195 0.523339 0.121089 0.172403
H2    H     H_    0.294003 0.485588 0.186810 0.196724
H3    H     H_    0.664382 0.298768 0.834277 0.145613
H4    H     H_    0.020565 0.851963 0.366703 0.191690
H5    H     H_    0.113070 0.998568 0.365644 0.128842
H6    H     H_    0.920031 0.995364 0.407729 0.177698
H7    H     H_    0.281774 0.141074 0.741432 0.165361
H8    H     H_    0.089321 0.111155 0.772306 0.155915
H9    H     H_    0.148342 0.262844 0.796005 0.210593
H10   H     H_    0.017507 0.216593 0.383193 0.169439
H11   H     H_    0.125420 0.283201 0.269622 0.168267
H12   H     H_    0.705420 0.886074 0.507988 0.231483
H13   H     H_    0.954507 0.212590 0.289052 0.195614
H14   H     H_    0.659217 0.837689 0.741021 0.156965
H15   H     H_    0.510688 0.724110 0.771241 0.160540
H16   H     H_    0.525987 0.843695 0.690660 0.194279
H17   H     H_    0.595559 0.694250 0.071966 0.175051
H18   H     H_    0.655653 0.732386 0.168178 0.167818
H19   H     H_    0.488763 0.795490 0.170510 0.182723
H20   H     H_    0.750097 0.783231 0.895012 0.159570
H21   H     H_    0.905720 0.846345 0.799391 0.151875
H22   H     H_    0.913011 0.819845 0.911791 0.197989
H23   H     H_    0.989149 0.098728 0.624158 0.197144
H24   H     H_    0.683499 0.631750 0.806535 0.176976
H25   H     H_    0.204325 0.405473 0.368116 0.149992
H26   H     H_    0.834704 0.357023 0.216509 0.218581
H27   H     H_    0.830261 0.255431 0.907375 0.147302
H28   H     H_    0.139907 0.545380 0.804799 0.216202
H29   H     H_    0.555203 0.408040 0.770805 0.162710
N1    N     N_R   0.856800 0.501200 0.500850 -0.134371
N2    N     N_R   0.142390 0.501280 0.500880 -0.100505
N3    N     N_1   0.034499 0.193990 0.006232 -0.234957
N4    N     N_1   0.282021 0.727970 0.346782 -0.135941
N5    N     N_1   0.801446 0.173644 0.575474 -0.227535
N6    N     N_1   0.227396 0.769174 0.671952 -0.245233
N7    N     N_1   0.914277 0.618502 0.035844 -0.213615
O1    O     O_R   0.385310 0.683220 0.500000 -0.618506
O2    O     O_3   0.190541 0.222291 0.655764 -0.587190
O3    O     O_3   0.942496 0.387832 0.353576 -0.590144
O4    O     O_3   0.674656 0.698783 0.636508 -0.545252
O5    O     O_3   0.483046 0.608575 0.200203 -0.614285
O6    O     O_3   0.923578 0.657779 0.831353 -0.609311
O7    O     O_R   0.614640 0.683250 0.500010 -0.551618
O8    O     O_R   0.319840 0.499980 0.632240 -0.597886
O9    O     O_R   0.549160 0.500000 0.632250 -0.593349
O10   O     O_R   0.385360 0.316750 0.499990 -0.583172
O11   O     O_R   0.614690 0.316780 0.500000 -0.607289
O12   O     O_R   0.450840 0.500000 0.367750 -0.589121
O13   O     O_R   0.680160 0.500020 0.367760 -0.574386
O14   O     O_3   0.998751 0.918479 0.500079 -0.596587
Zn1   Zn    Zn3+2 0.346880 0.499980 0.499990 0.997888
Zn2   Zn    Zn3+2 0.653120 0.500020 0.500010 1.027704

loop_
_geom_bond_atom_site_label_1
_geom_bond_atom_site_label_2
_ccdc_geom_bond_type
C8    C9    A    
C27   C29   A    
C11   C13   A    
C41   H10   S    
C29   H25   S    
C12   C23   A    
C50   H3    S    
C30   C35   A    
C44   H20   S    
C18   C19   A    
C38   O14   S    
C3    C7    A    
C5    C6    A    
C16   O10   A    
C23   C49   A    
C39   H9    S    
C36   N3    T    
O11   Zn2   S    
C38   H6    S    
C5    C36   S    
C35   H29   S    
C27   O3    S    
C42   O4    S    
C18   C40   S    
C44   O6    S    
C4    O9    A    
C38   H4    S    
C1    O7    A    
C42   H14   S    
C37   N4    T    
C1    C15   S    
C9    C10   A    
O10   Zn1   S    
O8    Zn1   S    
C28   O13   A    
C1    O1    A    
C6    C31   A    
C43   H18   S    
C13   C14   A    
C41   H11   S    
C50   C51   A    
C48   H2    S    
C20   O4    S    
C34   C50   A    
C7    C31   A    
C13   C19   A    
C27   N1    A    
C24   C25   A    
C10   C11   A    
C33   H28   S    
C6    H26   S    
C25   C26   A    
C39   H7    S    
C3    C45   A    
O13   Zn2   S    
C32   C33   A    
C47   N7    T    
C40   N5    T    
C4    O8    A    
C11   O2    S    
C49   H1    S    
C39   H8    S    
C17   C18   A    
N2    Zn1   S    
C34   C45   A    
C12   C35   A    
C28   O12   A    
C48   C49   A    
O7    Zn2   S    
C43   H19   S    
C42   H16   S    
C22   O6    S    
C22   C24   A    
C2    C5    A    
C8    C37   S    
C12   C34   A    
N1    Zn2   S    
C45   C48   A    
C15   C17   A    
C8    C14   A    
C30   C33   A    
C28   C31   S    
O1    Zn1   S    
C26   N1    A    
C21   H24   S    
C43   O5    S    
C24   C46   S    
C23   C32   A    
C2    C3    A    
C51   H27   S    
C29   N2    A    
C17   H12   S    
C10   H23   S    
C16   O11   A    
C25   N2    A    
C20   C26   A    
C16   C19   S    
C7    O5    S    
C32   C47   S    
C44   H21   S    
C44   H22   S    
C2    C51   A    
O12   Zn1   S    
C38   H5    S    
C20   C21   A    
C9    O14   S    
O9    Zn2   S    
C42   H15   S    
C14   C15   A    
C41   H13   S    
C21   C22   A    
C39   O2    S    
C4    C30   S    
C41   O3    S    
C46   N6    T    
C43   H17   S    
