data_mof_unit_57993.cif
_audit_creation_date              2012-12-11T17:04:56-0500
_audit_creation_method            fapswitch 2.2
_symmetry_space_group_name_H-M    P1
_symmetry_Int_Tables_number       1
_space_group_crystal_system       triclinic
_cell_length_a                    17.497227
_cell_length_b                    24.67162
_cell_length_c                    14.880483
_cell_angle_alpha                 90.16246
_cell_angle_beta                  125.015805
_cell_angle_gamma                 90.067832
_cell_volume                      5260.90219344

loop_
_atom_site_label
_atom_site_type_symbol
_atom_type_description
_atom_site_fract_x
_atom_site_fract_y
_atom_site_fract_z
_atom_type_partial_charge
C1    C     C_R   0.856446 0.652408 0.904391 0.206806
C2    C     C_R   0.167198 0.644966 0.089677 0.199086
C3    C     C_R   0.358203 0.152739 0.904121 0.194593
C4    C     C_R   0.679495 0.137120 0.095796 0.202217
C5    C     C_R   0.887522 0.316972 0.005135 0.001205
C6    C     C_R   0.176760 0.359263 0.987764 0.039909
C7    C     C_R   0.382900 0.820922 0.010084 0.000464
C8    C     C_R   0.677416 0.860223 0.988255 0.035450
C9    C     C_R   0.951693 0.498819 0.276966 0.016349
C10   C     C_R   0.925714 0.499731 0.627243 0.041693
C11   C     C_R   0.453359 0.999356 0.279067 0.044885
C12   C     C_R   0.425550 0.000470 0.627447 0.040642
C13   C     C_R   0.676456 0.496095 0.705457 -0.039761
C14   C     C_R   0.302723 0.504578 0.362050 -0.049026
C15   C     C_R   0.176861 0.996683 0.700027 -0.035479
C16   C     C_R   0.803838 0.004044 0.359181 0.001230
C17   C     C_3   0.506840 0.449434 0.579766 0.119767
C18   C     C_3   0.471322 0.465018 0.461851 0.133209
C19   C     C_3   0.008032 0.950313 0.579478 0.126875
C20   C     C_3   0.972083 0.961997 0.459935 0.137423
C21   C     C_3   0.436881 0.487978 0.577202 0.158435
C22   C     C_3   0.539511 0.512786 0.503345 0.175328
C23   C     C_3   0.938634 0.990711 0.573364 0.148482
C24   C     C_3   0.040432 0.009332 0.495784 0.171338
C25   C     C_3   0.399352 0.503099 0.458707 0.010168
C26   C     C_3   0.576549 0.497139 0.621520 0.004018
C27   C     C_3   0.900752 0.002000 0.453425 0.011492
C28   C     C_3   0.077675 0.997580 0.615529 -0.004374
C29   C     C_3   0.468994 0.551516 0.500153 -0.183350
C30   C     C_3   0.506201 0.535870 0.619350 -0.190449
C31   C     C_3   0.970345 0.049919 0.488761 -0.197854
C32   C     C_3   0.007832 0.038246 0.609616 -0.177704
C33   C     C_R   0.892475 0.243984 0.115877 -0.073480
C34   C     C_R   0.196020 0.289033 0.885487 -0.033886
C35   C     C_R   0.250969 0.795779 0.004802 -0.026099
C36   C     C_R   0.693981 0.788444 0.887119 -0.039923
C37   C     C_R   0.872463 0.259791 0.015046 0.108076
C38   C     C_R   0.236407 0.324831 0.974565 0.085850
C39   C     C_R   0.332126 0.779636 0.016305 0.064215
C40   C     C_R   0.735868 0.824997 0.975005 0.090809
C41   C     C_R   0.818980 0.224932 0.925116 -0.137332
C42   C     C_R   0.333511 0.323986 0.052528 -0.158962
C43   C     C_R   0.347484 0.725831 0.002703 -0.175271
C44   C     C_R   0.833068 0.823864 0.052272 -0.160576
C45   C     C_R   0.946195 0.349858 0.093921 -0.161120
C46   C     C_R   0.091682 0.376796 0.901470 -0.125819
C47   C     C_R   0.444724 0.851578 0.097389 -0.085581
C48   C     C_R   0.592362 0.877694 0.901742 -0.116878
C49   C     C_R   0.285799 0.687184 0.992542 -0.070582
C50   C     C_R   0.884087 0.779981 0.053095 -0.132003
C51   C     C_R   0.764867 0.185162 0.928981 -0.090722
C52   C     C_R   0.385553 0.280669 0.053272 -0.123996
C53   C     C_R   0.208868 0.704222 0.991143 0.081300
C54   C     C_R   0.836843 0.737456 0.977522 0.106515
C55   C     C_R   0.759637 0.182443 0.019446 0.073495
C56   C     C_R   0.339458 0.238604 0.976157 0.101353
C57   C     C_R   0.185349 0.758366 0.983997 0.075028
C58   C     C_R   0.744629 0.746025 0.887010 0.007265
C59   C     C_R   0.831488 0.208130 0.118894 0.053133
C60   C     C_R   0.248013 0.247562 0.884620 0.004389
C61   C     C_3   0.156485 0.789347 0.046859 -0.173245
C62   C     C_3   0.661492 0.708840 0.831711 -0.090774
C63   C     C_3   0.916111 0.180219 0.216174 -0.165848
C64   C     C_3   0.166020 0.209762 0.827277 -0.091803
C65   C     C_3   0.979246 0.214181 0.201038 0.520677
C66   C     C_3   0.108999 0.254532 0.832188 0.486712
C67   C     C_3   0.238417 0.827196 0.081954 0.495563
C68   C     C_3   0.605492 0.755239 0.834240 0.486783
C69   C     C_R   0.879011 0.548189 0.455316 0.026913
C70   C     C_R   0.894824 0.547775 0.374563 -0.016758
C71   C     C_R   0.379729 0.049507 0.456347 0.042223
C72   C     C_R   0.395893 0.049029 0.375820 0.004280
C73   C     C_R   0.887121 0.499845 0.509604 0.053319
C74   C     C_R   0.906750 0.499285 0.335025 0.105388
C75   C     C_R   0.386854 0.001080 0.509992 0.031073
C76   C     C_R   0.408375 0.000412 0.337064 0.096460
C77   C     C_R   0.877447 0.450847 0.454750 -0.132960
C78   C     C_R   0.886289 0.450670 0.366765 -0.165455
C79   C     C_R   0.377010 0.952208 0.455085 -0.134092
C80   C     C_R   0.387625 0.952066 0.368716 -0.098688
C81   C     C_3   0.946550 0.600732 0.411471 0.095006
C82   C     C_3   0.924633 0.602580 0.495973 0.104026
C83   C     C_3   0.447688 0.101948 0.412998 0.080801
C84   C     C_3   0.425893 0.103735 0.497628 0.098376
C85   C     C_R   0.974884 0.544221 0.242648 0.006172
C86   C     C_R   0.940238 0.544482 0.690935 -0.077816
C87   C     C_R   0.475918 0.044414 0.243799 0.009845
C88   C     C_R   0.441178 0.045061 0.691760 -0.081758
C89   C     C_R   0.733456 0.453625 0.723145 0.282639
C90   C     C_R   0.248929 0.458909 0.309621 0.235880
C91   C     C_R   0.234098 0.953782 0.720872 0.288588
C92   C     C_R   0.749526 0.958624 0.308879 0.243242
C93   C     C_R   0.985364 0.454126 0.253810 -0.038465
C94   C     C_R   0.947063 0.455145 0.693328 -0.094154
C95   C     C_R   0.486549 0.954482 0.255562 -0.014866
C96   C     C_R   0.446391 0.955525 0.692896 -0.092121
C97   C     C_R   0.729830 0.542062 0.757030 0.250085
C98   C     C_R   0.266053 0.546658 0.288255 0.301220
C99   C     C_R   0.229578 0.042536 0.753680 0.244436
C100  C     C_R   0.768181 0.045143 0.283258 0.208382
C101  C     C_R   0.854076 0.348590 0.912840 0.168568
C102  C     C_R   0.184148 0.372001 0.083532 0.145864
C103  C     C_R   0.351401 0.849739 0.916218 0.185007
C104  C     C_R   0.684316 0.872283 0.083922 0.167253
C105  C     C_R   0.937490 0.653839 0.085261 0.256090
C106  C     C_R   0.080952 0.640818 0.907326 0.314327
C107  C     C_R   0.436998 0.154163 0.084564 0.262188
C108  C     C_R   0.595542 0.134894 0.913516 0.269974
C109  C     C_R   0.878292 0.684377 0.990864 -0.049194
C110  C     C_R   0.154404 0.665437 0.996896 -0.134996
C111  C     C_R   0.380131 0.185048 0.990111 -0.056032
C112  C     C_R   0.680744 0.153429 0.008849 -0.046079
H1    H     H_    0.453791 0.593982 0.470588 0.186858
H2    H     H_    0.516626 0.565564 0.681374 0.195417
H3    H     H_    0.953767 0.091019 0.452334 0.164669
H4    H     H_    0.018487 0.070350 0.667876 0.191493
H5    H     H_    0.814186 0.229101 0.850276 0.158465
H6    H     H_    0.367323 0.354236 0.116790 0.128723
H7    H     H_    0.407458 0.714058 0.003400 0.176253
H8    H     H_    0.867843 0.854386 0.116076 0.133716
H9    H     H_    0.299548 0.644547 0.990366 0.164730
H10   H     H_    0.958120 0.777857 0.116359 0.171037
H11   H     H_    0.723594 0.158983 0.858596 0.193604
H12   H     H_    0.459286 0.278419 0.117793 0.169292
H13   H     H_    0.163927 0.766258 0.115174 0.142843
H14   H     H_    0.671423 0.675064 0.886236 0.198607
H15   H     H_    0.920359 0.136954 0.200845 0.198124
H16   H     H_    0.176673 0.174993 0.879903 0.202788
H17   H     H_    0.875096 0.412216 0.487214 0.154096
H18   H     H_    0.888381 0.412013 0.333782 0.128924
H19   H     H_    0.374103 0.913543 0.487021 0.168867
H20   H     H_    0.391584 0.913656 0.337573 0.189810
H21   H     H_    0.911672 0.632936 0.348338 0.184288
H22   H     H_    0.988055 0.602157 0.581094 0.191632
H23   H     H_    0.412617 0.134172 0.350013 0.195944
H24   H     H_    0.489391 0.103100 0.582709 0.185636
H25   H     H_    0.992742 0.337496 0.177903 0.177432
H26   H     H_    0.064392 0.374588 0.815889 0.157769
H27   H     H_    0.487021 0.839451 0.182519 0.157872
H28   H     H_    0.565323 0.875719 0.816203 0.157819
H29   H     H_    0.949937 0.583977 0.238636 0.157955
H30   H     H_    0.906529 0.582848 0.658045 0.168422
H31   H     H_    0.450801 0.083947 0.239701 0.162010
H32   H     H_    0.409873 0.084145 0.660509 0.167185
H33   H     H_    0.978878 0.412025 0.267905 0.116310
H34   H     H_    0.929131 0.413589 0.665922 0.140619
H35   H     H_    0.480863 0.912609 0.271310 0.136425
H36   H     H_    0.427902 0.914035 0.665073 0.151283
N1    N     N_R   0.892620 0.603790 0.941770 -0.075040
N2    N     N_R   0.107380 0.603790 0.058230 -0.076343
N3    N     N_R   0.392620 0.103790 0.941770 -0.070350
N4    N     N_R   0.607380 0.103790 0.058230 -0.082239
N5    N     N_R   0.952270 0.397640 0.058010 -0.057550
N6    N     N_R   0.047730 0.397640 0.941990 -0.055863
N7    N     N_R   0.452270 0.897640 0.058010 -0.056236
N8    N     N_R   0.547730 0.897640 0.941990 -0.057451
N9    N     N_R   0.026310 0.529110 0.206760 -0.051913
N10   N     N_R   0.973690 0.529110 0.793240 -0.043565
N11   N     N_R   0.526310 0.029110 0.206760 -0.053316
N12   N     N_R   0.473690 0.029110 0.793240 -0.044158
N13   N     N_R   0.818570 0.472310 0.793020 -0.074957
N14   N     N_R   0.181430 0.472310 0.206980 -0.082271
N15   N     N_R   0.318570 0.972310 0.793020 -0.072608
N16   N     N_R   0.681430 0.972310 0.206980 -0.072069
N17   N     N_R   0.026930 0.472300 0.207330 -0.037299
N18   N     N_R   0.973070 0.472300 0.792670 -0.050288
N19   N     N_R   0.526930 0.972300 0.207330 -0.043596
N20   N     N_R   0.473070 0.972300 0.792670 -0.049617
N21   N     N_R   0.817960 0.529130 0.792460 -0.095422
N22   N     N_R   0.182040 0.529130 0.207540 -0.082346
N23   N     N_R   0.317960 0.029130 0.792460 -0.096381
N24   N     N_R   0.682040 0.029130 0.207540 -0.068414
N25   N     N_R   0.894850 0.397640 0.943830 -0.055998
N26   N     N_R   0.105150 0.397640 0.056170 -0.053298
N27   N     N_R   0.394850 0.897640 0.943830 -0.051613
N28   N     N_R   0.605150 0.897640 0.056170 -0.059983
N29   N     N_R   0.950040 0.603780 0.055950 -0.084188
N30   N     N_R   0.049960 0.603780 0.944050 -0.095773
N31   N     N_R   0.450040 0.103780 0.055950 -0.079957
N32   N     N_R   0.549960 0.103780 0.944050 -0.088980
Ni1   Ni    Ni4+2 0.934160 0.565860 0.869070 0.226687
Ni2   Ni    Ni4+2 0.065840 0.565860 0.130930 0.251091
Ni3   Ni    Ni4+2 0.434160 0.065860 0.869070 0.233513
Ni4   Ni    Ni4+2 0.565840 0.065860 0.130930 0.250185
Ni5   Ni    Ni4+2 0.067260 0.435560 0.132230 0.266074
Ni6   Ni    Ni4+2 0.932740 0.435560 0.867770 0.245660
Ni7   Ni    Ni4+2 0.567260 0.935560 0.132230 0.266313
Ni8   Ni    Ni4+2 0.432740 0.935560 0.867770 0.263838
N33   N     N_2   0.826694 0.670242 0.798007 -0.101946
H37   H     H_    0.822107 0.639436 0.748143 0.188874
C113  C     C_3   0.871328 0.718617 0.793264 -0.842470
H38   H     H_    0.841360 0.755619 0.803325 0.246763
H39   H     H_    0.859634 0.721372 0.711758 0.293166
H40   H     H_    0.947241 0.717973 0.858717 0.264236
N34   N     N_2   0.231190 0.664838 0.198410 -0.107962
H41   H     H_    0.276120 0.694744 0.206962 0.219338
C114  C     C_3   0.197150 0.672834 0.265339 -0.732078
H42   H     H_    0.257104 0.679771 0.351700 0.268631
H43   H     H_    0.158887 0.636433 0.263073 0.261004
H44   H     H_    0.152092 0.709228 0.236658 0.255928
N35   N     N_2   0.331659 0.170491 0.798810 -0.105167
H45   H     H_    0.326723 0.139485 0.749111 0.186446
C115  C     C_3   0.379105 0.218090 0.796136 -0.803002
H46   H     H_    0.350830 0.255607 0.807160 0.237348
H47   H     H_    0.367838 0.220980 0.714861 0.295989
H48   H     H_    0.455024 0.216256 0.861733 0.254989
N36   N     N_2   0.726818 0.164071 0.198791 -0.125599
H49   H     H_    0.784591 0.144568 0.261108 0.228061
C116  C     C_3   0.669763 0.182345 0.233287 -0.832071
H50   H     H_    0.711865 0.208082 0.307763 0.273006
H51   H     H_    0.644642 0.146532 0.254322 0.278975
H52   H     H_    0.611222 0.207089 0.167524 0.257608
N37   N     N_2   0.533874 0.396240 0.629698 -0.103449
H53   H     H_    0.574939 0.397399 0.714242 0.179234
C117  C     C_3   0.461178 0.355650 0.584631 -0.736436
H54   H     H_    0.493015 0.315417 0.618651 0.265483
H55   H     H_    0.422632 0.353437 0.494130 0.277512
H56   H     H_    0.412201 0.364724 0.607288 0.251860
N38   N     N_2   0.442298 0.430974 0.367489 -0.131774
H57   H     H_    0.410637 0.452397 0.295261 0.193381
C118  C     C_3   0.507173 0.391292 0.377796 -0.794777
H58   H     H_    0.471612 0.364965 0.304007 0.232242
H59   H     H_    0.531271 0.364643 0.448948 0.307279
H60   H     H_    0.566479 0.411656 0.383763 0.269519
N39   N     N_2   0.035725 0.898513 0.635095 -0.102661
H61   H     H_    0.077669 0.901907 0.719368 0.187553
C119  C     C_3   0.963334 0.858044 0.595179 -0.776846
H62   H     H_    0.995594 0.818413 0.633123 0.265770
H63   H     H_    0.924060 0.853369 0.504950 0.287768
H64   H     H_    0.914952 0.869094 0.617737 0.252221
N40   N     N_2   0.942881 0.924693 0.369964 -0.132989
H65   H     H_    0.910391 0.943641 0.295077 0.200860
C120  C     C_3   0.008253 0.884189 0.384402 -0.780705
H66   H     H_    0.972713 0.855820 0.313586 0.237357
H67   H     H_    0.033363 0.859926 0.458824 0.305900
H68   H     H_    0.067004 0.903570 0.387604 0.270613
N41   N     N_2   0.064275 0.814208 0.978249 -0.094065
H69   H     H_    0.051439 0.843068 0.018251 0.220714
C121  C     C_3   0.023143 0.825874 0.863491 -0.816528
H70   H     H_    0.017883 0.788556 0.818558 0.275079
H71   H     H_    0.065073 0.856327 0.855068 0.265262
H72   H     H_    0.951598 0.842032 0.824757 0.239494
N42   N     N_2   0.630627 0.689664 0.722504 -0.087913
H73   H     H_    0.576084 0.662332 0.687138 0.214563
C122  C     C_3   0.634243 0.723084 0.644650 -0.672102
H74   H     H_    0.667501 0.699839 0.611901 0.238799
H75   H     H_    0.673429 0.761357 0.681765 0.246594
H76   H     H_    0.562508 0.733034 0.573727 0.266119
N43   N     N_2   0.929057 0.189270 0.321493 -0.104317
H77   H     H_    0.990310 0.173867 0.388375 0.205096
C123  C     C_3   0.897508 0.238724 0.344326 -0.800180
H78   H     H_    0.890638 0.231032 0.412853 0.255281
H79   H     H_    0.828607 0.252114 0.272713 0.255926
H80   H     H_    0.948141 0.272204 0.369690 0.273872
N44   N     N_2   0.136077 0.192608 0.717278 -0.093302
H81   H     H_    0.081417 0.165349 0.679420 0.209782
C124  C     C_3   0.141470 0.227673 0.642650 -0.675784
H82   H     H_    0.173365 0.204974 0.607591 0.251867
H83   H     H_    0.182896 0.264906 0.683228 0.250719
H84   H     H_    0.070440 0.239587 0.573156 0.259166
Br1   Br    Br    0.034529 0.171868 0.140887 -0.420071
Br2   Br    Br    0.075065 0.234278 0.931386 -0.523251
Br3   Br    Br    0.340397 0.814742 0.234614 -0.611255
Br4   Br    Br    0.567773 0.738312 0.931182 -0.604728
Br5   Br    Br    0.077401 0.256182 0.326618 -0.531405
Br6   Br    Br    0.002398 0.281104 0.691873 -0.633715
Br7   Br    Br    0.214951 0.904086 0.047593 -0.542031
Br8   Br    Br    0.500482 0.782253 0.693067 -0.586847
Br9   Br    Br    0.081423 0.594831 0.484698 -0.458392
Br10  Br    Br    0.833619 0.658053 0.464809 -0.512117
Br11  Br    Br    0.582477 0.096062 0.485743 -0.475257
Br12  Br    Br    0.335579 0.159483 0.467534 -0.445761
Br13  Br    Br    0.708415 0.402171 0.613899 -0.669490
Br14  Br    Br    0.234473 0.399417 0.380787 -0.621752
Br15  Br    Br    0.212655 0.898765 0.618825 -0.652331
Br16  Br    Br    0.736050 0.900106 0.382819 -0.659559
Br17  Br    Br    0.701396 0.571547 0.853823 -0.650632
Br18  Br    Br    0.343416 0.569861 0.242225 -0.667043
Br19  Br    Br    0.199303 0.071338 0.849142 -0.597551
Br20  Br    Br    0.839192 0.052284 0.222598 -0.717422
N45   N     N_2   0.801258 0.329988 0.803267 -0.118364
H85   H     H_    0.744141 0.306490 0.780748 0.183775
C125  C     C_3   0.855487 0.311208 0.764269 -0.661371
H86   H     H_    0.808247 0.296159 0.678639 0.283583
H87   H     H_    0.901477 0.277749 0.815567 0.267454
H88   H     H_    0.898003 0.344936 0.765668 0.258296
N46   N     N_2   0.250282 0.347986 0.186168 -0.147509
H89   H     H_    0.291311 0.374446 0.249149 0.190459
C126  C     C_3   0.217834 0.301015 0.213016 -0.562849
H90   H     H_    0.272873 0.287328 0.297393 0.267095
H91   H     H_    0.203204 0.267354 0.155767 0.274147
H92   H     H_    0.153702 0.310767 0.208304 0.264298
N47   N     N_2   0.294167 0.828398 0.808757 -0.114164
H93   H     H_    0.236076 0.808490 0.793931 0.192737
C127  C     C_3   0.343751 0.795968 0.777156 -0.622188
H94   H     H_    0.295881 0.784322 0.689368 0.282024
H95   H     H_    0.369910 0.758356 0.826617 0.245405
H96   H     H_    0.402558 0.819660 0.788213 0.269994
N48   N     N_2   0.749058 0.847230 0.185917 -0.134048
H97   H     H_    0.790697 0.873292 0.249339 0.195600
C128  C     C_3   0.714049 0.801382 0.212370 -0.652615
H98   H     H_    0.768595 0.787023 0.296399 0.267785
H99   H     H_    0.697396 0.767593 0.154699 0.271980
H100  H     H_    0.650802 0.812667 0.208567 0.246315
Br21  Br    Br    0.996027 0.681908 0.231496 -0.599573
Br22  Br    Br    0.029523 0.663736 0.760893 -0.606317
Br23  Br    Br    0.486516 0.182316 0.229404 -0.594638
Br24  Br    Br    0.540946 0.163355 0.769696 -0.629792
N49   N     N_2   0.380591 0.478054 0.618476 -0.093212
H101  H     H_    0.330380 0.448756 0.576800 0.232701
C129  C     C_3   0.431557 0.472686 0.736225 -0.813209
H102  H     H_    0.381484 0.468457 0.758948 0.255583
H103  H     H_    0.475071 0.509187 0.778422 0.271483
H104  H     H_    0.476554 0.436191 0.764701 0.231367
N50   N     N_2   0.605188 0.525743 0.476320 -0.122595
H105  H     H_    0.647826 0.494243 0.486575 0.207672
C130  C     C_3   0.571566 0.556248 0.378001 -0.761628
H106  H     H_    0.631249 0.566791 0.373947 0.254296
H107  H     H_    0.539620 0.594741 0.379522 0.281852
H108  H     H_    0.521441 0.531402 0.304730 0.267575
N51   N     N_2   0.882326 0.983594 0.615408 -0.101871
H109  H     H_    0.833082 0.953471 0.577349 0.226777
C131  C     C_3   0.933405 0.982015 0.733632 -0.759340
H110  H     H_    0.883542 0.978655 0.756825 0.251305
H111  H     H_    0.974701 0.019746 0.770873 0.279722
H112  H     H_    0.980627 0.946499 0.766928 0.237091
N52   N     N_2   0.105714 0.019462 0.466962 -0.124771
H113  H     H_    0.149820 0.987787 0.482877 0.206644
C132  C     C_3   0.070477 0.045096 0.363366 -0.734943
H114  H     H_    0.129615 0.054785 0.357758 0.265344
H115  H     H_    0.035723 0.083699 0.357502 0.259995
H116  H     H_    0.022223 0.017222 0.294918 0.270411

loop_
_geom_bond_atom_site_label_1
_geom_bond_atom_site_label_2
_ccdc_geom_bond_type
N44   C124  S    
C94   H34   S    
C80   H20   S    
C22   C29   S    
C5    C37   S    
C51   H11   S    
C19   C20   S    
C63   C65   S    
C128  H98   S    
C115  H47   S    
N10   N18   A    
C4    N36   S    
N48   C128  S    
N23   Ni3   S    
C55   C59   A    
C11   C76   S    
C10   C94   A    
N29   Ni2   S    
N5    N25   A    
C2    N34   S    
C114  H43   S    
C14   C90   A    
N27   Ni8   S    
C84   H24   S    
C70   C74   A    
C96   N20   A    
C92   Br16  S    
C122  H76   S    
C23   N51   S    
C33   C59   A    
C122  H74   S    
C34   C60   A    
C18   C25   S    
N37   C117  S    
C25   C29   S    
C5    C101  A    
N43   C123  S    
C27   C31   S    
C131  H110  S    
C28   C32   S    
C62   H14   S    
C48   H28   S    
C89   Br13  S    
C77   C78   A    
C17   C21   S    
C64   C66   S    
C82   H22   S    
C130  H108  S    
C19   C23   S    
C117  H54   S    
N13   Ni6   S    
N3    N31   A    
C119  H62   S    
C77   H17   S    
C32   H4    S    
C8    C104  A    
N9    Ni2   S    
C85   H29   S    
C128  H100  S    
C44   C50   A    
C29   H1    S    
C107  N31   A    
N18   Ni6   S    
C105  N29   A    
C67   Br3   S    
C36   C68   S    
C57   C61   S    
C59   C63   S    
C62   C68   S    
C60   C64   S    
C113  H40   S    
N7    Ni7   S    
C52   H12   S    
C49   C53   A    
N11   N19   A    
C51   C55   A    
N12   N20   A    
C13   C97   A    
C69   C70   A    
C15   C91   A    
N34   H41   S    
C108  Br24  S    
N51   H109  S    
C12   C75   S    
C22   N50   S    
C7    C39   S    
C8    C40   S    
C75   C79   A    
C41   C51   A    
C42   C52   A    
C2    N2    A    
C100  N24   A    
C101  N25   A    
C34   C66   S    
C62   N42   S    
C127  H95   S    
N6    Ni6   S    
N43   H77   S    
C29   C30   S    
C90   N14   A    
C17   C18   S    
C124  H82   S    
N33   C113  S    
C97   Br17  S    
C69   C82   S    
C9    C85   A    
C99   Br19  S    
C106  Br22  S    
C31   C32   S    
C11   C87   A    
C6    C38   S    
C120  H66   S    
N13   N21   A    
C16   C27   S    
C6    C102  A    
C49   H9    S    
C20   N40   S    
C7    C103  A    
N41   H69   S    
N22   Ni2   S    
C125  H88   S    
N35   C115  S    
C31   H3    S    
C14   C98   A    
N49   C129  S    
C4    N4    A    
N6    N26   A    
N30   Ni1   S    
C95   H35   S    
C90   Br14  S    
C117  H56   S    
N9    N17   A    
N52   C132  S    
C16   C100  A    
C123  H80   S    
C24   N52   S    
N15   Ni8   S    
C131  H111  S    
N47   H93   S    
C120  H67   S    
C61   C67   S    
C83   C84   S    
C35   C67   S    
C12   C88   A    
C79   H19   S    
N46   C126  S    
C116  H50   S    
C121  H71   S    
C88   N12   A    
C1    N1    A    
C19   C28   S    
C119  H63   S    
C26   C30   S    
C129  H103  S    
C74   C78   A    
C13   C26   S    
N16   N24   A    
C9    C74   S    
C68   Br4   S    
N31   Ni4   S    
C113  H38   S    
C21   C25   S    
C10   C86   A    
C73   C77   A    
N12   Ni3   S    
C18   C22   S    
C107  C111  A    
N3    Ni3   S    
C65   Br1   S    
C24   C28   S    
N8    N28   A    
N14   Ni5   S    
C81   H21   S    
N45   C125  S    
C101  N45   S    
C124  H84   S    
C19   N39   S    
C71   C72   A    
N39   C119  S    
C37   C41   A    
C114  H42   S    
C120  H68   S    
C98   N22   A    
C40   C44   A    
C125  H86   S    
N36   C116  S    
C41   H5    S    
C106  N30   A    
C43   H7    S    
N34   C114  S    
C1    N33   S    
C58   C62   S    
N1    Ni1   S    
N20   Ni8   S    
C121  H70   S    
C50   H10   S    
C115  H46   S    
C65   Br5   S    
C94   N18   A    
C123  H78   S    
N2    Ni2   S    
N37   H53   S    
C50   C54   A    
C71   C84   S    
C118  H60   S    
N26   Ni5   S    
C54   C58   A    
C10   C73   S    
C44   H8    S    
N42   H73   S    
C116  H52   S    
N35   H45   S    
C130  H107  S    
C105  C109  A    
C1    C109  A    
C126  H92   S    
C3    C111  A    
C69   C73   A    
N11   Ni4   S    
N15   N23   A    
C56   C111  S    
C64   N44   S    
C128  H99   S    
C48   N8    A    
N50   H105  S    
C21   N49   S    
C91   N15   A    
C85   N9    A    
C96   H36   S    
C89   N13   A    
C103  N47   S    
N8    Ni8   S    
C46   N6    A    
C115  H48   S    
N36   H49   S    
C76   C80   A    
C104  N28   A    
C98   Br18  S    
C127  H94   S    
C53   C57   A    
C42   H6    S    
C107  Br23  S    
C5    C45   A    
C33   C37   A    
C108  C112  A    
C95   N19   A    
C7    C47   A    
C114  H44   S    
C35   C39   A    
N48   H97   S    
C113  H39   S    
N46   H89   S    
N14   N22   A    
C103  N27   A    
N40   C120  S    
C83   Br11  S    
N21   Ni1   S    
C63   N43   S    
C16   C92   A    
C122  H75   S    
C3    N35   S    
C45   N5    A    
N38   H57   S    
C86   H30   S    
N28   Ni7   S    
C30   H2    S    
N7    N27   A    
C2    C110  A    
C20   C27   S    
C21   C30   S    
C35   C57   A    
C23   C32   S    
C91   Br15  S    
C24   C31   S    
N52   H113  S    
C15   C28   S    
C87   N11   A    
C14   C25   S    
C78   H18   S    
N33   H37   S    
C68   Br8   S    
C72   C83   S    
C56   C60   A    
N47   C127  S    
C22   C26   S    
C47   H27   S    
C12   C96   A    
C66   Br2   S    
C53   C110  S    
C129  H102  S    
N4    N32   A    
C55   C112  S    
C125  H87   S    
C132  H114  S    
C72   C76   A    
N16   Ni7   S    
C8    C48   A    
C81   C82   S    
C33   C65   S    
N49   H101  S    
N5    Ni5   S    
C17   C26   S    
C38   C42   A    
C36   C58   A    
C117  H55   S    
C123  H79   S    
C99   N23   A    
C97   N21   A    
C108  N32   A    
C70   C81   S    
C126  H91   S    
C20   C24   S    
N51   C131  S    
C93   H33   S    
C23   C27   S    
N4    Ni4   S    
C83   H23   S    
C66   Br6   S    
N32   Ni3   S    
N2    N30   A    
C92   N16   A    
C4    C112  A    
C93   N17   A    
C100  Br20  S    
C17   N37   S    
C18   N38   S    
C81   Br9   S    
N10   Ni1   S    
C127  H96   S    
N25   Ni6   S    
N50   C130  S    
C84   Br12  S    
C36   C40   A    
C43   C49   A    
C39   C43   A    
C64   H16   S    
N45   H85   S    
N17   Ni5   S    
C54   C109  S    
C124  H83   S    
C102  N46   S    
N38   C118  S    
C118  H58   S    
C67   Br7   S    
N24   Ni4   S    
N19   Ni7   S    
N1    N29   A    
N39   H61   S    
C132  H115  S    
C86   N10   A    
N41   C121  S    
C132  H116  S    
N44   H81   S    
C9    C93   A    
C126  H90   S    
C45   H25   S    
C106  C110  A    
C11   C95   A    
C6    C46   A    
C13   C89   A    
C34   C38   A    
C15   C99   A    
C102  N26   A    
C3    N3    A    
C46   H26   S    
C82   Br10  S    
C131  H112  S    
C61   N41   S    
C118  H59   S    
C71   C75   A    
C47   N7    A    
C104  N48   S    
C116  H51   S    
C121  H72   S    
C130  H106  S    
C79   C80   A    
C119  H64   S    
C129  H104  S    
N40   H65   S    
C61   H13   S    
N42   C122  S    
C87   H31   S    
C88   H32   S    
C63   H15   S    
C52   C56   A    
C105  Br21  S    
