data_mof_unit_41525.cif
_audit_creation_date              2012-12-10T18:51:35-0500
_audit_creation_method            fapswitch 2.2
_symmetry_space_group_name_H-M    P1
_symmetry_Int_Tables_number       1
_space_group_crystal_system       triclinic
_cell_length_a                    10.601375
_cell_length_b                    9.825965
_cell_length_c                    10.531477
_cell_angle_alpha                 90.040605
_cell_angle_beta                  89.922434
_cell_angle_gamma                 90.340892
_cell_volume                      1097.02999467

loop_
_atom_site_label
_atom_site_type_symbol
_atom_type_description
_atom_site_fract_x
_atom_site_fract_y
_atom_site_fract_z
_atom_type_partial_charge
C1    C     C_R   0.872987 0.504385 0.448226 -0.165586
C2    C     C_3   0.492032 0.369817 0.041177 -0.236945
C3    C     C_3   0.392389 0.442775 0.960487 0.024770
C4    C     C_3   0.606541 0.556490 0.038987 0.055773
C5    C     C_3   0.497524 0.500315 0.877159 0.000336
C6    C     C_3   0.501473 0.499133 0.122566 0.016175
C7    C     C_R   0.542010 0.072288 0.603215 -0.002612
C8    C     C_R   0.459681 0.927861 0.396181 -0.035587
C9    C     C_R   0.459012 0.071671 0.396414 -0.048764
C10   C     C_R   0.541854 0.928375 0.603279 -0.045676
C11   C     C_R   0.064901 0.377715 0.413071 -0.059000
C12   C     C_R   0.131344 0.500250 0.435567 -0.195041
C13   C     C_R   0.940611 0.629821 0.443044 -0.062219
C14   C     C_R   0.932794 0.381822 0.410891 -0.032320
C15   C     C_R   0.069817 0.625863 0.421787 -0.023725
C16   C     C_2   0.270431 0.379098 0.919143 0.389817
C17   C     C_2   0.728849 0.619959 0.078898 0.342801
C18   C     C_2   0.134255 0.251709 0.379857 0.544513
C19   C     C_2   0.878976 0.765085 0.453697 0.449984
C20   C     C_2   0.857093 0.267378 0.356067 0.455256
C21   C     C_2   0.137154 0.749198 0.373586 0.441988
C22   C     C_R   0.262029 0.499655 0.477709 0.944841
C23   C     C_R   0.740615 0.501036 0.486215 0.887584
C24   C     C_R   0.500919 0.499796 0.257257 0.902913
C25   C     C_R   0.498751 0.500118 0.742620 0.952786
C26   C     C_3   0.400346 0.571072 0.043913 -0.248459
C27   C     C_3   0.598521 0.428174 0.955696 -0.266213
C28   C     C_3   0.506854 0.629490 0.958522 -0.223081
H1    H     H_    0.575912 0.126914 0.685675 0.132046
H2    H     H_    0.792913 0.659652 0.007420 0.085949
H3    H     H_    0.204438 0.254416 0.304733 -0.014867
H4    H     H_    0.802970 0.792523 0.389936 0.144613
H5    H     H_    0.776140 0.290243 0.296883 0.066874
H6    H     H_    0.111901 0.850382 0.405241 0.155918
H7    H     H_    0.428522 0.873591 0.312619 0.177781
H8    H     H_    0.426045 0.125718 0.313573 0.118534
H9    H     H_    0.575649 0.874294 0.685771 0.131160
H10   H     H_    0.319123 0.628456 0.082658 0.198858
H11   H     H_    0.679385 0.370666 0.916017 0.152206
H12   H     H_    0.513395 0.735327 0.922068 0.153254
H13   H     H_    0.485486 0.264043 0.077791 0.149720
H14   H     H_    0.205307 0.340293 0.990100 0.053127
N1    N     N_R   0.500000 0.857200 0.500000 -0.095020
N2    N     N_R   0.500000 0.142800 0.500000 -0.084756
O1    O     O_R   0.316770 0.614620 0.499990 -0.585317
O2    O     O_2   0.757431 0.626935 0.190730 -0.624883
O3    O     O_2   0.119939 0.147578 0.441463 -0.494347
O4    O     O_2   0.912242 0.846016 0.535258 -0.539989
O5    O     O_2   0.880554 0.148518 0.378875 -0.512405
O6    O     O_2   0.218759 0.738284 0.292467 -0.626605
O7    O     O_R   0.683230 0.385380 0.500010 -0.626238
O8    O     O_R   0.683230 0.614620 0.500010 -0.623257
O9    O     O_R   0.316770 0.385380 0.499990 -0.595669
O10   O     O_R   0.499970 0.614650 0.313950 -0.592124
O11   O     O_R   0.500030 0.385350 0.686050 -0.599749
O12   O     O_R   0.500030 0.614650 0.686050 -0.640732
O13   O     O_R   0.499970 0.385350 0.313950 -0.677464
O14   O     O_2   0.243404 0.370802 0.806833 -0.538153
Zn1   Zn    Zn3+2 0.500000 0.653120 0.500000 0.998318
Zn2   Zn    Zn3+2 0.500000 0.346880 0.500000 0.988907

loop_
_geom_bond_atom_site_label_1
_geom_bond_atom_site_label_2
_ccdc_geom_bond_type
C8    C9    A    
C7    C10   A    
C11   C12   A    
C12   C15   A    
C11   C18   S    
C2    C27   S    
C7    H1    S    
O8    Zn1   S    
C12   C22   S    
C9    H8    S    
C5    C28   S    
C26   C28   S    
C25   O12   A    
N1    Zn1   S    
C3    C5    S    
C6    C24   S    
C18   O3    D    
C4    C27   S    
C2    C3    S    
C16   O14   D    
O11   Zn2   S    
C17   H2    S    
C5    C27   S    
C23   O8    A    
C6    C26   S    
N2    Zn2   S    
C10   H9    S    
C20   O5    D    
C20   H5    S    
C8    N1    A    
C21   O6    D    
C18   H3    S    
O9    Zn2   S    
C25   O11   A    
C1    C23   S    
C22   O9    A    
O10   Zn1   S    
C13   C15   A    
C11   C14   A    
C5    C25   S    
O7    Zn2   S    
C1    C13   A    
C4    C17   S    
C2    H13   S    
C24   O10   A    
C14   C20   S    
C1    C14   A    
C15   C21   S    
C22   O1    A    
C17   O2    D    
C4    C6    S    
C27   H11   S    
O12   Zn1   S    
C13   C19   S    
C19   O4    D    
O1    Zn1   S    
C9    N2    A    
C21   H6    S    
C4    C28   S    
C10   N1    A    
C7    N2    A    
C16   H14   S    
C23   O7    A    
C19   H4    S    
C3    C26   S    
C26   H10   S    
C3    C16   S    
C2    C6    S    
C28   H12   S    
C24   O13   A    
O13   Zn2   S    
C8    H7    S    
