data_mof_unit_24078.cif
_audit_creation_date              2012-12-10T16:57:06-0500
_audit_creation_method            fapswitch 2.2
_symmetry_space_group_name_H-M    P1
_symmetry_Int_Tables_number       1
_space_group_crystal_system       triclinic
_cell_length_a                    7.791244
_cell_length_b                    8.564853
_cell_length_c                    16.724261
_cell_angle_alpha                 92.187942
_cell_angle_beta                  79.568334
_cell_angle_gamma                 93.980889
_cell_volume                      1094.55696845

loop_
_atom_site_label
_atom_site_type_symbol
_atom_type_description
_atom_site_fract_x
_atom_site_fract_y
_atom_site_fract_z
_atom_type_partial_charge
C1    C     C_R   0.546301 0.794822 0.498037 0.943925
C2    C     C_R   0.453645 0.205196 0.502250 1.013958
C3    C     C_2   0.570571 0.958476 0.496967 -0.296910
C4    C     C_2   0.429321 0.041563 0.503612 -0.297733
C5    C     C_R   0.475140 0.499496 0.653960 1.040323
C6    C     C_R   0.524514 0.497433 0.346130 0.946201
C7    C     C_R   0.450909 0.468470 0.739611 -0.237101
C8    C     C_R   0.546045 0.494053 0.258761 -0.359101
C9    C     C_R   0.501834 0.324608 0.762445 0.309024
C10   C     C_R   0.529130 0.630628 0.216469 0.289181
C11   C     C_R   0.477611 0.290924 0.845527 0.268672
C12   C     C_R   0.559995 0.623352 0.131075 0.483359
C13   C     C_R   0.416592 0.406661 0.902650 -0.191271
C14   C     C_R   0.609086 0.482627 0.090275 -0.143436
C15   C     C_R   0.355872 0.546289 0.880440 0.412440
C16   C     C_R   0.636226 0.349918 0.132618 0.385816
C17   C     C_R   0.371727 0.577297 0.797376 0.070361
C18   C     C_R   0.601808 0.355817 0.216972 0.247884
C19   C     C_2   0.449334 0.395949 0.985212 0.488712
C20   C     C_2   0.597362 0.467517 0.004763 0.447380
H1    H     H_    0.703772 0.010012 0.490632 0.186617
H2    H     H_    0.296119 0.990038 0.509942 0.178964
H3    H     H_    0.023014 0.379537 0.439292 0.208803
H4    H     H_    0.976980 0.620441 0.560719 0.205393
N1    N     N_2   0.953500 0.457650 0.478520 -0.161179
N2    N     N_2   0.046500 0.542350 0.521480 -0.162480
O1    O     O_R   0.388470 0.738640 0.505270 -0.612548
O2    O     O_R   0.611530 0.261360 0.494730 -0.594606
O3    O     O_R   0.679650 0.711510 0.491500 -0.631218
O4    O     O_R   0.320350 0.288490 0.508500 -0.634157
O5    O     O_R   0.337210 0.515200 0.623500 -0.592151
O6    O     O_R   0.662790 0.484800 0.376500 -0.587751
O7    O     O_R   0.628380 0.488060 0.609730 -0.599128
O8    O     O_R   0.371620 0.511940 0.390270 -0.616731
Zn1   Zn    Zn3+2 0.305580 0.518120 0.509190 1.001281
Zn2   Zn    Zn3+2 0.694420 0.481880 0.490810 1.012229
O9    O     O_3   0.577236 0.222238 0.702387 -0.743847
H5    H     H_    0.659718 0.160256 0.724494 0.356902
O10   O     O_3   0.483122 0.771245 0.255495 -0.708900
H6    H     H_    0.480511 0.766173 0.314605 0.349361
Br1   Br    Br    0.627302 0.169381 0.274058 -0.368510
Br2   Br    Br    0.304014 0.772816 0.761751 -0.484473
O11   O     O_3   0.729541 0.542890 0.950109 -0.700248
H7    H     H_    0.721774 0.508381 0.893714 0.326585
O12   O     O_3   0.323503 0.326073 0.044576 -0.719419
H8    H     H_    0.224319 0.284135 0.018692 0.376279
O13   O     O_3   0.291067 0.650819 0.941856 -0.665809
H9    H     H_    0.242858 0.739344 0.919141 0.398644
O14   O     O_3   0.688961 0.211160 0.093806 -0.650065
H10   H     H_    0.732937 0.228849 0.035331 0.356240
O15   O     O_3   0.538085 0.749406 0.085180 -0.634828
H11   H     H_    0.502209 0.840346 0.121077 0.418836
O16   O     O_3   0.519483 0.150924 0.873181 -0.712733
H12   H     H_    0.503785 0.067191 0.832209 0.382960

loop_
_geom_bond_atom_site_label_1
_geom_bond_atom_site_label_2
_ccdc_geom_bond_type
C1    C3    S    
C7    C17   A    
C2    C4    S    
O11   H7    S    
C19   O12   S    
C15   C17   A    
O9    H5    S    
C14   C20   S    
C4    H2    S    
C6    O6    A    
C19   C20   D    
C11   O16   S    
C15   O13   S    
C2    O4    A    
C1    O1    A    
C12   O15   S    
C20   O11   S    
C1    O3    A    
O12   H8    S    
C9    C11   A    
O3    Zn2   S    
C6    O8    A    
C10   C12   A    
O4    Zn1   S    
H3    N1    S    
O6    Zn2   S    
C9    O9    S    
C12   C14   A    
O14   H10   S    
C14   C16   A    
C13   C15   A    
O5    Zn1   S    
C3    H1    S    
C2    O2    A    
C13   C19   S    
N1    Zn2   S    
O15   H11   S    
C7    C9    A    
N2    Zn1   S    
C11   C13   A    
O7    Zn2   S    
C16   O14   S    
O2    Zn2   S    
C16   C18   A    
O8    Zn1   S    
C18   Br1   S    
O10   H6    S    
C5    C7    S    
C17   Br2   S    
C6    C8    S    
O1    Zn1   S    
N1    N2    D    
O16   H12   S    
C8    C10   A    
C8    C18   A    
C3    C4    D    
O13   H9    S    
H4    N2    S    
C10   O10   S    
C5    O5    A    
C5    O7    A    
