data_mof_unit_22411.cif
_audit_creation_date              2012-12-11T16:26:10-0500
_audit_creation_method            fapswitch 2.2
_symmetry_space_group_name_H-M    P1
_symmetry_Int_Tables_number       1
_space_group_crystal_system       triclinic
_cell_length_a                    13.977305
_cell_length_b                    13.977024
_cell_length_c                    31.936734
_cell_angle_alpha                 90.001003
_cell_angle_beta                  90.001333
_cell_angle_gamma                 120.000206
_cell_volume                      5403.29132714

loop_
_atom_site_label
_atom_site_type_symbol
_atom_type_description
_atom_site_fract_x
_atom_site_fract_y
_atom_site_fract_z
_atom_type_partial_charge
C1    C     C_R   0.567150 0.444492 0.810403 0.537736
C2    C     C_R   0.877329 0.432845 0.689593 0.537747
C3    C     C_R   0.555511 0.122657 0.810403 0.537723
C4    C     C_R   0.567148 0.444487 0.689596 0.537740
C5    C     C_R   0.877340 0.432852 0.810405 0.537740
C6    C     C_R   0.555504 0.122645 0.689600 0.537716
C7    C     C_R   0.444495 0.567149 0.310402 0.537732
C8    C     C_R   0.432848 0.877336 0.189595 0.537738
C9    C     C_R   0.122650 0.555508 0.310401 0.537723
C10   C     C_R   0.444489 0.567146 0.189597 0.537732
C11   C     C_R   0.432848 0.877331 0.310407 0.537740
C12   C     C_R   0.122655 0.555508 0.189597 0.537729
C13   C     C_1   0.003171 0.516337 0.018731 -0.044171
C14   C     C_1   0.512993 0.996394 0.481319 -0.044172
C15   C     C_1   0.483670 0.486919 0.018722 -0.044182
C16   C     C_1   0.002986 0.516238 0.481246 -0.044147
C17   C     C_1   0.513091 0.996687 0.018713 -0.044170
C18   C     C_1   0.483819 0.486853 0.481258 -0.044204
C19   C     C_1   0.516245 0.002874 0.518764 -0.044164
C20   C     C_1   0.996692 0.513095 0.981287 -0.044172
C21   C     C_1   0.487057 0.483613 0.518703 -0.044199
C22   C     C_1   0.516341 0.003174 0.981269 -0.044170
C23   C     C_1   0.996503 0.512979 0.518690 -0.044165
C24   C     C_1   0.486914 0.483680 0.981277 -0.044181
C25   C     C_R   0.933571 0.472355 0.851359 -0.009036
C26   C     C_R   0.538730 0.066314 0.648665 -0.009050
C27   C     C_R   0.527646 0.461235 0.851354 -0.009037
C28   C     C_R   0.933512 0.472315 0.648629 -0.009031
C29   C     C_R   0.538769 0.066394 0.851350 -0.009039
C30   C     C_R   0.527655 0.461209 0.648639 -0.009028
C31   C     C_R   0.472329 0.933511 0.351373 -0.009036
C32   C     C_R   0.066388 0.538762 0.148649 -0.009041
C33   C     C_R   0.461261 0.527643 0.351348 -0.009033
C34   C     C_R   0.472344 0.933560 0.148640 -0.009034
C35   C     C_R   0.066343 0.538750 0.351339 -0.009050
C36   C     C_R   0.461226 0.527636 0.148646 -0.009036
C37   C     C_R   0.917674 0.550436 0.873567 -0.116992
C38   C     C_R   0.632676 0.082107 0.626466 -0.116972
C39   C     C_R   0.449580 0.367264 0.873567 -0.116986
C40   C     C_R   0.917595 0.550383 0.626422 -0.116997
C41   C     C_R   0.632735 0.082267 0.873558 -0.116986
C42   C     C_R   0.449630 0.367225 0.626419 -0.116994
C43   C     C_R   0.550430 0.917620 0.373568 -0.117007
C44   C     C_R   0.082250 0.632728 0.126444 -0.116985
C45   C     C_R   0.367306 0.449589 0.373568 -0.116984
C46   C     C_R   0.550418 0.917656 0.126433 -0.116990
C47   C     C_R   0.082207 0.632709 0.373552 -0.116974
C48   C     C_R   0.367256 0.449574 0.126430 -0.116989
C49   C     C_R   0.944112 0.570909 0.916335 0.012013
C50   C     C_R   0.626670 0.055536 0.583710 0.012042
C51   C     C_R   0.429112 0.373249 0.916334 0.012020
C52   C     C_R   0.943972 0.570816 0.583649 0.012006
C53   C     C_R   0.626754 0.055787 0.916322 0.012023
C54   C     C_R   0.429204 0.373195 0.583646 0.012009
C55   C     C_R   0.570877 0.943979 0.416343 0.011987
C56   C     C_R   0.055769 0.626747 0.083680 0.012022
C57   C     C_R   0.373327 0.429106 0.416331 0.012043
C58   C     C_R   0.570890 0.944092 0.083665 0.012013
C59   C     C_R   0.055672 0.626700 0.416312 0.012032
C60   C     C_R   0.373239 0.429109 0.083663 0.012020
C61   C     C_R   0.986225 0.510195 0.936626 0.026241
C62   C     C_R   0.523836 0.013399 0.563422 0.026246
C63   C     C_R   0.489808 0.476091 0.936618 0.026239
C64   C     C_R   0.986051 0.510079 0.563351 0.026237
C65   C     C_R   0.523923 0.013660 0.936609 0.026242
C66   C     C_R   0.489912 0.476033 0.563364 0.026239
C67   C     C_R   0.510093 0.985978 0.436657 0.026240
C68   C     C_R   0.013652 0.523916 0.063390 0.026243
C69   C     C_R   0.476195 0.489755 0.436601 0.026222
C70   C     C_R   0.510182 0.986211 0.063373 0.026241
C71   C     C_R   0.013491 0.523847 0.436587 0.026258
C72   C     C_R   0.476079 0.489805 0.063381 0.026239
C73   C     C_R   0.013093 0.441478 0.913933 -0.133594
C74   C     C_R   0.428278 0.986628 0.586114 -0.133587
C75   C     C_R   0.558505 0.571667 0.913918 -0.133597
C76   C     C_R   0.012930 0.441365 0.586041 -0.133586
C77   C     C_R   0.428349 0.986810 0.913912 -0.133604
C78   C     C_R   0.558553 0.571622 0.586069 -0.133618
C79   C     C_R   0.441358 0.012851 0.413978 -0.133596
C80   C     C_R   0.986811 0.428340 0.086084 -0.133602
C81   C     C_R   0.571749 0.558462 0.413893 -0.133540
C82   C     C_R   0.441468 0.013082 0.086066 -0.133590
C83   C     C_R   0.986633 0.428282 0.413882 -0.133679
C84   C     C_R   0.571655 0.558493 0.086084 -0.133601
C85   C     C_R   0.989055 0.423524 0.871286 -0.028675
C86   C     C_R   0.434400 0.010794 0.628750 -0.028689
C87   C     C_R   0.576460 0.565561 0.871273 -0.028682
C88   C     C_R   0.988950 0.423449 0.628692 -0.028652
C89   C     C_R   0.434448 0.010888 0.871269 -0.028692
C90   C     C_R   0.576459 0.565532 0.628721 -0.028697
C91   C     C_R   0.423448 0.988914 0.371323 -0.028669
C92   C     C_R   0.010890 0.434439 0.128728 -0.028690
C93   C     C_R   0.565605 0.576440 0.371252 -0.028628
C94   C     C_R   0.423515 0.989045 0.128713 -0.028673
C95   C     C_R   0.010781 0.434411 0.371245 -0.028770
C96   C     C_R   0.565551 0.576444 0.128731 -0.028683
Cr1   Cr    Cr6+3 0.504240 0.249200 0.750000 1.056735
Cr2   Cr    Cr6+3 0.744960 0.495760 0.750000 1.056716
Cr3   Cr    Cr6+3 0.750800 0.255040 0.750000 1.056718
Cr4   Cr    Cr6+3 0.249200 0.504240 0.250000 1.056737
Cr5   Cr    Cr6+3 0.495760 0.744960 0.250000 1.056707
Cr6   Cr    Cr6+3 0.255040 0.750800 0.250000 1.056726
H1    H     H_    0.878666 0.590329 0.857804 0.142161
H2    H     H_    0.711585 0.121135 0.642222 0.142155
H3    H     H_    0.409696 0.288355 0.857809 0.142160
H4    H     H_    0.878621 0.590300 0.642191 0.142160
H5    H     H_    0.711640 0.121289 0.857801 0.142159
H6    H     H_    0.409751 0.288316 0.642175 0.142165
H7    H     H_    0.590358 0.878670 0.357790 0.142182
H8    H     H_    0.121266 0.711635 0.142204 0.142161
H9    H     H_    0.288389 0.409712 0.357817 0.142137
H10   H     H_    0.590309 0.878646 0.142196 0.142163
H11   H     H_    0.121271 0.711630 0.357805 0.142157
H12   H     H_    0.288348 0.409694 0.142185 0.142156
H13   H     H_    0.950196 0.349195 0.070150 0.112290
H14   H     H_    0.398790 0.049397 0.429931 0.112248
H15   H     H_    0.650805 0.601009 0.070156 0.112286
H16   H     H_    0.949971 0.349122 0.429806 0.112350
H17   H     H_    0.398941 0.049697 0.070129 0.112275
H18   H     H_    0.650915 0.600967 0.429813 0.112256
H19   H     H_    0.349129 0.950004 0.570182 0.112294
H20   H     H_    0.049705 0.398948 0.929869 0.112275
H21   H     H_    0.601066 0.650773 0.570140 0.112296
H22   H     H_    0.349203 0.950188 0.929844 0.112294
H23   H     H_    0.049512 0.398814 0.570099 0.112251
H24   H     H_    0.601024 0.650819 0.929849 0.112283
O1    O     O_R   0.480350 0.140770 0.796330 -0.492566
O2    O     O_R   0.660420 0.519650 0.703670 -0.492576
O3    O     O_R   0.859230 0.339580 0.796330 -0.492561
O4    O     O_R   0.480350 0.140770 0.703670 -0.492570
O5    O     O_R   0.660420 0.519650 0.796330 -0.492571
O6    O     O_R   0.859230 0.339580 0.703670 -0.492548
O7    O     O_R   0.140770 0.480350 0.296330 -0.492565
O8    O     O_R   0.519650 0.660420 0.203670 -0.492570
O9    O     O_R   0.339580 0.859230 0.296330 -0.492546
O10   O     O_R   0.140770 0.480350 0.203670 -0.492564
O11   O     O_R   0.519650 0.660420 0.296330 -0.492586
O12   O     O_R   0.339580 0.859230 0.203670 -0.492563
O13   O     O_R   0.514930 0.348530 0.793250 -0.502301
O14   O     O_R   0.833600 0.485070 0.706750 -0.502313
O15   O     O_R   0.651470 0.166400 0.793250 -0.502313
O16   O     O_R   0.514930 0.348530 0.706750 -0.502298
O17   O     O_R   0.833600 0.485070 0.793250 -0.502309
O18   O     O_R   0.651470 0.166400 0.706750 -0.502312
O19   O     O_R   0.348530 0.514930 0.293250 -0.502299
O20   O     O_R   0.485070 0.833600 0.206750 -0.502310
O21   O     O_R   0.166400 0.651470 0.293250 -0.502303
O22   O     O_R   0.348530 0.514930 0.206750 -0.502303
O23   O     O_R   0.485070 0.833600 0.293250 -0.502319
O24   O     O_R   0.166400 0.651470 0.206750 -0.502310
O25   O     O_3   0.666667 0.333333 0.750000 -0.248181
O26   O     O_3   0.333333 0.666667 0.250000 -0.248181
C97   C     C_3   0.075336 0.727698 0.058414 -0.256575
C98   C     C_3   0.112372 0.834134 0.083599 -0.297704
C99   C     C_3   0.126092 0.928287 0.055386 -0.460802
H25   H     H_    0.190408 0.946217 0.031425 0.143567
H26   H     H_    0.046919 0.906342 0.039583 0.144299
H27   H     H_    0.152313 0.003824 0.074465 0.160807
H28   H     H_    0.050230 0.819786 0.108169 0.181703
H29   H     H_    0.193198 0.859555 0.098551 0.172094
H30   H     H_    0.138605 0.744036 0.034061 0.149587
H31   H     H_    0.996864 0.707040 0.042197 0.144540
C100  C     C_3   0.652260 0.924377 0.441593 -0.256569
C101  C     C_3   0.722021 0.887868 0.416357 -0.297662
C102  C     C_3   0.802554 0.874244 0.444546 -0.460703
H32   H     H_    0.859444 0.953328 0.460486 0.144288
H33   H     H_    0.756227 0.809555 0.468398 0.143549
H34   H     H_    0.852240 0.848565 0.425415 0.160851
H35   H     H_    0.666880 0.807101 0.401309 0.172108
H36   H     H_    0.769762 0.950282 0.391859 0.181691
H37   H     H_    0.709854 0.002736 0.457927 0.144514
H38   H     H_    0.605291 0.860816 0.465851 0.149577
C103  C     C_3   0.272283 0.347783 0.058383 -0.256565
C104  C     C_3   0.165817 0.278435 0.083554 -0.297703
C105  C     C_3   0.071642 0.198112 0.055323 -0.460824
H39   H     H_    0.053798 0.244592 0.031374 0.143566
H40   H     H_    0.093510 0.140842 0.039507 0.144310
H41   H     H_    0.996080 0.148834 0.074392 0.160760
H42   H     H_    0.180084 0.230561 0.108114 0.181684
H43   H     H_    0.140473 0.333887 0.098517 0.172091
H44   H     H_    0.256010 0.394761 0.034030 0.149613
H45   H     H_    0.292895 0.289934 0.042169 0.144531
C106  C     C_3   0.075263 0.727644 0.441591 -0.256574
C107  C     C_3   0.112265 0.834086 0.416416 -0.297701
C108  C     C_3   0.126023 0.928230 0.444645 -0.460825
H46   H     H_    0.046897 0.906248 0.460493 0.144253
H47   H     H_    0.190435 0.946205 0.468571 0.143571
H48   H     H_    0.152136 0.003754 0.425571 0.160774
H49   H     H_    0.193073 0.859515 0.401449 0.172099
H50   H     H_    0.050092 0.819739 0.391859 0.181695
H51   H     H_    0.996806 0.706981 0.457818 0.144544
H52   H     H_    0.138554 0.743972 0.465935 0.149590
C109  C     C_3   0.652238 0.924476 0.058397 -0.256570
C110  C     C_3   0.721618 0.887419 0.083582 -0.297701
C111  C     C_3   0.801987 0.873610 0.055365 -0.460825
H53   H     H_    0.755550 0.809269 0.031416 0.143561
H54   H     H_    0.859231 0.952753 0.039549 0.144309
H55   H     H_    0.851286 0.847374 0.074445 0.160778
H56   H     H_    0.769458 0.949582 0.108142 0.181692
H57   H     H_    0.666196 0.806621 0.098547 0.172094
H58   H     H_    0.605279 0.861196 0.034049 0.149606
H59   H     H_    0.710065 0.002931 0.042176 0.144533
C112  C     C_3   0.272403 0.347758 0.441616 -0.256518
C113  C     C_3   0.165684 0.279027 0.416503 -0.297671
C114  C     C_3   0.071476 0.198850 0.444750 -0.460798
H60   H     H_    0.092922 0.140982 0.460334 0.144391
H61   H     H_    0.054316 0.245420 0.468887 0.143547
H62   H     H_    0.995640 0.150212 0.425741 0.160655
H63   H     H_    0.140697 0.334937 0.401693 0.172040
H64   H     H_    0.179443 0.231069 0.391825 0.181670
H65   H     H_    0.292833 0.289535 0.457638 0.144498
H66   H     H_    0.256514 0.394658 0.466127 0.149615
C115  C     C_3   0.727602 0.075033 0.558449 -0.256586
C116  C     C_3   0.834043 0.112107 0.583635 -0.297697
C117  C     C_3   0.928179 0.125772 0.555427 -0.460810
H67   H     H_    0.906224 0.046573 0.539642 0.144281
H68   H     H_    0.946097 0.190052 0.531452 0.143561
H69   H     H_    0.003722 0.152021 0.574505 0.160844
H70   H     H_    0.859477 0.192965 0.598564 0.172089
H71   H     H_    0.819699 0.050006 0.608222 0.181739
H72   H     H_    0.706925 0.996522 0.542259 0.144545
H73   H     H_    0.743940 0.138256 0.534076 0.149556
C118  C     C_3   0.924505 0.652265 0.941604 -0.256573
C119  C     C_3   0.887464 0.721657 0.916419 -0.297701
C120  C     C_3   0.873673 0.802040 0.944636 -0.460821
H74   H     H_    0.809334 0.755613 0.968584 0.143562
H75   H     H_    0.952820 0.859280 0.960453 0.144309
H76   H     H_    0.847445 0.851346 0.925555 0.160785
H77   H     H_    0.949627 0.769489 0.891860 0.181690
H78   H     H_    0.806663 0.666242 0.901452 0.172097
H79   H     H_    0.861222 0.605308 0.965949 0.149602
H80   H     H_    0.002959 0.710085 0.957829 0.144533
C121  C     C_3   0.347907 0.272229 0.558364 -0.256551
C122  C     C_3   0.278478 0.165791 0.583541 -0.297714
C123  C     C_3   0.198146 0.071618 0.555310 -0.460810
H81   H     H_    0.140950 0.093536 0.539464 0.144339
H82   H     H_    0.244622 0.053696 0.531385 0.143576
H83   H     H_    0.148791 0.996087 0.574385 0.160750
H84   H     H_    0.333871 0.140406 0.598527 0.172091
H85   H     H_    0.230606 0.180118 0.608084 0.181675
H86   H     H_    0.290110 0.292853 0.542116 0.144540
H87   H     H_    0.394915 0.255913 0.534037 0.149626
C124  C     C_3   0.727706 0.075366 0.941592 -0.256572
C125  C     C_3   0.834140 0.112403 0.916409 -0.297706
C126  C     C_3   0.928295 0.126139 0.944625 -0.460810
H88   H     H_    0.946225 0.190469 0.968581 0.143569
H89   H     H_    0.906355 0.046974 0.960432 0.144300
H90   H     H_    0.003827 0.152354 0.925547 0.160797
H91   H     H_    0.819794 0.050254 0.891841 0.181703
H92   H     H_    0.859554 0.193225 0.901455 0.172090
H93   H     H_    0.744040 0.138641 0.965944 0.149591
H94   H     H_    0.707054 0.996898 0.957809 0.144539
C127  C     C_3   0.924342 0.652157 0.558381 -0.256567
C128  C     C_3   0.887272 0.721527 0.583564 -0.297696
C129  C     C_3   0.873409 0.801861 0.555345 -0.460840
H95   H     H_    0.952540 0.859131 0.539527 0.144297
H96   H     H_    0.809070 0.755401 0.531397 0.143547
H97   H     H_    0.847144 0.851137 0.574426 0.160762
H98   H     H_    0.806494 0.666091 0.598539 0.172105
H99   H     H_    0.949445 0.769396 0.608117 0.181663
H100  H     H_    0.002790 0.709990 0.542157 0.144522
H101  H     H_    0.861062 0.605187 0.534034 0.149623
C130  C     C_3   0.347782 0.272294 0.941609 -0.256566
C131  C     C_3   0.278464 0.165813 0.916439 -0.297701
C132  C     C_3   0.198144 0.071637 0.944668 -0.460817
H102  H     H_    0.244622 0.053822 0.968628 0.143562
H103  H     H_    0.140847 0.093489 0.960470 0.144311
H104  H     H_    0.148896 0.996061 0.925600 0.160760
H105  H     H_    0.230590 0.180059 0.891872 0.181686
H106  H     H_    0.333934 0.140482 0.901485 0.172091
H107  H     H_    0.394752 0.256036 0.965972 0.149614
H108  H     H_    0.289917 0.292900 0.957813 0.144530
C133  C     C_1   0.979416 0.332608 0.150742 0.208618
N1    N     N_1   0.954075 0.250853 0.168262 -0.280178
C134  C     C_1   0.353123 0.020452 0.349322 0.208589
N2    N     N_1   0.296739 0.045848 0.331810 -0.280165
C135  C     C_1   0.667381 0.646755 0.150754 0.208621
N3    N     N_1   0.749135 0.703131 0.168283 -0.280169
C136  C     C_1   0.979340 0.332591 0.349225 0.208654
N4    N     N_1   0.954026 0.250846 0.331700 -0.280193
C137  C     C_1   0.353197 0.020568 0.150728 0.208602
N5    N     N_1   0.296819 0.045952 0.168250 -0.280195
C138  C     C_1   0.667417 0.646743 0.349221 0.208613
N6    N     N_1   0.749157 0.703112 0.331685 -0.280173
C139  C     C_1   0.332583 0.979385 0.650763 0.208622
N7    N     N_1   0.250841 0.954096 0.668283 -0.280168
C140  C     C_1   0.020571 0.353199 0.849270 0.208608
N8    N     N_1   0.045949 0.296815 0.831748 -0.280185
C141  C     C_1   0.646721 0.667372 0.650748 0.208611
N9    N     N_1   0.703059 0.749133 0.668280 -0.280181
C142  C     C_1   0.332617 0.979406 0.849252 0.208620
N10   N     N_1   0.250864 0.954057 0.831729 -0.280176
C143  C     C_1   0.020487 0.353135 0.650703 0.208596
N11   N     N_1   0.045882 0.296760 0.668223 -0.280207
C144  C     C_1   0.646778 0.667392 0.849252 0.208614
N12   N     N_1   0.703159 0.749145 0.831726 -0.280182

loop_
_geom_bond_atom_site_label_1
_geom_bond_atom_site_label_2
_ccdc_geom_bond_type
C127  H101  S    
C68   C80   A    
C44   H8    S    
C39   C51   A    
C112  C113  S    
C129  H96   S    
C80   C92   A    
C102  H32   S    
C82   C94   A    
C46   H10   S    
Cr2   O17   S    
C99   H26   S    
C18   C21   T    
C33   C45   A    
C101  H36   S    
C118  C119  S    
C3    O15   A    
C6    O4    A    
C35   C47   A    
C106  H52   S    
C29   C89   A    
C106  H51   S    
C130  C131  S    
C105  H40   S    
C6    C26   S    
C103  C104  S    
Cr4   O26   S    
C15   C72   S    
C81   H18   S    
C45   C57   A    
C143  N11   T    
C31   C43   A    
Cr3   O6    S    
C96   C135  S    
C83   H16   S    
C40   H4    S    
C101  C102  S    
C125  C126  S    
Cr1   O4    S    
C11   O9    A    
C116  H70   S    
C117  H68   S    
Cr6   O12   S    
C127  C128  S    
C21   C66   S    
C3    O1    A    
Cr2   O2    S    
C108  H47   S    
C60   C72   A    
C90   C141  S    
C127  H100  S    
C124  C125  S    
C111  H54   S    
C120  H76   S    
C109  H58   S    
C107  C108  S    
C8    O12   A    
C88   C143  S    
C84   C96   A    
C20   C61   S    
C3    C29   S    
C44   C56   A    
Cr6   O9    S    
C30   C90   A    
C38   H2    S    
C25   C37   A    
C104  C105  S    
C115  H72   S    
C15   C24   T    
C11   O23   A    
C110  H57   S    
C97   C98   S    
C142  N10   T    
C27   C39   A    
C84   H15   S    
C79   H14   S    
C113  H63   S    
C28   C88   A    
C2    O6    A    
C123  H81   S    
C34   C46   A    
C53   C65   A    
C132  H102  S    
C76   C88   A    
C79   C91   A    
C1    O13   A    
C51   C63   A    
Cr1   O1    S    
C111  H55   S    
C18   C69   S    
C5    O3    A    
C110  C111  S    
C129  H97   S    
C11   C31   S    
C17   C70   S    
C102  H33   S    
C53   C124  S    
C135  N3    T    
C46   C58   A    
C99   H27   S    
C60   C103  S    
C7    C33   S    
C112  H65   S    
C101  H35   S    
C16   C71   S    
C123  H83   S    
C82   H17   S    
C78   C90   A    
C130  H107  S    
C89   C142  S    
C48   C60   A    
C105  H41   S    
C71   C83   A    
Cr2   O25   S    
C114  H61   S    
C64   C76   A    
C66   C78   A    
C8    O20   A    
Cr5   O20   S    
C99   H25   S    
C124  H93   S    
C125  H91   S    
Cr3   O3    S    
C9    C35   S    
Cr5   O8    S    
C69   C81   A    
C12   O24   A    
Cr3   O18   S    
C67   C79   A    
C52   C64   A    
C117  H69   S    
C144  N12   T    
C7    O11   A    
Cr5   O11   S    
C116  C117  S    
C58   C70   A    
C108  H48   S    
C8    C34   S    
C119  C120  S    
C61   C73   A    
C137  N5    T    
C56   C68   A    
Cr3   O25   S    
C121  H87   S    
C9    O21   A    
C87   C144  S    
C109  H59   S    
Cr2   O14   S    
C95   C136  S    
Cr2   O5    S    
C59   C106  S    
C52   C127  S    
C22   C65   S    
C98   H29   S    
C139  N7    T    
C78   H21   S    
C119  H78   S    
Cr6   O21   S    
C65   C77   A    
C37   C49   A    
C115  H73   S    
C36   C96   A    
C55   C67   A    
C105  H39   S    
C80   H13   S    
C128  H99   S    
Cr4   O19   S    
C26   C86   A    
C62   C74   A    
C14   C67   S    
C57   C112  S    
C25   C85   A    
C120  H74   S    
Cr1   O25   S    
C106  C107  S    
C122  H85   S    
C83   C95   A    
C74   C86   A    
C27   C87   A    
C100  H38   S    
C132  H103  S    
C41   C53   A    
C98   C99   S    
C72   C84   A    
C125  H92   S    
Cr6   O24   S    
C94   C137  S    
C5    C25   S    
C49   C118  S    
C43   C55   A    
C23   C64   S    
C134  N2    T    
C34   C94   A    
C103  H45   S    
C109  C110  S    
C16   C23   T    
C31   C91   A    
C126  H89   S    
C140  N8    T    
C123  H82   S    
C50   C62   A    
C86   C139  S    
C107  H50   S    
C112  H66   S    
C118  H79   S    
C122  C123  S    
C116  H71   S    
C6    O18   A    
C129  H95   S    
C104  H43   S    
C93   C138  S    
C100  H37   S    
Cr4   O7    S    
C63   C75   A    
C48   H12   S    
Cr6   O26   S    
C73   C85   A    
C114  H62   S    
C121  H86   S    
C47   H11   S    
C114  H60   S    
C130  H108  S    
C4    O2    A    
C131  H106  S    
C124  H94   S    
C85   C140  S    
C13   C20   T    
C29   C41   A    
C81   C93   A    
C77   C89   A    
C76   H23   S    
C14   C19   T    
Cr3   O15   S    
C131  H105  S    
C9    O7    A    
C10   O8    A    
C56   C97   S    
C1    O5    A    
C33   C93   A    
C39   H3    S    
C37   H1    S    
C45   H9    S    
C54   C66   A    
C35   C95   A    
C102  H34   S    
C43   H7    S    
C58   C109  S    
C17   C22   T    
C50   C115  S    
C38   C50   A    
C97   H31   S    
C75   H24   S    
C26   C38   A    
C128  C129  S    
C91   C134  S    
C131  C132  S    
C136  N4    T    
C55   C100  S    
C98   H28   S    
C77   H22   S    
C40   C52   A    
C119  H77   S    
C42   C54   A    
C4    O16   A    
C49   C61   A    
C108  H46   S    
C32   C92   A    
C51   C130  S    
C128  H98   S    
Cr4   O22   S    
C115  C116  S    
Cr5   O23   S    
C120  H75   S    
Cr5   O26   S    
C10   C36   S    
C36   C48   A    
C122  H84   S    
C103  H44   S    
C117  H67   S    
C70   C82   A    
C132  H104  S    
C4    C30   S    
Cr1   O16   S    
C100  C101  S    
C5    O17   A    
C24   C63   S    
C47   C59   A    
C111  H53   S    
C110  H56   S    
C41   H5    S    
C118  H80   S    
C74   H19   S    
C59   C71   A    
C113  C114  S    
C32   C44   A    
C73   H20   S    
C12   O10   A    
C126  H90   S    
C113  H64   S    
C138  N6    T    
C1    C27   S    
C28   C40   A    
C141  N9    T    
C30   C42   A    
C2    C28   S    
C2    O14   A    
C19   C62   S    
C54   C121  S    
C57   C69   A    
C92   C133  S    
C126  H88   S    
Cr1   O13   S    
C42   H6    S    
C104  H42   S    
C107  H49   S    
C97   H30   S    
C12   C32   S    
C75   C87   A    
Cr4   O10   S    
C121  C122  S    
C10   O22   A    
C7    O19   A    
C13   C68   S    
C133  N1    T    
