data_mof_unit_42889.cif
_audit_creation_date              2012-12-10T16:49:26-0500
_audit_creation_method            fapswitch 2.2
_symmetry_space_group_name_H-M    P1
_symmetry_Int_Tables_number       1
_space_group_crystal_system       triclinic
_cell_length_a                    19.356867
_cell_length_b                    8.825971
_cell_length_c                    7.431691
_cell_angle_alpha                 102.358606
_cell_angle_beta                  93.50983
_cell_angle_gamma                 90.6339
_cell_volume                      1237.5253997

loop_
_atom_site_label
_atom_site_type_symbol
_atom_type_description
_atom_site_fract_x
_atom_site_fract_y
_atom_site_fract_z
_atom_type_partial_charge
C1    C     C_R   0.498630 0.200790 0.454531 0.775280
C2    C     C_R   0.503829 0.799199 0.545231 0.806380
C3    C     C_2   0.496342 0.033735 0.427549 0.157920
C4    C     C_2   0.510250 0.965618 0.571026 0.163575
C5    C     C_R   0.367427 0.487214 0.501441 0.835147
C6    C     C_R   0.632588 0.502150 0.496539 0.840354
C7    C     C_R   0.254334 0.517427 0.660197 0.244568
C8    C     C_R   0.740905 0.569828 0.355447 0.252277
C9    C     C_R   0.182743 0.528187 0.647145 -0.153830
C10   C     C_R   0.812727 0.563501 0.343655 -0.137882
C11   C     C_R   0.144954 0.480858 0.477714 -0.063876
C12   C     C_R   0.853640 0.498352 0.467592 -0.060859
C13   C     C_R   0.179508 0.412319 0.322270 -0.149217
C14   C     C_R   0.822359 0.438241 0.602456 -0.157535
C15   C     C_R   0.251490 0.399285 0.334500 0.284111
C16   C     C_R   0.751130 0.440494 0.614253 0.248013
C17   C     C_R   0.290791 0.467157 0.500444 -0.173287
C18   C     C_R   0.708732 0.503865 0.488230 -0.169327
C19   C     C_R   0.929343 0.498853 0.466390 0.444229
C20   C     C_R   0.069118 0.488280 0.471026 0.447734
Cu1   Cu    Cu3+1 0.507710 0.517380 0.684380 1.023102
Cu2   Cu    Cu3+1 0.492290 0.482620 0.315620 1.013325
H1    H     H_    0.156431 0.570470 0.772050 0.197225
H2    H     H_    0.836815 0.615377 0.242809 0.193594
H3    H     H_    0.150353 0.361300 0.194090 0.195352
H4    H     H_    0.853580 0.388218 0.699971 0.196278
H5    H     H_    0.448525 0.377717 0.948393 0.271380
H6    H     H_    0.550438 0.624024 0.051840 0.283039
N1    N     N_R   0.030995 0.486292 0.310707 -0.213777
N2    N     N_R   0.967622 0.501321 0.625821 -0.216897
N3    N     N_R   0.962147 0.492056 0.308513 -0.211499
N4    N     N_R   0.036069 0.496648 0.628192 -0.219337
N5    N     N_2   0.480680 0.456420 0.038530 -0.198576
N6    N     N_2   0.519320 0.543580 0.961470 -0.198412
O1    O     O_R   0.505010 0.286130 0.619770 -0.548622
O2    O     O_R   0.494990 0.713870 0.380230 -0.546077
O3    O     O_R   0.491990 0.256780 0.308370 -0.600807
O4    O     O_R   0.508010 0.743220 0.691630 -0.587531
O5    O     O_R   0.406650 0.514660 0.655750 -0.566433
O6    O     O_R   0.593350 0.485340 0.344250 -0.571300
O7    O     O_R   0.393640 0.485310 0.344340 -0.537029
O8    O     O_R   0.606360 0.514690 0.655660 -0.532692
Br1   Br    Br    0.294952 0.545453 0.903664 -0.519957
Br2   Br    Br    0.691696 0.687709 0.201980 -0.510225
Br3   Br    Br    0.290241 0.257465 0.135156 -0.514087
Br4   Br    Br    0.717659 0.354712 0.809086 -0.526788
O9    O     O_3   0.485192 0.944937 0.248887 -0.594363
C21   C     C_3   0.423106 0.985653 0.162492 0.073816
H7    H     H_    0.435272 0.057827 0.062403 0.229959
H8    H     H_    0.386361 0.047338 0.261677 0.156227
C22   C     C_3   0.386420 0.840637 0.056879 -0.628704
H9    H     H_    0.373952 0.767837 0.155878 0.273403
H10   H     H_    0.338012 0.871633 0.986403 0.234095
H11   H     H_    0.419927 0.776013 0.952486 0.279162
O10   O     O_3   0.524223 0.051387 0.749700 -0.590017
C23   C     C_3   0.595247 0.039962 0.800242 0.082276
H12   H     H_    0.627377 0.091406 0.708622 0.178477
H13   H     H_    0.610686 0.917665 0.791532 0.163748
C24   C     C_3   0.610417 0.126642 0.999024 -0.598656
H14   H     H_    0.581368 0.071075 0.092477 0.258039
H15   H     H_    0.666555 0.123065 0.038249 0.220657
H16   H     H_    0.595095 0.249380 0.015314 0.274854

loop_
_geom_bond_atom_site_label_1
_geom_bond_atom_site_label_2
_ccdc_geom_bond_type
C2    C4    S    
O10   C23   S    
C15   C17   A    
Cu1   O1    S    
C7    Br1   S    
C3    O9    S    
C11   C13   A    
C2    O4    A    
O9    C21   S    
Cu1   O5    S    
C23   C24   S    
C1    O3    A    
C22   H11   S    
Cu2   O6    S    
C2    O2    A    
C21   H8    S    
N5    N6    D    
C3    C4    D    
C19   N3    A    
C24   H14   S    
N1    N3    A    
Cu1   Cu2   S    
H5    N5    S    
N2    N4    A    
C9    C11   A    
C13   H3    S    
C10   C12   A    
C12   C19   S    
C8    C10   A    
C21   H7    S    
C12   C14   A    
C6    O6    A    
C20   N1    A    
C5    O5    A    
C13   C15   A    
C6    O8    A    
C6    C18   S    
C14   C16   A    
C11   C20   S    
C24   H15   S    
Cu2   O7    S    
C5    C17   S    
C15   Br3   S    
C22   H10   S    
H6    N6    S    
C22   H9    S    
C8    Br2   S    
Cu2   O2    S    
C23   H12   S    
C1    O1    A    
C16   C18   A    
C14   H4    S    
C20   N4    A    
C16   Br4   S    
C4    O10   S    
C7    C9    A    
Cu2   N5    S    
C5    O7    A    
C9    H1    S    
C24   H16   S    
Cu1   N6    S    
C10   H2    S    
C19   N2    A    
Cu2   O3    S    
C21   C22   S    
C8    C18   A    
Cu1   O4    S    
Cu1   O8    S    
C23   H13   S    
C1    C3    S    
C7    C17   A    
