data_mof_unit_21293.cif
_audit_creation_date              2012-12-11T15:50:36-0500
_audit_creation_method            fapswitch 2.2
_symmetry_space_group_name_H-M    P1
_symmetry_Int_Tables_number       1
_space_group_crystal_system       triclinic
_cell_length_a                    18.967182
_cell_length_b                    11.094168
_cell_length_c                    18.65706
_cell_angle_alpha                 90.000056
_cell_angle_beta                  90.740889
_cell_angle_gamma                 90.427889
_cell_volume                      3925.4760755

loop_
_atom_site_label
_atom_site_type_symbol
_atom_type_description
_atom_site_fract_x
_atom_site_fract_y
_atom_site_fract_z
_atom_type_partial_charge
C1    C     C_R   0.274740 0.035545 0.856195 0.548818
C2    C     C_R   0.781520 0.511309 0.938084 0.012982
C3    C     C_R   0.210949 0.501083 0.361990 0.559774
C4    C     C_R   0.466400 0.822286 0.645094 0.540626
C5    C     C_R   0.527956 0.822449 0.351255 0.528502
C6    C     C_R   0.940758 0.318466 0.639271 0.545579
C7    C     C_R   0.026055 0.321742 0.350088 0.525590
C8    C     C_R   0.258619 0.634511 0.646143 0.538118
C9    C     C_R   0.742053 0.632352 0.353167 0.574903
C10   C     C_R   0.757783 0.135440 0.645092 0.532403
C11   C     C_R   0.242012 0.132859 0.353300 0.546259
C12   C     C_3   0.455501 0.904642 0.031899 -0.128007
C13   C     C_R   0.735485 0.055152 0.067432 0.010597
C14   C     C_3   0.509797 0.944335 0.974960 -0.111376
C15   C     C_3   0.957111 0.401445 0.032457 -0.134106
C16   C     C_3   0.010414 0.444066 0.975306 -0.116821
C17   C     C_3   0.435327 0.793608 0.985937 -0.113175
C18   C     C_3   0.567090 0.868145 0.013036 -0.112864
C19   C     C_3   0.937465 0.290891 0.986015 -0.117060
C20   C     C_3   0.068700 0.368841 0.012342 -0.110745
C21   C     C_3   0.490333 0.832431 0.930328 0.062423
C22   C     C_3   0.512152 0.828251 0.068281 0.053563
C23   C     C_3   0.991537 0.332435 0.930053 0.058493
C24   C     C_R   0.264911 0.053261 0.932490 0.016955
C25   C     C_3   0.014596 0.326405 0.067608 0.055173
C26   C     C_3   0.443978 0.491041 0.350802 -0.014737
C27   C     C_3   0.503921 0.402349 0.337594 -0.385419
C28   C     C_3   0.607949 0.649047 0.547015 -0.002315
C29   C     C_3   0.643663 0.715055 0.609098 -0.347405
C30   C     C_3   0.943343 0.994783 0.344812 -0.011796
C31   C     C_3   0.006061 0.918823 0.322181 -0.377962
C32   C     C_3   0.097024 0.174211 0.547039 0.002621
C33   C     C_3   0.132154 0.236584 0.610623 -0.353513
C34   C     C_3   0.303851 0.365249 0.651395 0.002133
C35   C     C_R   0.284052 0.487213 0.029056 0.030426
C36   C     C_3   0.360985 0.348550 0.708679 -0.320626
C37   C     C_3   0.797497 0.323391 0.369114 -0.008675
C38   C     C_3   0.794822 0.293639 0.289500 -0.343965
C39   C     C_3   0.812541 0.872108 0.656918 0.003359
C40   C     C_3   0.875752 0.858914 0.707604 -0.323333
C41   C     C_3   0.228008 0.849673 0.347641 0.011628
C42   C     C_3   0.183264 0.834793 0.279796 -0.339246
C43   C     C_R   0.726182 0.457923 0.976338 0.020172
C44   C     C_R   0.783884 0.986761 0.028932 0.029920
C45   C     C_R   0.218900 0.980301 0.972178 0.031346
C46   C     C_R   0.289024 0.498566 0.955325 0.005713
C47   C     C_R   0.714814 0.488253 0.047614 0.010107
C48   C     C_R   0.788814 0.998254 0.955270 0.011221
C49   C     C_R   0.725505 0.036391 0.143974 0.538367
C50   C     C_R   0.213290 0.996099 0.045418 0.003970
C51   C     C_R   0.182601 0.613954 0.953607 -0.162516
C52   C     C_R   0.821439 0.606532 0.048364 -0.168683
C53   C     C_R   0.682729 0.114381 0.953710 -0.164373
C54   C     C_R   0.314988 0.125976 0.044344 -0.165761
C55   C     C_R   0.181259 0.612038 0.027866 -0.171208
C56   C     C_R   0.832465 0.577193 0.977021 -0.163640
C57   C     C_R   0.681435 0.112317 0.027970 -0.169748
C58   C     C_R   0.317135 0.118214 0.970558 -0.158880
C59   C     C_3   0.361702 0.477072 0.038617 -0.276423
C60   C     C_R   0.790493 0.496492 0.860762 0.569380
C61   C     C_3   0.648942 0.452492 0.960212 -0.261067
C62   C     C_3   0.861427 0.973256 0.038286 -0.276518
C63   C     C_3   0.141909 0.954328 0.963927 -0.268033
C64   C     C_3   0.367321 0.486952 0.957412 -0.276495
C65   C     C_3   0.636793 0.485519 0.038191 -0.275667
C66   C     C_3   0.866950 0.983856 0.957043 -0.276533
C67   C     C_3   0.135698 0.975332 0.044326 -0.279034
C68   C     C_R   0.242469 0.573364 0.917386 0.014833
C69   C     C_R   0.759024 0.571152 0.083017 0.013516
C70   C     C_R   0.742490 0.073524 0.917406 0.016266
C71   C     C_R   0.225433 0.536306 0.143934 0.542145
C72   C     C_R   0.257327 0.077693 0.081774 0.014362
C73   C     C_R   0.492125 0.829217 0.419332 -0.023217
C74   C     C_R   0.481470 0.824527 0.569267 0.017343
C75   C     C_R   0.981063 0.324251 0.413499 -0.038726
C76   C     C_R   0.955312 0.320663 0.562377 0.009270
C77   C     C_R   0.469929 0.822313 0.855240 0.547304
C78   C     C_R   0.531549 0.821114 0.143832 0.543356
C79   C     C_R   0.970093 0.322344 0.855172 0.545781
C80   C     C_R   0.032765 0.320675 0.143302 0.545715
C81   C     C_R   0.464977 0.725886 0.453425 -0.004615
C82   C     C_3   0.547082 0.757485 0.967014 -0.136245
C83   C     C_R   0.460136 0.725515 0.527514 0.007677
C84   C     C_R   0.956412 0.217513 0.447002 -0.021794
C85   C     C_R   0.944426 0.217279 0.520754 -0.007936
C86   C     C_R   0.504328 0.928180 0.535031 -0.189507
C87   C     C_R   0.504522 0.932614 0.460498 -0.172944
C88   C     C_R   0.976538 0.425202 0.527587 -0.184986
C89   C     C_R   0.979062 0.430276 0.452856 -0.190400
C90   C     C_3   0.488096 0.595173 0.451458 0.154893
C91   C     C_3   0.484802 0.597975 0.533007 0.192802
C92   C     C_3   0.986456 0.091460 0.448313 0.156021
C93   C     C_3   0.492765 0.717567 0.023117 -0.129359
C94   C     C_3   0.978815 0.096580 0.529356 0.194744
C95   C     C_R   0.227011 0.529334 0.435335 -0.038806
C96   C     C_R   0.781334 0.522120 0.563201 -0.033423
C97   C     C_R   0.714693 0.011195 0.440058 -0.038074
C98   C     C_R   0.276783 0.025529 0.564010 -0.040894
C99   C     C_R   0.191130 0.623615 0.465906 0.028590
C100  C     C_R   0.802798 0.635499 0.538367 0.005280
C101  C     C_R   0.660787 0.066847 0.478059 -0.000627
C102  C     C_R   0.309452 0.126086 0.534755 0.004170
C103  C     C_R   0.197653 0.645282 0.536601 -0.014476
C104  C     C_3   0.049402 0.258441 0.965747 -0.130848
C105  C     C_R   0.794384 0.662405 0.467324 -0.022219
C106  C     C_R   0.668723 0.089861 0.550144 -0.029347
C107  C     C_R   0.303253 0.148059 0.463838 -0.016192
C108  C     C_R   0.282166 0.483945 0.550845 0.225532
C109  C     C_R   0.748426 0.464536 0.441461 0.211763
C110  C     C_R   0.776296 0.976052 0.554922 0.219127
C111  C     C_R   0.227229 0.973811 0.446736 0.218638
C112  C     C_R   0.274894 0.461672 0.477097 -0.104908
C113  C     C_R   0.760982 0.432161 0.513468 -0.167580
C114  C     C_R   0.769864 0.958218 0.480175 -0.125892
C115  C     C_3   0.995867 0.215806 0.022079 -0.123280
C116  C     C_R   0.234361 0.950128 0.520343 -0.138593
C117  C     C_3   0.113787 0.641351 0.467235 -0.254449
C118  C     C_3   0.878285 0.675618 0.536848 -0.252207
C119  C     C_3   0.622296 0.183159 0.465676 -0.256078
C120  C     C_3   0.386085 0.156896 0.535581 -0.254574
C121  C     C_3   0.120883 0.666463 0.546111 -0.267434
C122  C     C_3   0.871134 0.690632 0.458146 -0.258645
C123  C     C_3   0.626151 0.203377 0.545472 -0.249286
C124  C     C_3   0.380346 0.172916 0.455776 -0.268087
C125  C     C_R   0.259438 0.633572 0.850171 0.536437
C126  C     C_R   0.235354 0.555152 0.067386 0.009834
C127  C     C_R   0.740193 0.634924 0.148835 0.545214
C128  C     C_R   0.759441 0.133576 0.850162 0.532803
C129  C     C_R   0.240413 0.134144 0.149650 0.542586
C130  C     C_R   0.242476 0.578407 0.579717 0.006555
C131  C     C_R   0.757592 0.584688 0.422237 0.028466
C132  C     C_R   0.732663 0.062194 0.585449 0.009907
C133  C     C_R   0.259977 0.077937 0.420019 0.009618
C134  C     C_R   0.290218 0.999041 0.638125 0.557212
C135  C     C_R   0.708983 0.998498 0.361940 0.571057
C136  C     C_R   0.791671 0.496634 0.638337 0.544189
Cr1   Cr    Cr6+3 0.229640 0.835880 0.747370 1.010374
Cr2   Cr    Cr6+3 0.614230 0.677220 0.250660 0.990817
Cr3   Cr    Cr6+3 0.885770 0.177220 0.749340 0.994705
Cr4   Cr    Cr6+3 0.114230 0.177220 0.250660 0.969067
Cr5   Cr    Cr6+3 0.770360 0.835880 0.252630 0.975869
Cr6   Cr    Cr6+3 0.729640 0.335880 0.747370 1.002508
Cr7   Cr    Cr6+3 0.270360 0.335880 0.252630 0.979240
Cr8   Cr    Cr6+3 0.387390 0.989720 0.750850 0.980214
Cr9   Cr    Cr6+3 0.612610 0.989720 0.249150 0.993771
Cr10  Cr    Cr6+3 0.887390 0.489720 0.750850 0.970472
Cr11  Cr    Cr6+3 0.112610 0.489720 0.249150 0.976144
Cr12  Cr    Cr6+3 0.385770 0.677220 0.749340 1.007897
H1    H     H_    0.380037 0.766197 0.973745 0.117562
H2    H     H_    0.941308 0.028538 0.550011 0.217086
H3    H     H_    0.247970 0.760640 0.364692 0.174242
H4    H     H_    0.275534 0.903499 0.333182 0.096764
H5    H     H_    0.169155 0.924079 0.257536 0.156584
H6    H     H_    0.213410 0.784895 0.238871 0.122820
H7    H     H_    0.133926 0.784740 0.291445 0.170587
H8    H     H_    0.541958 0.578479 0.431408 0.141787
H9    H     H_    0.442857 0.538883 0.554836 0.218815
H10   H     H_    0.304679 0.391164 0.452766 0.171964
H11   H     H_    0.758538 0.338824 0.529544 0.111211
H12   H     H_    0.809920 0.911505 0.452485 0.178775
H13   H     H_    0.208163 0.873926 0.543415 0.160939
H14   H     H_    0.090199 0.553771 0.455548 0.138939
H15   H     H_    0.912416 0.605987 0.555601 0.144623
H16   H     H_    0.567486 0.178777 0.445768 0.116482
H17   H     H_    0.622100 0.893949 0.026584 0.130667
H18   H     H_    0.416565 0.080238 0.554052 0.152856
H19   H     H_    0.095729 0.719285 0.434632 0.185812
H20   H     H_    0.891692 0.760423 0.563497 0.201513
H21   H     H_    0.653814 0.248382 0.435621 0.220845
H22   H     H_    0.399420 0.241575 0.563928 0.194874
H23   H     H_    0.108291 0.761042 0.560298 0.169133
H24   H     H_    0.885376 0.781516 0.439206 0.182048
H25   H     H_    0.653344 0.288133 0.560318 0.178583
H26   H     H_    0.392787 0.265887 0.438151 0.175308
H27   H     H_    0.096696 0.597311 0.581171 0.128314
H28   H     H_    0.882270 0.262510 0.974188 0.111887
H29   H     H_    0.896616 0.620030 0.426305 0.131577
H30   H     H_    0.574176 0.193360 0.571642 0.134877
H31   H     H_    0.406703 0.101576 0.424513 0.134113
H32   H     H_    0.418625 0.962638 0.061481 0.116807
H33   H     H_    0.517281 0.036788 0.953485 0.107825
H34   H     H_    0.921884 0.455262 0.066177 0.118534
H35   H     H_    0.016756 0.537137 0.954419 0.104516
H36   H     H_    0.585184 0.702096 0.937524 0.109886
H37   H     H_    0.488812 0.624314 0.043702 0.116123
H38   H     H_    0.088930 0.208048 0.935217 0.107988
H39   H     H_    0.123591 0.395032 0.025938 0.131171
H40   H     H_    0.991116 0.122318 0.042120 0.111822
H41   H     H_    0.140283 0.659758 0.925669 0.130741
H42   H     H_    0.860161 0.664505 0.074338 0.133143
H43   H     H_    0.640482 0.160478 0.925853 0.131380
H44   H     H_    0.355025 0.180877 0.070544 0.134125
H45   H     H_    0.136982 0.654102 0.053778 0.139722
H46   H     H_    0.879340 0.612394 0.951604 0.137255
H47   H     H_    0.637318 0.154815 0.053923 0.142828
H48   H     H_    0.359504 0.165335 0.943739 0.137137
H49   H     H_    0.875856 0.882768 0.058953 0.140577
H50   H     H_    0.521725 0.005226 0.566047 0.123849
H51   H     H_    0.131487 0.859546 0.948474 0.140157
H52   H     H_    0.377628 0.387818 0.059817 0.137139
H53   H     H_    0.630374 0.360347 0.946840 0.135080
H54   H     H_    0.383081 0.555294 0.068990 0.128282
H55   H     H_    0.632186 0.522032 0.921087 0.143906
H56   H     H_    0.884460 0.050142 0.068732 0.127529
H57   H     H_    0.113988 0.020019 0.929625 0.129069
H58   H     H_    0.395543 0.568507 0.938893 0.169305
H59   H     H_    0.613390 0.575698 0.045712 0.158004
H60   H     H_    0.896089 0.064712 0.938814 0.166539
H61   H     H_    0.521514 0.012850 0.434528 0.143874
H62   H     H_    0.106400 0.057935 0.058115 0.165570
H63   H     H_    0.384770 0.401835 0.931964 0.125061
H64   H     H_    0.611918 0.411644 0.069438 0.131754
H65   H     H_    0.883289 0.898361 0.931225 0.132708
H66   H     H_    0.120449 0.892949 0.074454 0.125310
H67   H     H_    0.449462 0.573966 0.318218 0.163949
H68   H     H_    0.394981 0.446612 0.331236 0.179684
H69   H     H_    0.556224 0.447046 0.342781 0.166893
H70   H     H_    0.499152 0.365926 0.282288 0.092299
H71   H     H_    0.500923 0.326230 0.375969 0.146061
H72   H     H_    0.996688 0.499302 0.558829 0.121092
H73   H     H_    0.595996 0.717140 0.505262 0.114051
H74   H     H_    0.645499 0.585302 0.523372 0.149479
H75   H     H_    0.606184 0.774009 0.637094 0.152293
H76   H     H_    0.686218 0.772821 0.587669 0.088096
H77   H     H_    0.665645 0.650247 0.648370 0.190806
H78   H     H_    0.942717 0.083893 0.317837 0.157511
H79   H     H_    0.895356 0.946932 0.325466 0.177942
H80   H     H_    0.001916 0.899080 0.263915 0.075512
H81   H     H_    0.006402 0.832300 0.352138 0.144461
H82   H     H_    0.056428 0.967569 0.332154 0.190191
H83   H     H_    0.989885 0.514063 0.426294 0.123323
H84   H     H_    0.080129 0.245471 0.509351 0.119218
H85   H     H_    0.136617 0.120218 0.518911 0.147891
H86   H     H_    0.092598 0.285321 0.642602 0.180721
H87   H     H_    0.170801 0.303389 0.590493 0.071171
H88   H     H_    0.159320 0.169777 0.645317 0.176295
H89   H     H_    0.283210 0.276072 0.635710 0.165345
H90   H     H_    0.259154 0.412808 0.676375 0.104098
H91   H     H_    0.382439 0.437187 0.726211 0.172217
H92   H     H_    0.338440 0.301868 0.755880 0.118298
H93   H     H_    0.404816 0.293774 0.687612 0.144900
H94   H     H_    0.041885 0.080811 0.431277 0.159788
H95   H     H_    0.803324 0.238609 0.400323 0.161771
H96   H     H_    0.845332 0.380776 0.378145 0.129094
H97   H     H_    0.793220 0.378215 0.257689 0.143572
H98   H     H_    0.842438 0.242087 0.274705 0.093082
H99   H     H_    0.747289 0.239062 0.276255 0.207149
H100  H     H_    0.791611 0.781850 0.644529 0.165451
H101  H     H_    0.770249 0.918070 0.686763 0.119394
H102  H     H_    0.898404 0.948673 0.721119 0.179431
H103  H     H_    0.858912 0.814220 0.757892 0.117492
H104  H     H_    0.917282 0.803503 0.682733 0.133677
O1    O     O_R   0.214300 0.709080 0.827500 -0.527171
O2    O     O_R   0.543340 0.717710 0.330180 -0.550664
O3    O     O_R   0.956660 0.217710 0.669820 -0.469727
O4    O     O_R   0.043340 0.217710 0.330180 -0.548889
O5    O     O_R   0.320590 0.625770 0.672930 -0.483174
O6    O     O_R   0.679410 0.625770 0.327070 -0.494272
O7    O     O_R   0.820590 0.125770 0.672930 -0.487810
O8    O     O_R   0.179410 0.125770 0.327070 -0.493561
O9    O     O_3   0.334270 0.834280 0.749190 -0.273272
O10   O     O_3   0.665730 0.834280 0.250810 -0.266613
O11   O     O_3   0.834270 0.334280 0.749190 -0.307013
O12   O     O_R   0.785700 0.709080 0.172500 -0.532045
O13   O     O_3   0.165730 0.334280 0.250810 -0.258534
O14   O     O_R   0.236190 0.958390 0.823150 -0.491714
O15   O     O_R   0.763810 0.958390 0.176850 -0.501235
O16   O     O_R   0.736190 0.458390 0.823150 -0.491959
O17   O     O_R   0.263810 0.458390 0.176850 -0.497062
O18   O     O_R   0.332090 0.075280 0.831290 -0.535680
O19   O     O_R   0.667910 0.075280 0.168710 -0.529970
O20   O     O_R   0.832090 0.575280 0.831290 -0.528543
O21   O     O_R   0.167910 0.575280 0.168710 -0.536673
O22   O     O_R   0.446280 0.918040 0.826620 -0.504558
O23   O     O_R   0.714300 0.209080 0.827500 -0.531162
O24   O     O_R   0.553720 0.918040 0.173380 -0.503573
O25   O     O_R   0.946280 0.418040 0.826620 -0.517782
O26   O     O_R   0.053720 0.418040 0.173380 -0.503553
O27   O     O_R   0.457080 0.716270 0.831760 -0.526649
O28   O     O_R   0.542920 0.716270 0.168240 -0.533580
O29   O     O_R   0.957080 0.216270 0.831760 -0.524521
O30   O     O_R   0.042920 0.216270 0.168240 -0.536730
O31   O     O_R   0.320980 0.624440 0.823040 -0.517935
O32   O     O_R   0.679020 0.624440 0.176960 -0.497241
O33   O     O_R   0.820980 0.124440 0.823040 -0.517409
O34   O     O_R   0.285700 0.209080 0.172500 -0.530557
O35   O     O_R   0.179020 0.124440 0.176960 -0.514886
O36   O     O_R   0.213880 0.710510 0.665560 -0.539874
O37   O     O_R   0.786120 0.710510 0.334440 -0.547344
O38   O     O_R   0.713880 0.210510 0.665560 -0.541704
O39   O     O_R   0.286120 0.210510 0.334440 -0.545379
O40   O     O_R   0.235800 0.959720 0.673040 -0.499909
O41   O     O_R   0.764200 0.959720 0.326960 -0.527936
O42   O     O_R   0.735800 0.459720 0.673040 -0.493550
O43   O     O_R   0.264200 0.459720 0.326960 -0.519333
O44   O     O_R   0.331670 0.076720 0.669350 -0.541059
O45   O     O_R   0.445900 0.919370 0.676500 -0.530234
O46   O     O_R   0.668330 0.076720 0.330650 -0.516290
O47   O     O_R   0.831670 0.576720 0.669350 -0.539150
O48   O     O_R   0.168330 0.576720 0.330650 -0.532560
O49   O     O_3   0.434967 0.516401 0.424387 -0.592195
O50   O     O_3   0.549299 0.581766 0.572152 -0.562941
O51   O     O_3   0.938880 0.004010 0.420121 -0.609100
O52   O     O_3   0.042483 0.096421 0.571355 -0.554082
O53   O     O_3   0.333086 0.423338 0.590634 -0.579584
O54   O     O_3   0.734145 0.380526 0.388610 -0.585389
O55   O     O_3   0.833764 0.931243 0.592724 -0.589594
O56   O     O_R   0.554100 0.919370 0.323500 -0.516841
O57   O     O_3   0.186449 0.899047 0.403206 -0.575697
O58   O     O_R   0.945900 0.419370 0.676500 -0.529295
O59   O     O_R   0.054100 0.419370 0.323500 -0.514862
O60   O     O_R   0.456660 0.717710 0.669820 -0.482217

loop_
_geom_bond_atom_site_label_1
_geom_bond_atom_site_label_2
_ccdc_geom_bond_type
C99   C103  A    
C74   C83   A    
Cr11  O13   S    
Cr11  O26   S    
C120  H18   S    
C105  C131  A    
C80   O30   A    
C41   O57   S    
C112  H10   S    
C110  O55   S    
C57   H47   S    
C36   H93   S    
Cr5   O15   S    
C14   C21   S    
C95   C99   A    
Cr10  O58   S    
Cr8   O22   S    
C50   C72   A    
C19   H28   S    
C91   O50   S    
Cr10  O25   S    
Cr12  O60   S    
C37   H96   S    
C9    O6    A    
C107  C124  S    
C123  H30   S    
Cr8   O9    S    
C77   O22   A    
C73   C81   A    
C9    C131  S    
Cr3   O29   S    
Cr7   O34   S    
C22   C78   S    
C135  O46   A    
C48   C70   A    
C40   H103  S    
C98   C102  A    
C38   H97   S    
C17   C21   S    
C26   H67   S    
Cr7   O13   S    
Cr8   O18   S    
C37   C38   S    
C55   C126  A    
C71   O17   A    
C92   C94   S    
Cr10  O11   S    
C89   H83   S    
C33   H88   S    
C136  O42   A    
C86   H50   S    
C81   C90   S    
C49   O19   A    
Cr9   O56   S    
Cr6   O42   S    
Cr6   O11   S    
C103  C121  S    
C83   C91   S    
C43   C61   S    
Cr4   O8    S    
Cr2   O28   S    
Cr4   O30   S    
C41   H3    S    
C119  C123  S    
C79   O29   A    
C104  H38   S    
Cr12  O27   S    
C66   H65   S    
C11   O8    A    
C32   O52   S    
C90   O49   S    
Cr7   O43   S    
C121  H27   S    
C45   C50   A    
Cr8   O44   S    
C31   H81   S    
C71   O21   A    
C6    O3    A    
C51   C55   A    
Cr4   O35   S    
C34   H90   S    
C103  C130  A    
C134  O44   A    
C39   H100  S    
C8    O36   A    
C61   C65   S    
C94   H2    S    
C88   C89   A    
C27   H70   S    
C28   H74   S    
C10   O7    A    
C3    C95   S    
C43   C47   A    
Cr6   O23   S    
C13   C44   A    
C44   C48   A    
C122  H29   S    
C32   H84   S    
Cr3   O11   S    
C7    O4    A    
C30   H78   S    
C78   O24   A    
C10   O38   A    
C54   H44   S    
C35   C59   S    
C42   H6    S    
Cr6   O16   S    
C75   C84   A    
C15   C25   S    
C124  H26   S    
C15   H34   S    
C82   H36   S    
C127  O12   A    
C118  C122  S    
C47   C69   A    
C18   C82   S    
C65   H64   S    
C71   C126  S    
C50   C67   S    
C110  C114  A    
C108  C130  A    
C36   H91   S    
C31   H80   S    
C81   C83   A    
C62   C66   S    
Cr2   O10   S    
C116  H13   S    
C129  O35   A    
C39   C40   S    
C74   C86   A    
C127  O32   A    
Cr1   O40   S    
C128  O23   A    
C46   C68   A    
C99   C117  S    
C40   H102  S    
Cr1   O14   S    
C59   H52   S    
C114  H12   S    
C102  C107  A    
C113  H11   S    
C62   H56   S    
Cr11  O21   S    
C119  H21   S    
C56   H46   S    
C12   H32   S    
C16   C23   S    
C17   C93   S    
C97   C135  S    
C90   H8    S    
C101  C106  A    
C121  H23   S    
C18   C22   S    
C62   H49   S    
C33   H87   S    
C119  H16   S    
C5    O56   A    
C6    C76   S    
C65   H59   S    
C117  H14   S    
C135  O41   A    
C3    O43   A    
C2    C56   A    
C59   H54   S    
C96   C100  A    
C58   H48   S    
Cr5   O12   S    
C105  C122  S    
C34   C36   S    
C5    C73   S    
C10   C132  S    
C75   C89   A    
C30   O51   S    
C21   C82   S    
C1    C24   S    
Cr2   O32   S    
C67   H66   S    
C84   C92   S    
C48   C66   S    
C97   C114  A    
C68   C125  S    
Cr1   O9    S    
Cr6   O38   S    
C27   H71   S    
C37   H95   S    
Cr12  O31   S    
C29   H76   S    
C25   C80   S    
C41   C42   S    
Cr12  O5    S    
Cr2   O6    S    
C72   C129  S    
C96   C136  S    
C15   C19   S    
C26   C27   S    
C28   C29   S    
C134  O40   A    
C128  O33   A    
C95   C112  A    
C30   C31   S    
C40   H104  S    
C2    C60   S    
C20   C25   S    
C38   H98   S    
C26   H68   S    
C73   C87   A    
C124  H31   S    
C52   C69   A    
C76   C85   A    
Cr8   O45   S    
C1    O14   A    
C125  O31   A    
Cr3   O7    S    
C12   C17   S    
C109  C131  A    
C110  C132  A    
C111  C116  A    
C51   H41   S    
C136  O47   A    
C11   O39   A    
C82   C93   S    
Cr7   O17   S    
C80   O26   A    
C87   H61   S    
C60   O16   A    
C53   C70   A    
C123  H25   S    
C18   H17   S    
C32   H85   S    
C118  H15   S    
Cr9   O24   S    
C84   C85   A    
C53   C57   A    
Cr9   O46   S    
Cr1   O36   S    
C64   H58   S    
C88   H72   S    
Cr3   O3    S    
C104  C115  S    
C66   H60   S    
Cr5   O41   S    
C23   C104  S    
C7    O59   A    
C59   C64   S    
C52   H42   S    
C53   H43   S    
C28   O50   S    
C108  O53   S    
C27   H69   S    
C92   O51   S    
C8    C130  S    
C96   C113  A    
C100  C118  S    
C4    O45   A    
C14   H33   S    
C102  C120  S    
C29   H75   S    
C26   O49   S    
C86   C87   A    
C30   H79   S    
C32   C33   S    
C11   C133  S    
C42   H7    S    
C107  C133  A    
C4    O60   A    
C120  H22   S    
C90   C91   S    
C117  H19   S    
C118  H20   S    
C3    O48   A    
C91   H9    S    
C106  C132  A    
C108  C112  A    
C111  O57   S    
C13   C57   A    
C69   C127  S    
C24   C58   A    
C63   H57   S    
Cr2   O2    S    
C35   C46   A    
C93   H37   S    
C36   H92   S    
C12   C22   S    
Cr5   O10   S    
C14   C18   S    
C19   C23   S    
C29   H77   S    
C16   H35   S    
C41   H4    S    
Cr10  O47   S    
C6    O58   A    
C100  C105  A    
C24   C45   A    
C129  O34   A    
C25   C115  S    
C15   C16   S    
C31   H82   S    
Cr3   O33   S    
C67   H62   S    
C8    O5    A    
C34   H89   S    
C117  C121  S    
C34   O53   S    
C61   H53   S    
C92   H94   S    
C28   H73   S    
C106  C123  S    
C64   H63   S    
Cr4   O4    S    
Cr12  O9    S    
C76   C88   A    
C4    C74   S    
C16   C20   S    
C37   O54   S    
C49   O15   A    
C63   C67   S    
C101  C119  S    
C42   H5    S    
C111  C133  A    
C7    C75   S    
C1    O18   A    
C44   C62   S    
C109  O54   S    
C45   C63   S    
C46   C64   S    
C5    O2    A    
C35   C126  A    
C39   O55   S    
C85   C94   S    
C98   C116  A    
C39   H101  S    
C19   C115  S    
C2    C43   A    
C79   O25   A    
C60   O20   A    
C125  O1    A    
C13   C49   S    
Cr7   O39   S    
C55   H45   S    
C12   C14   S    
C122  H24   S    
C22   C93   S    
Cr11  O59   S    
C54   C58   A    
C70   C128  S    
C17   H1    S    
C94   O52   S    
Cr5   O37   S    
C20   C104  S    
C109  C113  A    
C98   C134  S    
Cr9   O19   S    
C77   O27   A    
Cr10  O20   S    
C78   O28   A    
C61   H55   S    
C20   H39   S    
C9    O37   A    
C115  H40   S    
C38   H99   S    
C63   H51   S    
C51   C68   A    
Cr1   O1    S    
C52   C56   A    
C54   C72   A    
Cr11  O48   S    
C21   C77   S    
Cr9   O10   S    
Cr4   O13   S    
C23   C79   S    
C47   C65   S    
C97   C101  A    
C33   H86   S    
C120  C124  S    
