data_mof_unit_8946.cif
_audit_creation_date              2012-12-10T18:55:58-0500
_audit_creation_method            fapswitch 2.2
_symmetry_space_group_name_H-M    P1
_symmetry_Int_Tables_number       1
_space_group_crystal_system       triclinic
_cell_length_a                    10.714559
_cell_length_b                    9.832716
_cell_length_c                    15.004346
_cell_angle_alpha                 90.009368
_cell_angle_beta                  90.118446
_cell_angle_gamma                 90.011259
_cell_volume                      1580.75267123

loop_
_atom_site_label
_atom_site_type_symbol
_atom_type_description
_atom_site_fract_x
_atom_site_fract_y
_atom_site_fract_z
_atom_type_partial_charge
C1    C     C_R   0.259850 0.499989 0.499931 0.862453
C2    C     C_R   0.936048 0.621176 0.482519 -0.199853
C3    C     C_R   0.936109 0.378855 0.517584 -0.198031
C4    C     C_R   0.063888 0.621147 0.482421 -0.197732
C5    C     C_R   0.558049 0.607800 0.094550 0.549023
C6    C     C_R   0.557842 0.391706 0.905586 0.550765
C7    C     C_R   0.443859 0.608074 0.905656 0.548495
C8    C     C_R   0.443633 0.391654 0.094230 0.550423
C9    C     C_R   0.554008 0.608844 0.186709 -0.308804
C10   C     C_R   0.553971 0.390871 0.813403 -0.308218
C11   C     C_R   0.447270 0.609067 0.813482 -0.308318
C12   C     C_R   0.740149 0.500011 0.500069 0.862495
C13   C     C_R   0.446880 0.390849 0.186426 -0.307622
C14   C     C_R   0.500225 0.499926 0.232242 -0.195544
C15   C     C_R   0.500458 0.499987 0.767765 -0.195666
C16   C     C_R   0.501004 0.499687 0.048181 -0.102863
C17   C     C_R   0.500949 0.499839 0.951830 -0.102820
C18   C     C_R   0.872574 0.500025 0.500083 -0.010051
C19   C     C_R   0.127424 0.499975 0.499915 -0.011220
C20   C     C_3   0.736916 0.691196 0.034526 -0.323263
C21   C     C_3   0.736622 0.307474 0.965705 -0.324746
C22   C     C_3   0.265358 0.691955 0.965921 -0.322954
C23   C     C_R   0.499964 0.499986 0.327875 0.938456
C24   C     C_3   0.264877 0.307679 0.033851 -0.324927
C25   C     C_R   0.500128 0.500004 0.672127 0.938485
C26   C     C_R   0.578297 0.072017 0.554973 -0.065945
C27   C     C_R   0.421692 0.927990 0.445038 -0.068482
C28   C     C_R   0.421706 0.071951 0.445026 -0.066316
C29   C     C_R   0.578305 0.928056 0.554964 -0.068708
C30   C     C_R   0.063948 0.378821 0.517471 -0.199051
H1    H     H_    0.640856 0.126671 0.598904 0.122663
H2    H     H_    0.887322 0.715309 0.468336 0.157723
H3    H     H_    0.887431 0.284746 0.531855 0.153707
H4    H     H_    0.112564 0.715260 0.468162 0.154246
H5    H     H_    0.747647 0.615735 0.980024 0.146121
H6    H     H_    0.786986 0.656847 0.095691 0.139196
H7    H     H_    0.781974 0.786775 0.012083 0.202644
H8    H     H_    0.748046 0.383221 0.020001 0.147561
H9    H     H_    0.786552 0.341131 0.904460 0.137329
H10   H     H_    0.781279 0.211767 0.988423 0.203520
H11   H     H_    0.254429 0.616204 0.020219 0.145684
H12   H     H_    0.359106 0.873345 0.401128 0.128470
H13   H     H_    0.215057 0.658176 0.904705 0.139745
H14   H     H_    0.220703 0.787581 0.988672 0.202690
H15   H     H_    0.253591 0.383772 0.979765 0.147207
H16   H     H_    0.214841 0.340960 0.095140 0.137955
H17   H     H_    0.220224 0.212120 0.010810 0.203405
H18   H     H_    0.359158 0.126551 0.401088 0.125999
H19   H     H_    0.640879 0.873464 0.598881 0.131875
H20   H     H_    0.595359 0.693425 0.222498 0.190225
H21   H     H_    0.595193 0.306268 0.777690 0.183563
H22   H     H_    0.405861 0.693720 0.777836 0.190955
H23   H     H_    0.405268 0.306340 0.222002 0.184042
H24   H     H_    0.112674 0.284685 0.531643 0.158604
N1    N     N_R   0.500000 0.857200 0.500000 -0.084022
N2    N     N_R   0.500000 0.142800 0.500000 -0.081998
O1    O     O_R   0.316770 0.614620 0.499990 -0.629475
O2    O     O_3   0.609179 0.281561 0.949751 -0.538116
O3    O     O_3   0.392649 0.718113 0.949887 -0.538131
O4    O     O_3   0.392275 0.281655 0.049871 -0.538092
O5    O     O_R   0.683230 0.385380 0.500010 -0.629024
O6    O     O_R   0.683230 0.614620 0.500010 -0.630638
O7    O     O_R   0.316770 0.385380 0.499990 -0.630344
O8    O     O_R   0.499990 0.614660 0.369060 -0.622347
O9    O     O_R   0.500010 0.385340 0.630940 -0.620694
O10   O     O_R   0.500010 0.614660 0.630940 -0.620235
O11   O     O_R   0.499990 0.385340 0.369060 -0.618487
O12   O     O_3   0.609698 0.717777 0.050515 -0.538203
Zn1   Zn    Zn3+2 0.500000 0.653120 0.500000 0.946463
Zn2   Zn    Zn3+2 0.500000 0.346880 0.500000 0.948755

loop_
_geom_bond_atom_site_label_1
_geom_bond_atom_site_label_2
_ccdc_geom_bond_type
C14   C23   S    
C6    C10   A    
C3    C30   A    
C2    C4    A    
C9    C14   A    
C5    C9    A    
C8    C13   A    
C20   H7    S    
C1    O1    A    
C2    C18   A    
C4    C19   A    
C6    O2    S    
C13   H23   S    
C22   H13   S    
C21   H9    S    
O7    Zn2   S    
C24   O4    S    
O11   Zn2   S    
C24   H16   S    
C28   N2    A    
O8    Zn1   S    
C25   O9    A    
C21   O2    S    
C8    C16   A    
O5    Zn2   S    
C29   H19   S    
C13   C14   A    
C8    O4    S    
C7    C11   A    
C12   O5    A    
C30   H24   S    
C27   H12   S    
N1    Zn1   S    
C21   H10   S    
C26   C29   A    
C5    O12   S    
C24   H15   S    
C1    O7    A    
C7    O3    S    
C23   O8    A    
C20   H5    S    
N2    Zn2   S    
C10   C15   A    
C4    H4    S    
C22   O3    S    
C19   C30   A    
C27   N1    A    
C15   C25   S    
C22   H11   S    
C1    C19   S    
C10   H21   S    
C12   C18   S    
O9    Zn2   S    
O10   Zn1   S    
C26   H1    S    
C12   O6    A    
C3    C18   A    
C2    H2    S    
C23   O11   A    
C27   C28   A    
C6    C17   A    
C3    H3    S    
C28   H18   S    
C5    C16   A    
C11   H22   S    
C29   N1    A    
O1    Zn1   S    
C25   O10   A    
C24   H17   S    
C11   C15   A    
C20   O12   S    
C22   H14   S    
C21   H8    S    
O6    Zn1   S    
C26   N2    A    
C16   C17   S    
C9    H20   S    
C7    C17   A    
C20   H6    S    
