data_mof_unit_44747.cif
_audit_creation_date              2012-12-10T16:53:01-0500
_audit_creation_method            fapswitch 2.2
_symmetry_space_group_name_H-M    P1
_symmetry_Int_Tables_number       1
_space_group_crystal_system       triclinic
_cell_length_a                    7.958144
_cell_length_b                    8.582606
_cell_length_c                    11.521207
_cell_angle_alpha                 93.571959
_cell_angle_beta                  84.877148
_cell_angle_gamma                 92.606489
_cell_volume                      781.62032282

loop_
_atom_site_label
_atom_site_type_symbol
_atom_type_description
_atom_site_fract_x
_atom_site_fract_y
_atom_site_fract_z
_atom_type_partial_charge
C1    C     C_R   0.544169 0.793752 0.498277 0.944311
C2    C     C_2   0.432855 0.042879 0.498855 -0.373103
C3    C     C_3   0.927790 0.232590 0.339237 -0.687183
C4    C     C_3   0.072211 0.767412 0.660760 -0.687173
C5    C     C_R   0.455830 0.206248 0.501723 0.944311
C6    C     C_R   0.500257 0.500686 0.717453 0.877933
C7    C     C_R   0.499743 0.499314 0.282546 0.877933
C8    C     C_1   0.500488 0.500538 0.838147 -0.167560
C9    C     C_1   0.499512 0.499462 0.161853 -0.167559
C10   C     C_1   0.500247 0.500230 0.940537 0.004092
C11   C     C_1   0.499752 0.499771 0.059463 0.004092
C12   C     C_2   0.567145 0.957121 0.501145 -0.373103
H1    H     H_    0.694319 0.006395 0.507122 0.174542
H2    H     H_    0.193499 0.738310 0.691406 0.276177
H3    H     H_    0.305681 0.993604 0.492876 0.174541
H4    H     H_    0.144488 0.342025 0.381986 0.278304
H5    H     H_    0.999299 0.169550 0.264824 0.197126
H6    H     H_    0.806503 0.261692 0.308592 0.276177
H7    H     H_    0.908032 0.153372 0.412068 0.220640
H8    H     H_    0.855512 0.657975 0.618015 0.278304
H9    H     H_    0.000700 0.830456 0.735172 0.197125
H10   H     H_    0.091970 0.846627 0.587926 0.220641
N1    N     N_2   0.950330 0.457960 0.469510 0.023975
N2    N     N_2   0.049670 0.542040 0.530490 0.023973
N3    N     N_2   0.024082 0.370937 0.375029 -0.219974
N4    N     N_2   0.975918 0.629065 0.624970 -0.219976
O1    O     O_R   0.389250 0.738570 0.507480 -0.615878
O2    O     O_R   0.610750 0.261430 0.492520 -0.615876
O3    O     O_R   0.678390 0.711630 0.487940 -0.650204
O4    O     O_R   0.321610 0.288370 0.512060 -0.650204
O5    O     O_R   0.355420 0.513450 0.675320 -0.607759
O6    O     O_R   0.644580 0.486550 0.324680 -0.607758
O7    O     O_R   0.644570 0.486510 0.655780 -0.633144
O8    O     O_R   0.355430 0.513490 0.344220 -0.633143
Zn1   Zn    Zn3+2 0.306940 0.517990 0.513050 0.957699
Zn2   Zn    Zn3+2 0.693060 0.482010 0.486950 0.957699

loop_
_geom_bond_atom_site_label_1
_geom_bond_atom_site_label_2
_ccdc_geom_bond_type
C4    N4    S    
N1    N2    D    
C3    H7    S    
C4    H9    S    
N1    Zn2   S    
C5    O2    A    
C4    H10   S    
C6    O7    A    
C2    C12   D    
C1    O3    A    
C6    O5    A    
C1    O1    A    
C2    H3    S    
C9    C11   T    
O3    Zn2   S    
C1    C12   S    
H8    N4    S    
O4    Zn1   S    
O6    Zn2   S    
N2    N4    S    
C3    H5    S    
N1    N3    S    
C4    H2    S    
C7    O8    A    
O5    Zn1   S    
C2    C5    S    
C10   C11   S    
N2    Zn1   S    
C3    N3    S    
O7    Zn2   S    
C12   H1    S    
O2    Zn2   S    
C3    H6    S    
C8    C10   T    
O8    Zn1   S    
C5    O4    A    
H4    N3    S    
C7    C9    S    
C6    C8    S    
C7    O6    A    
O1    Zn1   S    
