data_mof_unit_10392.cif
_audit_creation_date              2012-12-10T20:27:56-0500
_audit_creation_method            fapswitch 2.2
_symmetry_space_group_name_H-M    P1
_symmetry_Int_Tables_number       1
_space_group_crystal_system       triclinic
_cell_length_a                    12.849918
_cell_length_b                    10.675278
_cell_length_c                    9.906696
_cell_angle_alpha                 88.958676
_cell_angle_beta                  96.562986
_cell_angle_gamma                 91.09466
_cell_volume                      1349.63848979

loop_
_atom_site_label
_atom_site_type_symbol
_atom_type_description
_atom_site_fract_x
_atom_site_fract_y
_atom_site_fract_z
_atom_type_partial_charge
C1    C     C_R   0.503527 0.260420 0.501452 0.953456
C2    C     C_R   0.573568 0.936926 0.419787 -0.204539
C3    C     C_R   0.508574 0.871376 0.501300 -0.024967
C4    C     C_R   0.298467 0.501073 0.473604 0.953458
C5    C     C_R   0.459219 0.933032 0.597297 -0.106988
C6    C     C_3   0.347617 0.923289 0.625080 0.454624
C7    C     C_3   0.349615 0.065124 0.628028 0.491967
C8    C     C_R   0.419162 0.446110 0.060615 0.135938
C9    C     C_R   0.573078 0.567315 0.079129 0.205498
C10   C     C_R   0.573570 0.565152 0.936190 -0.150219
C11   C     C_R   0.417644 0.448334 0.918454 0.186917
C12   C     C_R   0.028347 0.531086 0.556999 0.176262
C13   C     C_3   0.377108 0.316353 0.909999 -0.059749
C14   C     C_3   0.383112 0.313286 0.064358 -0.482158
C15   C     C_R   0.501399 0.739560 0.499308 0.932066
C16   C     C_R   0.701612 0.500238 0.526211 0.892294
C17   C     C_R   0.813637 0.504801 0.541416 -0.047404
C18   C     C_R   0.186527 0.501506 0.456868 -0.032534
C19   C     C_R   0.022572 0.445372 0.328863 -0.162360
C20   C     C_R   0.130545 0.455071 0.338118 -0.144957
C21   C     C_R   0.135571 0.543242 0.563853 -0.183402
C22   C     C_R   0.971557 0.481323 0.438732 0.166440
C23   C     C_R   0.864539 0.468091 0.432208 -0.207477
C24   C     C_R   0.869508 0.552001 0.659854 -0.182825
C25   C     C_R   0.977298 0.565600 0.667455 -0.159371
C26   C     C_R   0.461458 0.060762 0.599770 -0.155631
C27   C     C_R   0.513731 0.128658 0.506186 -0.055667
C28   C     C_R   0.577401 0.066866 0.422183 0.138942
F1    F     F_    0.285267 0.119601 0.522086 -0.587620
F2    F     F_    0.282571 0.875566 0.516092 -0.601617
H1    H     H_    0.820796 0.430171 0.341420 0.187784
H2    H     H_    0.020460 0.603112 0.758699 0.157933
H3    H     H_    0.170256 0.423134 0.254634 0.168542
H4    H     H_    0.179618 0.581759 0.654147 0.170870
H5    H     H_    0.619506 0.887955 0.353498 0.197925
H6    H     H_    0.337618 0.876994 0.724283 0.026858
H7    H     H_    0.340482 0.101814 0.729507 0.039154
H8    H     H_    0.633617 0.616106 0.888657 0.170024
H9    H     H_    0.432531 0.251954 0.869579 0.154895
H10   H     H_    0.306118 0.303054 0.104608 0.229666
H11   H     H_    0.444749 0.250249 0.113329 0.224500
H12   H     H_    0.829792 0.581112 0.744518 0.167639
H13   H     H_    0.979382 0.407754 0.237683 0.162449
I1    I     I_    0.689619 0.684602 0.181328 -0.345392
I2    I     I_    0.217713 0.309121 0.817843 -0.327003
I3    I     I_    0.679635 0.159589 0.296773 -0.344728
N1    N     N_R   0.499290 0.499140 0.142710 -0.120626
N2    N     N_R   0.499290 0.499180 0.857070 -0.137334
O1    O     O_R   0.500010 0.316790 0.614690 -0.625599
O2    O     O_R   0.500000 0.316760 0.385350 -0.601035
O3    O     O_R   0.346360 0.499990 0.595720 -0.603769
O4    O     O_R   0.346350 0.499960 0.366370 -0.622398
O5    O     O_R   0.500000 0.683240 0.614650 -0.632426
O6    O     O_R   0.499990 0.683210 0.385310 -0.596199
O7    O     O_R   0.653650 0.500040 0.633630 -0.634616
O8    O     O_R   0.653640 0.500010 0.404280 -0.595208
Zn1   Zn    Zn3+2 0.500010 0.500020 0.653130 0.978368
Zn2   Zn    Zn3+2 0.499990 0.499980 0.346870 1.011349

loop_
_geom_bond_atom_site_label_1
_geom_bond_atom_site_label_2
_ccdc_geom_bond_type
C2    H5    S    
C2    C28   A    
C16   O8    A    
C6    C7    S    
O3    Zn1   S    
C1    O2    A    
C6    H6    S    
C18   C21   A    
C24   H12   S    
C9    C10   A    
C19   C20   A    
C12   C25   A    
C10   H8    S    
C4    C18   S    
C25   H2    S    
O7    Zn1   S    
C2    C3    A    
C7    H7    S    
C8    N1    A    
O1    Zn1   S    
N2    Zn1   S    
C13   C14   S    
N1    Zn2   S    
C13   I2    S    
C11   C13   S    
C28   I3    S    
C26   C27   A    
C17   C23   A    
C7    C26   S    
O4    Zn2   S    
C4    O4    A    
C8    C11   A    
C7    F1    S    
C20   H3    S    
C15   O5    A    
C6    F2    S    
C19   H13   S    
C9    N1    A    
C18   C20   A    
C11   N2    A    
C14   H11   S    
C10   N2    A    
C5    C6    S    
C16   O7    A    
C17   C24   A    
C13   H9    S    
C4    O3    A    
C14   H10   S    
C5    C26   A    
O2    Zn2   S    
C15   O6    A    
C12   C22   A    
C19   C22   A    
C3    C15   S    
C24   C25   A    
O6    Zn2   S    
C27   C28   A    
C1    C27   S    
O5    Zn1   S    
C22   C23   A    
C9    I1    S    
C8    C14   S    
C21   H4    S    
C1    O1    A    
C12   C21   A    
O8    Zn2   S    
C16   C17   S    
C3    C5    A    
C23   H1    S    
