data_mof_unit_49701.cif
_audit_creation_date              2013-03-05T15:51:15-0500
_audit_creation_method            fapswitch 2.2
_symmetry_space_group_name_H-M    P1
_symmetry_Int_Tables_number       1
_space_group_crystal_system       triclinic
_cell_length_a                    9.603164
_cell_length_b                    10.856039
_cell_length_c                    13.895694
_cell_angle_alpha                 92.882327
_cell_angle_beta                  84.990901
_cell_angle_gamma                 88.889867
_cell_volume                      1440.88882525

loop_
_atom_site_label
_atom_site_type_symbol
_atom_site_description
_atom_site_fract_x
_atom_site_fract_y
_atom_site_fract_z
_atom_type_partial_charge
O1    O     O_R   0.381190 0.680360 0.500010 -0.590110
O2    O     O_R   0.618760 0.680340 0.500000 -0.540961
C1    C     C_R   0.497685 0.737719 0.506557 0.819510
O3    O     O_R   0.364420 0.499990 0.637850 -0.602171
O4    O     O_R   0.601990 0.499960 0.637840 -0.512894
C2    C     C_R   0.477495 0.500601 0.682759 0.802637
Cu1   Cu    Cu3+1 0.359340 0.500010 0.500010 0.932209
Cu2   Cu    Cu3+1 0.640660 0.499990 0.499990 1.001153
O5    O     O_R   0.381240 0.319660 0.500000 -0.610636
O6    O     O_R   0.618810 0.319640 0.499990 -0.597372
O7    O     O_R   0.398010 0.500040 0.362160 -0.586808
O8    O     O_R   0.635580 0.500010 0.362150 -0.589742
C3    C     C_R   0.500784 0.263193 0.508819 0.776701
C4    C     C_R   0.522616 0.499060 0.317234 0.808821
C5    C     C_1   0.536874 0.493757 0.214122 -0.152372
C6    C     C_2   0.567987 0.479556 0.023274 0.352569
C7    C     C_2   0.453396 0.497495 0.975812 -0.293868
C8    C     C_1   0.457935 0.499101 0.872360 0.127181
C9    C     C_1   0.550802 0.487709 0.127288 -0.049748
C10   C     C_1   0.464996 0.500100 0.785701 -0.083101
H1    H     H_    0.352330 0.515663 0.016217 0.151614
H2    H     H_    0.703904 0.876040 0.452943 0.187991
C11   C     C_R   0.270339 0.885105 0.622384 -0.150505
H3    H     H_    0.269137 0.787496 0.632015 0.150600
C12   C     C_R   0.159757 0.954900 0.670075 -0.122817
H4    H     H_    0.074562 0.909688 0.709331 0.179707
C13   C     C_R   0.161754 0.082609 0.671087 -0.139068
H5    H     H_    0.078106 0.136777 0.711194 0.164300
C14   C     C_R   0.274797 0.141081 0.624980 -0.147736
H6    H     H_    0.276548 0.239877 0.637159 0.171739
C15   C     C_R   0.385479 0.072396 0.571415 0.063551
C16   C     C_R   0.382274 0.941712 0.569560 0.095858
C17   C     C_R   0.494833 0.872402 0.518983 -0.159307
C18   C     C_R   0.615921 0.931343 0.485674 -0.168673
C19   C     C_R   0.627486 0.058486 0.497091 0.244898
C20   C     C_R   0.504212 0.130195 0.526248 -0.192450
C21   C     C_R   0.875791 0.341606 0.366759 -0.070589
H7    H     H_    0.766709 0.329533 0.364466 0.202688
C22   C     C_R   0.957770 0.267502 0.298893 -0.165357
H8    H     H_    0.909132 0.207377 0.247728 0.165304
C23   C     C_R   0.101271 0.266495 0.299230 -0.221570
H9    H     H_    0.164878 0.206018 0.247979 0.161078
C24   C     C_R   0.163662 0.340567 0.366750 -0.114675
H10   H     H_    0.274007 0.328939 0.362990 0.197179
C25   C     C_R   0.084551 0.422110 0.434296 0.194707
C26   C     C_R   0.935015 0.422304 0.434317 0.113397
N1    N     N_R   0.852210 0.498790 0.499090 -0.263540
C27   C     C_R   0.917411 0.573409 0.563508 0.426709
H11   H     H_    0.112820 0.631000 0.615593 0.151044
C28   C     C_R   0.065059 0.572565 0.563233 -0.113410
N2    N     N_R   0.148080 0.498710 0.499060 -0.222177
N3    N     N_R   0.706129 0.454332 0.975364 0.154670
O9    O     O_R   0.814879 0.463060 0.024868 -0.340649
O10   O     O_R   0.724116 0.410982 0.885994 -0.326064
N4    N     N_2   0.762127 0.114262 0.486213 -0.413990
H12   H     H_    0.780812 0.171443 0.545017 0.282643
C29   C     C_3   0.885608 0.040705 0.451270 -0.679068
H13   H     H_    0.978337 0.100269 0.446988 0.240447
H14   H     H_    0.873956 0.999452 0.377723 0.229945
H15   H     H_    0.905201 0.967931 0.502198 0.259698
N5    N     N_R   0.837462 0.652839 0.633337 0.133981
O11   O     O_R   0.823253 0.768896 0.616386 -0.403312
O12   O     O_R   0.819780 0.620143 0.722264 -0.319788

loop_
_geom_bond_atom_site_label_1
_geom_bond_atom_site_label_2
_geom_bond_distance
_ccdc_geom_bond_type
C7    C8    1.435379 S    
O4    Cu2   1.919109 S    
Cu1   O7    1.919109 S    
C11   H3    1.074876 S    
C21   H7    1.061251 S    
C18   C19   1.389113 A    
O2    C1    1.302280 A    
C12   C13   1.386302 A    
C2    C10   1.425290 S    
C23   H9    1.082971 S    
C23   C24   1.388111 A    
C15   C20   1.424803 A    
C19   C20   1.421412 A    
Cu2   O8    1.920268 S    
C16   C17   1.418137 A    
N4    H12   1.031565 S    
C27   C28   1.417410 A    
C28   N2    1.361185 A    
C29   H13   1.109756 S    
Cu2   N1    2.030280 S    
Cu1   N2    2.030278 S    
Cu1   Cu2   2.701534 S    
C21   C22   1.387729 A    
O1    Cu1   1.973136 S    
C25   C26   1.435953 A    
C11   C16   1.416015 A    
C5    C9    1.200681 T    
C24   C25   1.416912 A    
C27   N5    1.426409 S    
C14   H6    1.078045 S    
O3    Cu1   1.920268 S    
O4    C2    1.299189 A    
O3    C2    1.298772 A    
C12   H4    1.082762 S    
N3    O10   1.301584 A    
C17   C18   1.393004 A    
C8    C10   1.200785 T    
N4    C29   1.450293 S    
C24   H10   1.061145 S    
C6    C9    1.438413 S    
N5    O11   1.300114 A    
H2    C18   1.080266 S    
O7    C4    1.300039 A    
C7    H1    1.087388 S    
C29   H14   1.110593 S    
C13   C14   1.392127 A    
C25   N2    1.383427 A    
C19   N4    1.437603 S    
N1    C27   1.376269 A    
Cu1   O5    1.965085 S    
C22   H8    1.082964 S    
C11   C12   1.391555 A    
N3    O9    1.302137 A    
C22   C23   1.378313 A    
C3    C20   1.476181 S    
Cu2   O6    1.973136 S    
H11   C28   1.079479 S    
C26   N1    1.380642 A    
C13   H5    1.082695 S    
N5    O12   1.300615 A    
C1    C17   1.463078 S    
C4    C5    1.425532 S    
C29   H15   1.110897 S    
O5    C3    1.309032 A    
C21   C26   1.414937 A    
C14   C15   1.419542 A    
C15   C16   1.418626 A    
O2    Cu2   1.965086 S    
C6    N3    1.446170 S    
O8    C4    1.297885 A    
C6    C7    1.347290 D    
O1    C1    1.298700 A    
O6    C3    1.298228 A    
