data_mof_unit_7139.cif
_audit_creation_date              2012-12-11T16:26:14-0500
_audit_creation_method            fapswitch 2.2
_symmetry_space_group_name_H-M    P1
_symmetry_Int_Tables_number       1
_space_group_crystal_system       triclinic
_cell_length_a                    14.021523
_cell_length_b                    14.021522
_cell_length_c                    31.925347
_cell_angle_alpha                 90.0
_cell_angle_beta                  90.000016
_cell_angle_gamma                 120.000122
_cell_volume                      5435.7073955

loop_
_atom_site_label
_atom_site_type_symbol
_atom_type_description
_atom_site_fract_x
_atom_site_fract_y
_atom_site_fract_z
_atom_type_partial_charge
C1    C     C_R   0.568016 0.443822 0.810604 0.545700
C2    C     C_R   0.875806 0.431983 0.689396 0.545699
C3    C     C_R   0.556178 0.124194 0.810603 0.545700
C4    C     C_R   0.568016 0.443822 0.689396 0.545701
C5    C     C_R   0.875806 0.431984 0.810604 0.545699
C6    C     C_R   0.556178 0.124194 0.689396 0.545701
C7    C     C_R   0.443822 0.568016 0.310604 0.545701
C8    C     C_R   0.431984 0.875806 0.189396 0.545700
C9    C     C_R   0.124194 0.556178 0.310603 0.545700
C10   C     C_R   0.443822 0.568016 0.189396 0.545701
C11   C     C_R   0.431984 0.875806 0.310604 0.545699
C12   C     C_R   0.124194 0.556178 0.189396 0.545700
C13   C     C_1   0.003772 0.522216 0.018730 0.091545
C14   C     C_1   0.518423 0.996192 0.481274 0.091544
C15   C     C_1   0.477764 0.481553 0.018728 0.091537
C16   C     C_1   0.003772 0.522216 0.481270 0.091545
C17   C     C_1   0.518423 0.996191 0.018726 0.091544
C18   C     C_1   0.477764 0.481553 0.481272 0.091537
C19   C     C_1   0.522214 0.003773 0.518730 0.091544
C20   C     C_1   0.996191 0.518424 0.981274 0.091546
C21   C     C_1   0.481554 0.477763 0.518728 0.091537
C22   C     C_1   0.522214 0.003772 0.981270 0.091544
C23   C     C_1   0.996191 0.518424 0.518726 0.091545
C24   C     C_1   0.481554 0.477763 0.981272 0.091537
C25   C     C_R   0.929429 0.469534 0.851724 -0.025287
C26   C     C_R   0.540103 0.070564 0.648277 -0.025288
C27   C     C_R   0.530464 0.459898 0.851723 -0.025287
C28   C     C_R   0.929429 0.469533 0.648276 -0.025287
C29   C     C_R   0.540104 0.070564 0.851723 -0.025288
C30   C     C_R   0.530464 0.459898 0.648277 -0.025287
C31   C     C_R   0.469534 0.929429 0.351724 -0.025286
C32   C     C_R   0.070564 0.540103 0.148277 -0.025288
C33   C     C_R   0.459898 0.530463 0.351723 -0.025287
C34   C     C_R   0.469533 0.929429 0.148276 -0.025287
C35   C     C_R   0.070564 0.540103 0.351723 -0.025288
C36   C     C_R   0.459898 0.530463 0.148277 -0.025287
C37   C     C_R   0.924699 0.555144 0.872819 -0.128416
C38   C     C_R   0.630448 0.075310 0.627181 -0.128422
C39   C     C_R   0.444835 0.369565 0.872814 -0.128419
C40   C     C_R   0.924699 0.555144 0.627181 -0.128416
C41   C     C_R   0.630448 0.075310 0.872819 -0.128422
C42   C     C_R   0.444835 0.369564 0.627186 -0.128419
C43   C     C_R   0.555141 0.924695 0.372819 -0.128416
C44   C     C_R   0.075303 0.630445 0.127181 -0.128422
C45   C     C_R   0.369564 0.444836 0.372814 -0.128419
C46   C     C_R   0.555143 0.924698 0.127181 -0.128416
C47   C     C_R   0.075304 0.630446 0.372819 -0.128422
C48   C     C_R   0.369564 0.444836 0.127186 -0.128419
C49   C     C_R   0.951912 0.574353 0.915138 -0.129890
C50   C     C_R   0.622439 0.048086 0.584862 -0.129907
C51   C     C_R   0.425618 0.377567 0.915133 -0.129901
C52   C     C_R   0.951912 0.574353 0.584862 -0.129891
C53   C     C_R   0.622440 0.048086 0.915138 -0.129907
C54   C     C_R   0.425619 0.377566 0.584867 -0.129900
C55   C     C_R   0.574351 0.951908 0.415138 -0.129893
C56   C     C_R   0.048079 0.622437 0.084863 -0.129906
C57   C     C_R   0.377566 0.425618 0.415133 -0.129899
C58   C     C_R   0.574352 0.951910 0.084862 -0.129893
C59   C     C_R   0.048080 0.622437 0.415137 -0.129906
C60   C     C_R   0.377566 0.425619 0.084867 -0.129900
C61   C     C_R   0.984952 0.509027 0.936697 0.044665
C62   C     C_R   0.524063 0.015018 0.563307 0.044663
C63   C     C_R   0.490956 0.475926 0.936695 0.044659
C64   C     C_R   0.984952 0.509027 0.563303 0.044664
C65   C     C_R   0.524063 0.015017 0.936693 0.044663
C66   C     C_R   0.490956 0.475925 0.563305 0.044659
C67   C     C_R   0.509027 0.984953 0.436697 0.044664
C68   C     C_R   0.015017 0.524063 0.063307 0.044663
C69   C     C_R   0.475926 0.490955 0.436695 0.044660
C70   C     C_R   0.509026 0.984952 0.063303 0.044664
C71   C     C_R   0.015017 0.524063 0.436693 0.044663
C72   C     C_R   0.475926 0.490955 0.063305 0.044659
C73   C     C_R   0.997703 0.428648 0.915254 0.252636
C74   C     C_R   0.430930 0.002251 0.584753 0.252648
C75   C     C_R   0.571355 0.569051 0.915255 0.252634
C76   C     C_R   0.997703 0.428647 0.584746 0.252637
C77   C     C_R   0.430929 0.002249 0.915247 0.252648
C78   C     C_R   0.571355 0.569051 0.584745 0.252634
C79   C     C_R   0.428650 0.997707 0.415253 0.252638
C80   C     C_R   0.002257 0.430932 0.084752 0.252646
C81   C     C_R   0.569052 0.571353 0.415255 0.252634
C82   C     C_R   0.428648 0.997704 0.084746 0.252637
C83   C     C_R   0.002256 0.430932 0.415248 0.252647
C84   C     C_R   0.569052 0.571353 0.084745 0.252634
C85   C     C_R   0.970099 0.409343 0.872886 -0.093131
C86   C     C_R   0.439235 0.029868 0.627120 -0.093123
C87   C     C_R   0.590667 0.560753 0.872888 -0.093132
C88   C     C_R   0.970098 0.409342 0.627114 -0.093131
C89   C     C_R   0.439235 0.029867 0.872880 -0.093123
C90   C     C_R   0.590667 0.560753 0.627112 -0.093132
C91   C     C_R   0.409345 0.970102 0.372885 -0.093130
C92   C     C_R   0.029874 0.439237 0.127119 -0.093123
C93   C     C_R   0.560754 0.590665 0.372888 -0.093132
C94   C     C_R   0.409343 0.970099 0.127114 -0.093130
C95   C     C_R   0.029873 0.439236 0.372881 -0.093123
C96   C     C_R   0.560754 0.590665 0.127113 -0.093132
Cr1   Cr    Cr6+3 0.504240 0.249200 0.750000 1.036615
Cr2   Cr    Cr6+3 0.744960 0.495760 0.750000 1.036615
Cr3   Cr    Cr6+3 0.750800 0.255040 0.750000 1.036615
Cr4   Cr    Cr6+3 0.249200 0.504240 0.250000 1.036615
Cr5   Cr    Cr6+3 0.495760 0.744960 0.250000 1.036615
Cr6   Cr    Cr6+3 0.255040 0.750800 0.250000 1.036615
H1    H     H_    0.893553 0.602875 0.857406 0.158025
H2    H     H_    0.709332 0.106476 0.642590 0.158030
H3    H     H_    0.397093 0.290692 0.857399 0.158024
H4    H     H_    0.893553 0.602876 0.642594 0.158025
H5    H     H_    0.709332 0.106478 0.857410 0.158030
H6    H     H_    0.397093 0.290692 0.642601 0.158024
H7    H     H_    0.602871 0.893546 0.357407 0.158026
H8    H     H_    0.106465 0.709327 0.142592 0.158029
H9    H     H_    0.290691 0.397094 0.357399 0.158024
H10   H     H_    0.602874 0.893551 0.142594 0.158026
H11   H     H_    0.106467 0.709328 0.357408 0.158030
H12   H     H_    0.290690 0.397095 0.142601 0.158024
H13   H     H_    0.057774 0.694501 0.068510 0.169868
H14   H     H_    0.636725 0.942218 0.431490 0.169873
H15   H     H_    0.305505 0.363229 0.068518 0.169860
H16   H     H_    0.057777 0.694502 0.431490 0.169867
H17   H     H_    0.636727 0.942222 0.068510 0.169872
H18   H     H_    0.305506 0.363228 0.431482 0.169860
H19   H     H_    0.694505 0.057786 0.568509 0.169867
H20   H     H_    0.942224 0.636729 0.931490 0.169874
H21   H     H_    0.363227 0.305506 0.568518 0.169859
H22   H     H_    0.694506 0.057787 0.931492 0.169867
H23   H     H_    0.942225 0.636730 0.568510 0.169874
H24   H     H_    0.363227 0.305507 0.931482 0.169858
H25   H     H_    0.024985 0.368406 0.142793 0.165202
H26   H     H_    0.343399 0.974986 0.357212 0.165200
H27   H     H_    0.631579 0.656627 0.142783 0.165202
H28   H     H_    0.024983 0.368405 0.357206 0.165202
H29   H     H_    0.343395 0.974981 0.142788 0.165200
H30   H     H_    0.631579 0.656627 0.357217 0.165202
H31   H     H_    0.368403 0.024975 0.642795 0.165201
H32   H     H_    0.974980 0.343395 0.857213 0.165200
H33   H     H_    0.656629 0.631578 0.642782 0.165203
H34   H     H_    0.368402 0.024973 0.857205 0.165201
H35   H     H_    0.974979 0.343394 0.642787 0.165200
H36   H     H_    0.656630 0.631577 0.857218 0.165203
O1    O     O_R   0.480350 0.140770 0.796330 -0.513471
O2    O     O_R   0.660420 0.519650 0.703670 -0.513476
O3    O     O_R   0.859230 0.339580 0.796330 -0.513476
O4    O     O_R   0.480350 0.140770 0.703670 -0.513471
O5    O     O_R   0.660420 0.519650 0.796330 -0.513476
O6    O     O_R   0.859230 0.339580 0.703670 -0.513476
O7    O     O_R   0.140770 0.480350 0.296330 -0.513472
O8    O     O_R   0.519650 0.660420 0.203670 -0.513476
O9    O     O_R   0.339580 0.859230 0.296330 -0.513475
O10   O     O_R   0.140770 0.480350 0.203670 -0.513472
O11   O     O_R   0.519650 0.660420 0.296330 -0.513476
O12   O     O_R   0.339580 0.859230 0.203670 -0.513476
O13   O     O_R   0.514930 0.348530 0.793250 -0.496273
O14   O     O_R   0.833600 0.485070 0.706750 -0.496274
O15   O     O_R   0.651470 0.166400 0.793250 -0.496275
O16   O     O_R   0.514930 0.348530 0.706750 -0.496273
O17   O     O_R   0.833600 0.485070 0.793250 -0.496274
O18   O     O_R   0.651470 0.166400 0.706750 -0.496275
O19   O     O_R   0.348530 0.514930 0.293250 -0.496273
O20   O     O_R   0.485070 0.833600 0.206750 -0.496274
O21   O     O_R   0.166400 0.651470 0.293250 -0.496275
O22   O     O_R   0.348530 0.514930 0.206750 -0.496273
O23   O     O_R   0.485070 0.833600 0.293250 -0.496275
O24   O     O_R   0.166400 0.651470 0.206750 -0.496275
O25   O     O_3   0.666667 0.333333 0.750000 -0.241223
O26   O     O_3   0.333333 0.666667 0.250000 -0.241223
Cl1   Cl    Cl    0.958629 0.304816 0.058842 -0.519268
Cl2   Cl    Cl    0.346145 0.041311 0.441166 -0.519279
Cl3   Cl    Cl    0.695152 0.653873 0.058829 -0.519232
Cl4   Cl    Cl    0.958626 0.304815 0.441157 -0.519267
Cl5   Cl    Cl    0.346140 0.041304 0.058833 -0.519278
Cl6   Cl    Cl    0.695152 0.653874 0.441171 -0.519232
Cl7   Cl    Cl    0.304811 0.958615 0.558844 -0.519273
Cl8   Cl    Cl    0.041303 0.346140 0.941167 -0.519275
Cl9   Cl    Cl    0.653877 0.695150 0.558828 -0.519231
Cl10  Cl    Cl    0.304810 0.958612 0.941156 -0.519271
Cl11  Cl    Cl    0.041301 0.346140 0.558833 -0.519275
Cl12  Cl    Cl    0.653878 0.695150 0.941172 -0.519230

loop_
_geom_bond_atom_site_label_1
_geom_bond_atom_site_label_2
_ccdc_geom_bond_type
C68   C80   A    
C4    O16   A    
C54   H21   S    
C40   C52   A    
C77   Cl10  S    
C82   C94   A    
C46   H10   S    
Cr2   O5    S    
C18   C21   T    
C2    O6    A    
C39   C51   A    
C11   O23   A    
C30   C90   A    
C8    O20   A    
C88   H35   S    
C29   C89   A    
Cr2   O25   S    
Cr2   O14   S    
C78   C90   A    
C15   C72   S    
C16   C71   S    
C77   C89   A    
C31   C43   A    
C9    O21   A    
C48   H12   S    
C21   C66   S    
C24   C63   S    
C4    O2    A    
C55   H14   S    
C28   C40   A    
C19   C62   S    
C45   C57   A    
C3    O15   A    
C33   C45   A    
C39   H3    S    
C84   C96   A    
Cr5   O11   S    
C20   C61   S    
C3    C29   S    
C44   C56   A    
C38   H2    S    
C25   C37   A    
C7    O11   A    
Cr4   O19   S    
C27   C39   A    
Cr1   O25   S    
C74   Cl7   S    
C28   C88   A    
C78   Cl9   S    
C62   C74   A    
C14   C67   S    
C1    O13   A    
C34   C46   A    
C6    O4    A    
C93   H30   S    
C53   C65   A    
C76   C88   A    
C79   C91   A    
Cr6   O24   S    
C85   H32   S    
C1    C27   S    
C18   C69   S    
C82   Cl5   S    
C11   C31   S    
C17   C70   S    
C89   H34   S    
C12   C32   S    
C7    C33   S    
C50   H19   S    
C48   C60   A    
C71   C83   A    
C76   Cl11  S    
C2    O14   A    
C66   C78   A    
C94   H29   S    
Cr5   O8    S    
C49   C61   A    
C91   H26   S    
Cr3   O6    S    
C67   C79   A    
C52   C64   A    
C37   H1    S    
C26   C38   A    
C61   C73   A    
C81   Cl6   S    
C47   C59   A    
C4    C30   S    
Cr2   O2    S    
C80   C92   A    
C8    O12   A    
C22   C65   S    
C1    O5    A    
Cr6   O9    S    
C95   H28   S    
C65   C77   A    
C81   C93   A    
Cr4   O22   S    
C86   H31   S    
C5    O3    A    
Cr1   O13   S    
Cr4   O7    S    
C26   C86   A    
C83   C95   A    
Cr3   O18   S    
C96   H27   S    
C25   C85   A    
C64   C76   A    
C51   C63   A    
C60   H15   S    
Cr4   O26   S    
C8    C34   S    
Cr1   O16   S    
C74   C86   A    
C73   Cl8   S    
C27   C87   A    
C41   C53   A    
C37   C49   A    
C72   C84   A    
C10   O8    A    
C57   H18   S    
C5    C25   S    
C75   C87   A    
C23   C64   S    
Cr6   O12   S    
Cr5   O20   S    
C16   C23   T    
C31   C91   A    
C50   C62   A    
Cr3   O25   S    
C3    O1    A    
C87   H36   S    
C92   H25   S    
C10   O22   A    
C80   Cl1   S    
C40   H4    S    
C73   C85   A    
C43   C55   A    
C47   H11   S    
Cr2   O17   S    
C15   C24   T    
C41   H5    S    
C13   C20   T    
C29   C41   A    
C75   Cl12  S    
C51   H24   S    
C14   C19   T    
Cr3   O3    S    
Cr5   O26   S    
C58   C70   A    
C34   C94   A    
C53   H22   S    
C33   C93   A    
Cr6   O21   S    
C55   C67   A    
C52   H23   S    
C45   H9    S    
C54   C66   A    
C35   C95   A    
C59   H16   S    
C83   Cl4   S    
C17   C22   T    
C38   C50   A    
C56   C68   A    
C12   O10   A    
Cr5   O23   S    
C84   Cl3   S    
C5    O17   A    
C42   C54   A    
C90   H33   S    
C11   O9    A    
C6    C26   S    
C63   C75   A    
Cr4   O10   S    
C49   H20   S    
Cr3   O15   S    
C9    O7    A    
C58   H17   S    
C56   H13   S    
C10   C36   S    
C36   C48   A    
C79   Cl2   S    
C70   C82   A    
C6    O18   A    
Cr1   O4    S    
C69   C81   A    
C32   C92   A    
C12   O24   A    
C32   C44   A    
Cr6   O26   S    
C7    O19   A    
C9    C35   S    
C60   C72   A    
C30   C42   A    
C2    C28   S    
C43   H7    S    
C57   C69   A    
C35   C47   A    
C42   H6    S    
Cr1   O1    S    
C46   C58   A    
C59   C71   A    
C36   C96   A    
C13   C68   S    
C44   H8    S    
