data_mof_unit_66255.cif
_audit_creation_date              2012-12-10T17:27:45-0500
_audit_creation_method            fapswitch 2.2
_symmetry_space_group_name_H-M    P1
_symmetry_Int_Tables_number       1
_space_group_crystal_system       triclinic
_cell_length_a                    21.776761
_cell_length_b                    21.776761
_cell_length_c                    38.711946
_cell_angle_alpha                 89.999943
_cell_angle_beta                  89.999987
_cell_angle_gamma                 90.000017
_cell_volume                      18358.26239

loop_
_atom_site_label
_atom_site_type_symbol
_atom_type_description
_atom_site_fract_x
_atom_site_fract_y
_atom_site_fract_z
_atom_type_partial_charge
C1    C     C_R   0.500000 0.119883 0.500000 0.966763
C2    C     C_R   0.725412 0.426047 0.414536 0.038180
C3    C     C_R   0.000000 0.500000 0.567203 1.008494
C4    C     C_R   0.000000 0.500000 0.932797 1.008495
C5    C     C_R   0.500000 0.000000 0.932797 1.008495
C6    C     C_R   1.000000 0.500000 0.067202 1.008494
C7    C     C_R   0.500000 1.000000 0.067202 1.008494
C8    C     C_R   0.555595 0.001441 0.376811 -0.124845
C9    C     C_R   0.998559 0.555595 0.376811 -0.124844
C10   C     C_R   0.444405 0.998559 0.376811 -0.124844
C11   C     C_R   0.001441 0.444405 0.376811 -0.124844
C12   C     C_R   0.555595 0.998559 0.623189 -0.124845
C13   C     C_R   0.573953 0.725412 0.414536 0.038181
C14   C     C_R   0.998559 0.444405 0.623189 -0.124845
C15   C     C_R   0.444405 0.001441 0.623189 -0.124843
C16   C     C_R   0.001441 0.555595 0.623189 -0.124844
C17   C     C_R   0.055595 0.501441 0.876811 -0.124845
C18   C     C_R   0.498559 0.055595 0.876811 -0.124844
C19   C     C_R   0.944405 0.498559 0.876811 -0.124844
C20   C     C_R   0.501441 0.944405 0.876811 -0.124845
C21   C     C_R   0.055595 0.498559 0.123189 -0.124845
C22   C     C_R   0.498559 0.944405 0.123189 -0.124845
C23   C     C_R   0.944405 0.501441 0.123189 -0.124843
C24   C     C_R   0.274588 0.573954 0.414536 0.038180
C25   C     C_R   0.501441 0.055595 0.123189 -0.124844
C26   C     C_R   0.555984 0.001920 0.340900 0.403216
C27   C     C_R   0.998080 0.555984 0.340900 0.403216
C28   C     C_R   0.444015 0.998080 0.340900 0.403216
C29   C     C_R   0.001921 0.444016 0.340900 0.403215
C30   C     C_R   0.555984 0.998080 0.659100 0.403216
C31   C     C_R   0.998080 0.444015 0.659100 0.403216
C32   C     C_R   0.444015 0.001920 0.659100 0.403216
C33   C     C_R   0.001920 0.555984 0.659100 0.403216
C34   C     C_R   0.055984 0.501920 0.840900 0.403216
C35   C     C_R   0.426046 0.725412 0.585464 0.038181
C36   C     C_R   0.498079 0.055984 0.840900 0.403216
C37   C     C_R   0.944016 0.498079 0.840900 0.403216
C38   C     C_R   0.501920 0.944016 0.840900 0.403215
C39   C     C_R   0.055984 0.498080 0.159100 0.403216
C40   C     C_R   0.498080 0.944015 0.159100 0.403216
C41   C     C_R   0.944015 0.501920 0.159100 0.403216
C42   C     C_R   0.501921 0.055984 0.159100 0.403216
C43   C     C_R   0.500000 1.000000 0.322605 -0.111926
C44   C     C_R   0.000000 0.500000 0.322605 -0.111926
C45   C     C_R   0.500000 0.000000 0.677395 -0.111926
C46   C     C_R   0.725412 0.573953 0.585464 0.038180
C47   C     C_R   0.000000 0.500000 0.677395 -0.111926
C48   C     C_R   0.000000 0.500000 0.822605 -0.111926
C49   C     C_R   0.500000 0.000000 0.822605 -0.111926
C50   C     C_R   1.000000 0.500000 0.177395 -0.111926
C51   C     C_R   0.500000 1.000000 0.177395 -0.111926
C52   C     C_R   0.500000 1.000000 0.394955 -0.118979
C53   C     C_R   0.000000 0.500000 0.394955 -0.118979
C54   C     C_R   0.500000 0.000000 0.605045 -0.118980
C55   C     C_R   0.000000 0.500000 0.605045 -0.118979
C56   C     C_R   0.000000 0.500000 0.894955 -0.118979
C57   C     C_R   0.573953 0.274588 0.585464 0.038179
C58   C     C_R   0.500000 0.000000 0.894955 -0.118980
C59   C     C_R   0.000000 0.500000 0.105045 -0.118979
C60   C     C_R   0.500000 1.000000 0.105045 -0.118979
C61   C     C_R   0.500000 1.000000 0.215145 0.383639
C62   C     C_R   1.000000 0.500000 0.215145 0.383639
C63   C     C_R   0.500000 0.000000 0.784855 0.383639
C64   C     C_R   0.000000 0.500000 0.784855 0.383639
C65   C     C_R   0.000000 0.500000 0.715145 0.383639
C66   C     C_R   0.500000 0.000000 0.715145 0.383639
C67   C     C_R   0.000000 0.500000 0.284855 0.383639
C68   C     C_R   0.274588 0.426047 0.585464 0.038180
C69   C     C_R   0.500000 1.000000 0.284855 0.383639
C70   C     C_R   0.490519 0.192015 0.435672 0.241292
C71   C     C_R   0.807985 0.490520 0.435672 0.241292
C72   C     C_R   0.509480 0.807985 0.435672 0.241291
C73   C     C_R   0.192014 0.509480 0.435672 0.241292
C74   C     C_R   0.490519 0.807985 0.564328 0.241292
C75   C     C_R   0.807985 0.509480 0.564328 0.241291
C76   C     C_R   0.509480 0.192014 0.564328 0.241291
C77   C     C_R   0.192015 0.490520 0.564328 0.241291
C78   C     C_R   0.990520 0.692015 0.935672 0.241292
C79   C     C_R   0.926047 0.774588 0.914536 0.038179
C80   C     C_R   0.307985 0.990520 0.935672 0.241291
C81   C     C_R   0.009480 0.307985 0.935672 0.241290
C82   C     C_R   0.692014 0.009480 0.935672 0.241292
C83   C     C_R   0.990519 0.307985 0.064328 0.241292
C84   C     C_R   0.307985 0.009480 0.064328 0.241291
C85   C     C_R   0.009480 0.692014 0.064328 0.241291
C86   C     C_R   0.692015 0.990520 0.064328 0.241292
C87   C     C_R   0.458857 0.220257 0.408434 0.357888
C88   C     C_R   0.779743 0.458858 0.408434 0.357889
C89   C     C_R   0.541142 0.779743 0.408434 0.357888
C90   C     C_R   0.225412 0.926047 0.914536 0.038180
C91   C     C_R   0.220257 0.541143 0.408434 0.357889
C92   C     C_R   0.458857 0.779743 0.591566 0.357889
C93   C     C_R   0.779743 0.541142 0.591566 0.357890
C94   C     C_R   0.541142 0.220257 0.591566 0.357890
C95   C     C_R   0.220257 0.458858 0.591566 0.357890
C96   C     C_R   0.958857 0.720257 0.908434 0.357890
C97   C     C_R   0.279743 0.958858 0.908434 0.357889
C98   C     C_R   0.041142 0.279743 0.908434 0.357890
C99   C     C_R   0.720257 0.041143 0.908434 0.357889
C100  C     C_R   0.958857 0.279743 0.091566 0.357889
C101  C     C_R   0.073953 0.225412 0.914536 0.038181
C102  C     C_R   0.279743 0.041142 0.091566 0.357889
C103  C     C_R   0.041142 0.720257 0.091566 0.357889
C104  C     C_R   0.720257 0.958858 0.091566 0.357888
C105  C     C_3   0.327927 0.272741 0.385630 -0.531093
C106  C     C_3   0.727259 0.327927 0.385630 -0.531093
C107  C     C_3   0.672072 0.727259 0.385630 -0.531094
C108  C     C_3   0.272741 0.672073 0.385630 -0.531094
C109  C     C_3   0.327926 0.727259 0.614370 -0.531094
C110  C     C_3   0.727259 0.672073 0.614370 -0.531093
C111  C     C_3   0.672073 0.272741 0.614370 -0.531093
C112  C     C_R   0.880117 0.500000 0.500000 0.966764
C113  C     C_R   0.774588 0.073954 0.914536 0.038180
C114  C     C_3   0.272741 0.327927 0.614370 -0.531093
C115  C     C_3   0.827927 0.772741 0.885630 -0.531094
C116  C     C_3   0.227259 0.827928 0.885630 -0.531094
C117  C     C_3   0.172072 0.227259 0.885629 -0.531093
C118  C     C_3   0.772741 0.172073 0.885630 -0.531094
C119  C     C_3   0.827926 0.227259 0.114370 -0.531093
C120  C     C_3   0.227259 0.172072 0.114370 -0.531093
C121  C     C_3   0.172072 0.772741 0.114370 -0.531093
C122  C     C_3   0.772741 0.827928 0.114370 -0.531093
C123  C     C_R   0.926046 0.225412 0.085464 0.038180
C124  C     C_R   0.225412 0.073953 0.085464 0.038181
C125  C     C_R   0.073953 0.774588 0.085464 0.038180
C126  C     C_R   0.774588 0.926047 0.085464 0.038181
C127  C     C_R   0.433256 0.305252 0.446403 0.302038
C128  C     C_R   0.694748 0.433256 0.446403 0.302038
C129  C     C_R   0.566744 0.694748 0.446403 0.302038
C130  C     C_R   0.305252 0.566744 0.446403 0.302039
C131  C     C_R   0.433255 0.694748 0.553597 0.302038
C132  C     C_R   0.500000 0.880117 0.500000 0.966763
C133  C     C_R   0.694748 0.566744 0.553597 0.302038
C134  C     C_R   0.566744 0.305252 0.553597 0.302038
C135  C     C_R   0.305252 0.433256 0.553597 0.302039
C136  C     C_R   0.933256 0.805252 0.946403 0.302039
C137  C     C_R   0.194748 0.933256 0.946403 0.302038
C138  C     C_R   0.066744 0.194748 0.946403 0.302039
C139  C     C_R   0.805252 0.066744 0.946403 0.302039
C140  C     C_R   0.933255 0.194748 0.053597 0.302039
C141  C     C_R   0.194748 0.066744 0.053597 0.302038
C142  C     C_R   0.066744 0.805252 0.053597 0.302038
C143  C     C_R   0.119883 0.500000 0.500000 0.966762
C144  C     C_R   0.805252 0.933256 0.053597 0.302038
C145  C     C_R   0.473085 0.280286 0.471973 -0.045711
C146  C     C_R   0.719714 0.473085 0.471973 -0.045710
C147  C     C_R   0.526915 0.719714 0.471973 -0.045710
C148  C     C_R   0.280286 0.526915 0.471973 -0.045710
C149  C     C_R   0.473085 0.719714 0.528027 -0.045710
C150  C     C_R   0.719714 0.526915 0.528027 -0.045711
C151  C     C_R   0.526915 0.280285 0.528027 -0.045710
C152  C     C_R   0.280286 0.473085 0.528027 -0.045711
C153  C     C_R   0.973085 0.780286 0.971973 -0.045710
C154  C     C_R   0.000000 0.619883 0.000000 0.966763
C155  C     C_R   0.219714 0.973085 0.971973 -0.045709
C156  C     C_R   0.026915 0.219715 0.971973 -0.045711
C157  C     C_R   0.780286 0.026915 0.971973 -0.045710
C158  C     C_R   0.973085 0.219714 0.028027 -0.045710
C159  C     C_R   0.219714 0.026915 0.028027 -0.045711
C160  C     C_R   0.026915 0.780285 0.028027 -0.045710
C161  C     C_R   0.780285 0.973085 0.028027 -0.045710
C162  C     C_R   0.488763 0.218377 0.469020 -0.109594
C163  C     C_R   0.781623 0.488763 0.469020 -0.109595
C164  C     C_R   0.511237 0.781623 0.469020 -0.109594
C165  C     C_R   0.380117 0.000000 0.000000 0.966763
C166  C     C_R   0.218377 0.511237 0.469020 -0.109594
C167  C     C_R   0.488763 0.781623 0.530980 -0.109595
C168  C     C_R   0.781623 0.511237 0.530980 -0.109594
C169  C     C_R   0.511237 0.218377 0.530980 -0.109594
C170  C     C_R   0.218377 0.488763 0.530980 -0.109594
C171  C     C_R   0.988763 0.718377 0.969020 -0.109594
C172  C     C_R   0.281623 0.988763 0.969020 -0.109594
C173  C     C_R   0.011237 0.281623 0.969020 -0.109594
C174  C     C_R   0.718377 0.011237 0.969020 -0.109594
C175  C     C_R   0.988763 0.281623 0.030980 -0.109595
C176  C     C_R   1.000000 0.380117 1.000000 0.966763
C177  C     C_R   0.281623 0.011237 0.030980 -0.109594
C178  C     C_R   0.011237 0.718377 0.030980 -0.109595
C179  C     C_R   0.718377 0.988763 0.030980 -0.109595
C180  C     C_R   0.500000 0.313187 0.500000 -0.010531
C181  C     C_R   0.686813 0.500000 0.500000 -0.010531
C182  C     C_R   0.500000 0.686813 0.500000 -0.010531
C183  C     C_R   0.313187 0.500000 0.500000 -0.010531
C184  C     C_R   1.000000 0.813187 0.000000 -0.010531
C185  C     C_R   0.186813 0.000000 1.000000 -0.010531
C186  C     C_R   1.000000 0.186813 1.000000 -0.010531
C187  C     C_R   0.619883 0.000000 0.000000 0.966763
C188  C     C_R   0.813187 0.000000 0.000000 -0.010531
C189  C     C_R   0.500000 0.186010 0.500000 -0.020396
C190  C     C_R   0.813990 0.500000 0.500000 -0.020396
C191  C     C_R   0.500000 0.813990 0.500000 -0.020396
C192  C     C_R   0.186010 0.500000 0.500000 -0.020396
C193  C     C_R   1.000000 0.686010 0.000000 -0.020396
C194  C     C_R   0.313990 0.000000 0.000000 -0.020396
C195  C     C_R   1.000000 0.313990 1.000000 -0.020396
C196  C     C_R   0.686010 0.000000 0.000000 -0.020396
C197  C     C_R   0.620253 0.500000 0.500000 1.053946
C198  C     C_R   0.426047 0.274588 0.414536 0.038180
C199  C     C_R   0.500000 0.620253 0.500000 1.053947
C200  C     C_R   0.379747 0.500000 0.500000 1.053946
C201  C     C_R   0.500000 0.379747 0.500000 1.053946
C202  C     C_R   0.120253 0.000000 0.000000 1.053946
C203  C     C_R   0.000000 0.120253 1.000000 1.053947
C204  C     C_R   0.879747 1.000000 0.000000 1.053946
C205  C     C_R   1.000000 0.879747 0.000000 1.053946
C206  C     C_R   0.500000 1.000000 0.432797 1.008495
C207  C     C_R   0.000000 0.500000 0.432797 1.008495
C208  C     C_R   0.500000 0.000000 0.567203 1.008494
Cl1   Cl    Cl    0.627731 0.007998 0.320064 -0.466568
Cl2   Cl    Cl    0.492001 0.127731 0.820064 -0.466567
Cl3   Cl    Cl    0.872269 0.492002 0.820064 -0.466567
Cl4   Cl    Cl    0.507998 0.872269 0.820064 -0.466568
Cl5   Cl    Cl    0.127731 0.492002 0.179936 -0.466568
Cl6   Cl    Cl    0.492002 0.872268 0.179936 -0.466567
Cl7   Cl    Cl    0.872269 0.507998 0.179936 -0.466567
Cl8   Cl    Cl    0.507998 0.127731 0.179936 -0.466568
Cl9   Cl    Cl    0.540375 0.187431 0.633298 -0.472603
Cl10  Cl    Cl    0.812569 0.540374 0.633298 -0.472602
Cl11  Cl    Cl    0.459624 0.812569 0.633297 -0.472602
Cl12  Cl    Cl    0.992002 0.627731 0.320064 -0.466568
Cl13  Cl    Cl    0.187431 0.459626 0.633298 -0.472603
Cl14  Cl    Cl    0.540374 0.812569 0.366702 -0.472602
Cl15  Cl    Cl    0.812568 0.459626 0.366702 -0.472602
Cl16  Cl    Cl    0.459625 0.187432 0.366702 -0.472601
Cl17  Cl    Cl    0.187431 0.540375 0.366702 -0.472602
Cl18  Cl    Cl    0.040374 0.687431 0.133298 -0.472602
Cl19  Cl    Cl    0.312568 0.040374 0.133298 -0.472602
Cl20  Cl    Cl    0.959624 0.312569 0.133298 -0.472602
Cl21  Cl    Cl    0.687431 0.959626 0.133298 -0.472602
Cl22  Cl    Cl    0.040374 0.312569 0.866702 -0.472603
Cl23  Cl    Cl    0.372269 0.992002 0.320064 -0.466567
Cl24  Cl    Cl    0.312569 0.959626 0.866702 -0.472602
Cl25  Cl    Cl    0.959625 0.687432 0.866702 -0.472602
Cl26  Cl    Cl    0.687431 0.040375 0.866702 -0.472602
Cl27  Cl    Cl    0.546104 0.136347 0.425548 -0.554973
Cl28  Cl    Cl    0.863653 0.546104 0.425547 -0.554973
Cl29  Cl    Cl    0.453896 0.863653 0.425548 -0.554973
Cl30  Cl    Cl    0.136347 0.453896 0.425548 -0.554973
Cl31  Cl    Cl    0.546104 0.863653 0.574452 -0.554973
Cl32  Cl    Cl    0.863653 0.453896 0.574452 -0.554973
Cl33  Cl    Cl    0.453896 0.136347 0.574452 -0.554973
Cl34  Cl    Cl    0.007998 0.372269 0.320064 -0.466568
Cl35  Cl    Cl    0.136347 0.546104 0.574452 -0.554974
Cl36  Cl    Cl    0.046104 0.636347 0.925547 -0.554973
Cl37  Cl    Cl    0.363653 0.046105 0.925548 -0.554972
Cl38  Cl    Cl    0.953896 0.363653 0.925548 -0.554973
Cl39  Cl    Cl    0.636347 0.953896 0.925547 -0.554973
Cl40  Cl    Cl    0.046104 0.363653 0.074452 -0.554973
Cl41  Cl    Cl    0.363653 0.953896 0.074452 -0.554973
Cl42  Cl    Cl    0.953896 0.636347 0.074452 -0.554973
Cl43  Cl    Cl    0.636347 0.046104 0.074452 -0.554974
Cl44  Cl    Cl    0.380294 0.363940 0.456561 -0.588999
Cl45  Cl    Cl    0.627731 0.992002 0.679936 -0.466567
Cl46  Cl    Cl    0.636060 0.380294 0.456561 -0.588998
Cl47  Cl    Cl    0.619705 0.636060 0.456561 -0.588998
Cl48  Cl    Cl    0.363940 0.619705 0.456561 -0.588998
Cl49  Cl    Cl    0.380294 0.636060 0.543439 -0.588999
Cl50  Cl    Cl    0.636060 0.619705 0.543439 -0.588999
Cl51  Cl    Cl    0.619705 0.363940 0.543439 -0.588999
Cl52  Cl    Cl    0.363940 0.380294 0.543439 -0.588998
Cl53  Cl    Cl    0.880294 0.863940 0.956561 -0.588999
Cl54  Cl    Cl    0.136060 0.880295 0.956561 -0.588998
Cl55  Cl    Cl    0.119705 0.136060 0.956561 -0.588998
Cl56  Cl    Cl    0.992002 0.372269 0.679936 -0.466568
Cl57  Cl    Cl    0.863940 0.119706 0.956561 -0.588999
Cl58  Cl    Cl    0.880294 0.136060 0.043439 -0.588999
Cl59  Cl    Cl    0.136060 0.119705 0.043439 -0.588999
Cl60  Cl    Cl    0.119705 0.863939 0.043439 -0.588998
Cl61  Cl    Cl    0.863940 0.880294 0.043439 -0.588998
Cl62  Cl    Cl    0.372269 0.007998 0.679936 -0.466567
Cl63  Cl    Cl    0.007998 0.627731 0.679936 -0.466568
Cl64  Cl    Cl    0.127731 0.507998 0.820064 -0.466568
H1    H     H_    0.598949 0.003050 0.390501 0.210009
H2    H     H_    0.496950 0.098950 0.890501 0.210009
H3    H     H_    0.901051 0.496950 0.890501 0.210009
H4    H     H_    0.503050 0.901051 0.890501 0.210009
H5    H     H_    0.098949 0.496950 0.109499 0.210009
H6    H     H_    0.496950 0.901050 0.109499 0.210009
H7    H     H_    0.901050 0.503050 0.109499 0.210009
H8    H     H_    0.503050 0.098949 0.109499 0.210009
H9    H     H_    0.387703 0.346973 0.387010 0.276466
H10   H     H_    0.301173 0.282992 0.409386 0.250715
H11   H     H_    0.331076 0.222204 0.382162 0.256184
H12   H     H_    0.996950 0.598950 0.390501 0.210009
H13   H     H_    0.303297 0.292262 0.363046 0.251296
H14   H     H_    0.653027 0.387704 0.387010 0.276466
H15   H     H_    0.717008 0.301173 0.409386 0.250715
H16   H     H_    0.777795 0.331077 0.382161 0.256185
H17   H     H_    0.707738 0.303297 0.363046 0.251296
H18   H     H_    0.612296 0.653027 0.387010 0.276466
H19   H     H_    0.698827 0.717009 0.409386 0.250716
H20   H     H_    0.668922 0.777796 0.382161 0.256184
H21   H     H_    0.696702 0.707739 0.363046 0.251296
H22   H     H_    0.346973 0.612297 0.387010 0.276466
H23   H     H_    0.401051 0.996950 0.390501 0.210009
H24   H     H_    0.282992 0.698827 0.409386 0.250716
H25   H     H_    0.222204 0.668924 0.382162 0.256185
H26   H     H_    0.292262 0.696703 0.363046 0.251296
H27   H     H_    0.387703 0.653027 0.612990 0.276466
H28   H     H_    0.301172 0.717008 0.590614 0.250715
H29   H     H_    0.331076 0.777796 0.617838 0.256185
H30   H     H_    0.303296 0.707738 0.636953 0.251296
H31   H     H_    0.653027 0.612296 0.612990 0.276466
H32   H     H_    0.717008 0.698827 0.590614 0.250715
H33   H     H_    0.777796 0.668923 0.617838 0.256185
H34   H     H_    0.003050 0.401051 0.390501 0.210009
H35   H     H_    0.707738 0.696702 0.636954 0.251296
H36   H     H_    0.612296 0.346973 0.612990 0.276466
H37   H     H_    0.698827 0.282992 0.590614 0.250716
H38   H     H_    0.668923 0.222204 0.617838 0.256185
H39   H     H_    0.696703 0.292262 0.636954 0.251296
H40   H     H_    0.346973 0.387704 0.612990 0.276466
H41   H     H_    0.282992 0.301173 0.590614 0.250716
H42   H     H_    0.222204 0.331077 0.617838 0.256185
H43   H     H_    0.292261 0.303298 0.636954 0.251296
H44   H     H_    0.887703 0.846973 0.887010 0.276466
H45   H     H_    0.598949 0.996950 0.609499 0.210008
H46   H     H_    0.801173 0.782992 0.909386 0.250716
H47   H     H_    0.831077 0.722204 0.882162 0.256184
H48   H     H_    0.803297 0.792262 0.863046 0.251296
H49   H     H_    0.153027 0.887704 0.887010 0.276466
H50   H     H_    0.217009 0.801174 0.909386 0.250716
H51   H     H_    0.277795 0.831078 0.882161 0.256185
H52   H     H_    0.207738 0.803297 0.863046 0.251296
H53   H     H_    0.112296 0.153027 0.887010 0.276466
H54   H     H_    0.198827 0.217008 0.909386 0.250715
H55   H     H_    0.168922 0.277796 0.882161 0.256185
H56   H     H_    0.996950 0.401050 0.609499 0.210009
H57   H     H_    0.196702 0.207739 0.863046 0.251296
H58   H     H_    0.846973 0.112297 0.887010 0.276466
H59   H     H_    0.782992 0.198827 0.909386 0.250716
H60   H     H_    0.722204 0.168924 0.882162 0.256184
H61   H     H_    0.792262 0.196704 0.863046 0.251296
H62   H     H_    0.887703 0.153027 0.112990 0.276466
H63   H     H_    0.801172 0.217008 0.090614 0.250715
H64   H     H_    0.831076 0.277796 0.117838 0.256184
H65   H     H_    0.803296 0.207738 0.136954 0.251295
H66   H     H_    0.153027 0.112296 0.112990 0.276466
H67   H     H_    0.401050 0.003050 0.609499 0.210009
H68   H     H_    0.217008 0.198827 0.090614 0.250715
H69   H     H_    0.277795 0.168923 0.117838 0.256184
H70   H     H_    0.207738 0.196702 0.136954 0.251296
H71   H     H_    0.112296 0.846973 0.112990 0.276466
H72   H     H_    0.198827 0.782992 0.090614 0.250716
H73   H     H_    0.168923 0.722205 0.117838 0.256185
H74   H     H_    0.196702 0.792262 0.136954 0.251296
H75   H     H_    0.846973 0.887704 0.112990 0.276466
H76   H     H_    0.782992 0.801173 0.090614 0.250715
H77   H     H_    0.722204 0.831077 0.117838 0.256185
H78   H     H_    0.003050 0.598949 0.609499 0.210009
H79   H     H_    0.792261 0.803298 0.136954 0.251296
H80   H     H_    0.098949 0.503050 0.890501 0.210009
N1    N     N_R   0.537884 0.961955 0.267153 -0.063498
N2    N     N_R   0.538045 0.037884 0.767153 -0.063498
N3    N     N_R   0.962116 0.538045 0.767153 -0.063498
N4    N     N_R   0.461955 0.962116 0.767153 -0.063498
N5    N     N_R   0.037884 0.538045 0.232847 -0.063498
N6    N     N_R   0.538045 0.962116 0.232847 -0.063498
N7    N     N_R   0.962116 0.461955 0.232847 -0.063498
N8    N     N_R   0.461955 0.037884 0.232847 -0.063498
N9    N     N_2   0.388522 0.299655 0.387906 -0.251695
N10   N     N_2   0.700345 0.388523 0.387905 -0.251696
N11   N     N_2   0.611477 0.700346 0.387905 -0.251696
N12   N     N_R   0.038045 0.537884 0.267153 -0.063499
N13   N     N_2   0.299654 0.611478 0.387906 -0.251695
N14   N     N_2   0.388522 0.700345 0.612094 -0.251696
N15   N     N_2   0.700345 0.611477 0.612094 -0.251695
N16   N     N_2   0.611477 0.299654 0.612095 -0.251695
N17   N     N_2   0.299655 0.388523 0.612095 -0.251696
N18   N     N_2   0.888523 0.799655 0.887906 -0.251696
N19   N     N_2   0.200345 0.888523 0.887905 -0.251695
N20   N     N_2   0.111477 0.200345 0.887905 -0.251696
N21   N     N_2   0.799654 0.111478 0.887906 -0.251695
N22   N     N_2   0.888522 0.200345 0.112094 -0.251695
N23   N     N_R   0.462116 0.038045 0.267153 -0.063498
N24   N     N_2   0.200345 0.111477 0.112094 -0.251696
N25   N     N_2   0.111476 0.799655 0.112095 -0.251696
N26   N     N_2   0.799655 0.888523 0.112095 -0.251696
N27   N     N_R   0.961955 0.462116 0.267153 -0.063498
N28   N     N_R   0.537884 0.038045 0.732847 -0.063498
N29   N     N_R   0.038045 0.462116 0.732847 -0.063498
N30   N     N_R   0.462116 0.961955 0.732847 -0.063498
N31   N     N_R   0.961955 0.537884 0.732847 -0.063498
N32   N     N_R   0.037884 0.461955 0.767153 -0.063499
O1    O     O_R   0.551620 0.091530 0.500110 -0.591937
O2    O     O_R   0.408470 0.051620 0.000110 -0.591936
O3    O     O_R   0.948380 0.408470 0.000110 -0.591936
O4    O     O_R   0.591530 0.948380 0.000110 -0.591936
O5    O     O_R   0.051620 0.408470 0.999890 -0.591936
O6    O     O_R   0.408470 0.948380 0.999890 -0.591936
O7    O     O_R   0.948380 0.591530 0.999890 -0.591936
O8    O     O_R   0.591530 0.051620 0.999890 -0.591936
O9    O     O_R   0.551620 0.999930 0.449180 -0.605253
O10   O     O_R   0.000070 0.551620 0.449180 -0.605253
O11   O     O_R   0.448380 0.000070 0.449180 -0.605252
O12   O     O_R   0.908470 0.551620 0.500110 -0.591936
O13   O     O_R   0.999930 0.448380 0.449180 -0.605252
O14   O     O_R   0.551620 0.000070 0.550820 -0.605253
O15   O     O_R   0.000070 0.448380 0.550820 -0.605253
O16   O     O_R   0.448380 0.999930 0.550820 -0.605252
O17   O     O_R   0.999930 0.551620 0.550820 -0.605252
O18   O     O_R   0.051620 0.499930 0.949180 -0.605253
O19   O     O_R   0.500070 0.051620 0.949180 -0.605252
O20   O     O_R   0.948380 0.500070 0.949180 -0.605252
O21   O     O_R   0.499930 0.948380 0.949180 -0.605252
O22   O     O_R   0.051620 0.500070 0.050820 -0.605253
O23   O     O_R   0.448380 0.908470 0.500110 -0.591936
O24   O     O_R   0.500070 0.948380 0.050820 -0.605253
O25   O     O_R   0.948380 0.499930 0.050820 -0.605252
O26   O     O_R   0.499930 0.051620 0.050820 -0.605252
O27   O     O_R   0.591500 0.499930 0.528880 -0.583600
O28   O     O_R   0.500070 0.591500 0.528880 -0.583599
O29   O     O_R   0.408500 0.500070 0.528880 -0.583599
O30   O     O_R   0.499930 0.408500 0.528880 -0.583599
O31   O     O_R   0.591500 0.500070 0.471120 -0.583600
O32   O     O_R   0.500070 0.408500 0.471120 -0.583599
O33   O     O_R   0.408500 0.499930 0.471120 -0.583599
O34   O     O_R   0.091530 0.448380 0.500110 -0.591936
O35   O     O_R   0.499930 0.591500 0.471120 -0.583600
O36   O     O_R   0.091500 0.999930 0.028880 -0.583600
O37   O     O_R   0.000070 0.091500 0.028880 -0.583599
O38   O     O_R   0.908500 0.000070 0.028880 -0.583599
O39   O     O_R   0.999930 0.908500 0.028880 -0.583599
O40   O     O_R   0.091500 0.000070 0.971120 -0.583599
O41   O     O_R   0.000070 0.908500 0.971120 -0.583599
O42   O     O_R   0.908500 0.999930 0.971120 -0.583599
O43   O     O_R   0.999930 0.091500 0.971120 -0.583600
O44   O     O_R   0.551620 0.908470 0.499890 -0.591936
O45   O     O_R   0.908470 0.448380 0.499890 -0.591936
O46   O     O_R   0.448380 0.091530 0.499890 -0.591936
O47   O     O_R   0.091530 0.551620 0.499890 -0.591936
O48   O     O_R   0.051620 0.591530 0.000110 -0.591936
Zn1   Zn    Zn3+2 0.568970 0.000000 0.500000 1.094343
Zn2   Zn    Zn3+2 0.500000 0.500000 0.461490 1.121611
Zn3   Zn    Zn3+2 0.000000 0.000000 0.038510 1.121611
Zn4   Zn    Zn3+2 0.000000 0.000000 0.961490 1.121611
Zn5   Zn    Zn3+2 0.000000 0.568970 0.500000 1.094343
Zn6   Zn    Zn3+2 0.431030 0.000000 0.500000 1.094343
Zn7   Zn    Zn3+2 0.000000 0.431030 0.500000 1.094343
Zn8   Zn    Zn3+2 0.068970 0.500000 0.000000 1.094343
Zn9   Zn    Zn3+2 0.500000 0.068970 0.000000 1.094343
Zn10  Zn    Zn3+2 0.931030 0.500000 0.000000 1.094343
Zn11  Zn    Zn3+2 0.500000 0.931030 0.000000 1.094343
Zn12  Zn    Zn3+2 0.500000 0.500000 0.538510 1.121611

loop_
_geom_bond_atom_site_label_1
_geom_bond_atom_site_label_2
_ccdc_geom_bond_type
C176  O3    A    
C174  C196  A    
O8    Zn9   S    
C8    C26   A    
C32   C45   A    
C7    C60   S    
C30   C45   A    
C172  C194  A    
C157  C188  A    
O2    Zn9   S    
C15   C32   A    
C135  Cl52  S    
C35   N14   S    
C71   C163  A    
C110  H35   S    
C113  N21   S    
H18   N11   S    
C141  Cl59  S    
C21   C59   A    
C147  C164  A    
C22   C60   A    
C187  C196  S    
C187  O4    A    
C168  C190  A    
C74   C92   A    
C37   Cl3   S    
C19   C37   A    
C76   C94   A    
C14   H56   S    
C18   C58   A    
C117  H54   S    
C82   C174  A    
C78   C96   A    
C149  C167  A    
C25   C60   A    
C115  N18   S    
C85   C103  A    
C137  Cl54  S    
N5    N12   A    
C84   Cl41  S    
C115  H47   S    
C27   Cl12  S    
C11   H34   S    
C109  N14   S    
C4    C56   S    
C34   Cl64  S    
C75   Cl32  S    
C7    O26   A    
C115  H48   S    
C70   C162  A    
O4    Zn11  S    
C175  C195  A    
C74   C167  A    
C150  C181  A    
O28   Zn12  S    
C178  C193  A    
O16   Zn6   S    
C156  C173  A    
C68   C95   A    
C119  H63   S    
C106  H15   S    
C15   C54   A    
C180  C201  S    
C106  H17   S    
C38   C49   A    
C101  N20   S    
C39   Cl5   S    
C184  C205  S    
O42   Zn4   S    
C185  C202  S    
C123  N22   S    
C20   H4    S    
C5    O19   A    
C21   H5    S    
C152  C170  A    
C150  C168  A    
C30   Cl45  S    
C160  C178  A    
O11   Zn6   S    
C127  C145  A    
C133  Cl50  S    
O21   Zn11  S    
C83   C100  A    
C29   C44   A    
C149  C182  A    
C33   C47   A    
O43   Zn4   S    
C131  C149  A    
C34   C48   A    
C17   C34   A    
C80   C172  A    
C127  C198  A    
C118  H61   S    
C75   C93   A    
C86   Cl43  S    
H58   N21   S    
C109  H30   S    
C107  N11   S    
C146  C181  A    
C136  Cl53  S    
C182  C199  S    
C122  N26   S    
C167  C191  A    
C23   C41   A    
N7    N27   A    
C100  C123  A    
C202  O40   A    
C76   Cl33  S    
C79   C96   A    
C46   N15   S    
C87   Cl16  S    
C136  C153  A    
C104  Cl21  S    
C197  O27   A    
C199  O35   A    
C134  C151  A    
C105  H11   S    
C119  N22   S    
C163  C190  A    
C70   Cl27  S    
C1    O46   A    
C129  C147  A    
C71   C88   A    
O9    Zn1   S    
O45   Zn7   S    
C40   Cl6   S    
C72   Cl29  S    
C15   H67   S    
C154  O7    A    
C106  N10   S    
C87   C198  A    
C38   Cl4   S    
C115  H46   S    
C121  H73   S    
C69   N1    A    
C19   C56   A    
C200  O33   A    
C80   C97   A    
C84   C102  A    
C169  C189  A    
C14   C31   A    
C171  C193  A    
C86   C104  A    
C116  N19   S    
C90   N19   S    
O19   Zn9   S    
C23   C59   A    
C79   C136  A    
C5    C58   S    
C142  Cl60  S    
C127  Cl44  S    
C161  C188  A    
O27   Zn12  S    
C41   Cl7   S    
O14   Zn1   S    
C135  C152  A    
C117  N20   S    
C137  C155  A    
O10   Zn5   S    
C140  C158  A    
C98   Cl22  S    
C3    C55   S    
C27   C44   A    
C141  C159  A    
C111  H38   S    
C85   C178  A    
H75   N26   S    
N29   N32   A    
C128  Cl46  S    
C96   Cl25  S    
C113  C139  A    
C161  C179  A    
C8    C52   A    
O7    Zn10  S    
C118  H59   S    
C157  C174  A    
C61   N6    A    
C139  Cl57  S    
C118  N21   S    
C43   C69   S    
C12   H45   S    
O24   Zn11  S    
C70   C87   A    
C201  O30   A    
C208  O14   A    
C203  O43   A    
C4    O18   A    
C24   N13   S    
C6    O22   A    
H14   N10   S    
C155  C185  A    
C23   H7    S    
C77   C170  A    
O40   Zn4   S    
C188  C204  S    
C94   Cl9   S    
C105  H13   S    
C152  C183  A    
C81   C173  A    
C92   Cl11  S    
C132  C191  S    
C153  C184  A    
C13   N11   S    
H22   N13   S    
C17   C56   A    
O32   Zn2   S    
C117  H57   S    
C199  O28   A    
C6    C59   S    
C1    O1    A    
C57   C94   A    
C140  Cl58  S    
C124  C141  A    
C57   N16   S    
C20   C58   A    
C164  C191  A    
C107  H20   S    
O23   Zn6   S    
C205  O41   A    
O48   Zn8   S    
C110  N15   S    
C77   Cl35  S    
C81   Cl38  S    
C68   C135  A    
C133  C150  A    
C64   N32   A    
C120  H68   S    
C22   H6    S    
C156  C186  A    
C40   C51   A    
C143  O34   A    
C54   C208  S    
O12   Zn5   S    
C151  C169  A    
C159  C185  A    
C112  O45   A    
O34   Zn7   S    
C128  C146  A    
C18   C36   A    
C148  C183  A    
H31   N15   S    
C126  C144  A    
C86   C179  A    
C186  C203  S    
C122  H79   S    
C176  C195  S    
C84   C177  A    
C103  C125  A    
C12   C54   A    
C112  C190  S    
O3    Zn10  S    
C24   C130  A    
C158  C175  A    
C61   N8    A    
C3    O15   A    
C13   C129  A    
C44   C67   S    
O38   Zn3   S    
C116  H51   S    
C69   N23   A    
C33   Cl63  S    
C18   H2    S    
C65   N29   A    
O44   Zn1   S    
H53   N20   S    
C204  O38   A    
C63   N4    A    
C144  C161  A    
C148  C166  A    
C82   C99   A    
C32   Cl62  S    
C114  H42   S    
O29   Zn12  S    
C10   C52   A    
C165  C194  S    
C207  O10   A    
H9    N9    S    
C17   H80   S    
N2    N28   A    
C114  H41   S    
C95   Cl13  S    
C106  H16   S    
C83   C175  A    
C66   N28   A    
C48   C64   S    
C97   Cl24  S    
C81   C98   A    
O20   Zn10  S    
O17   Zn5   S    
C176  O5    A    
C62   N7    A    
C100  Cl20  S    
C120  H69   S    
C154  C193  S    
C155  C172  A    
C200  O29   A    
C129  Cl47  S    
C134  Cl51  S    
C67   N27   A    
C29   Cl34  S    
C75   C168  A    
H27   N14   S    
H66   N24   S    
C90   C97   A    
C16   H78   S    
C8    H1    S    
C126  N26   S    
O47   Zn5   S    
N8    N23   A    
C35   C92   A    
C111  H39   S    
C181  C197  S    
C203  O37   A    
C31   C47   A    
C204  O42   A    
H49   N19   S    
C122  H76   S    
C25   H8    S    
C102  C124  A    
C158  C186  A    
O26   Zn9   S    
C179  C196  A    
C109  H29   S    
C177  C194  A    
C79   N18   S    
C99   Cl26  S    
O22   Zn8   S    
C132  O44   A    
C108  H25   S    
C78   Cl36  S    
C9    H12   S    
C31   Cl56  S    
C122  H77   S    
O5    Zn8   S    
C111  N16   S    
C117  H55   S    
C109  H28   S    
C143  O47   A    
O35   Zn2   S    
C105  H10   S    
C72   C164  A    
C207  O13   A    
O36   Zn3   S    
C65   N31   A    
C147  C182  A    
C63   N2    A    
N4    N30   A    
C57   C134  A    
C50   C62   S    
C9    C53   A    
O31   Zn2   S    
C4    O20   A    
C121  H72   S    
C35   C131  A    
C41   C50   A    
C5    O21   A    
C108  N13   S    
C9    C27   A    
C10   C28   A    
C132  O23   A    
C165  O6    A    
C119  H64   S    
C120  N24   S    
C12   C30   A    
C183  C200  S    
C25   C42   A    
C99   C113  A    
C101  C138  A    
C107  H21   S    
C108  H26   S    
C98   C101  A    
C28   C43   A    
C121  N25   S    
O18   Zn8   S    
C62   N5    A    
C206  O11   A    
C144  Cl61  S    
C46   C133  A    
C201  O32   A    
C151  C180  A    
C145  C180  A    
C78   C171  A    
C166  C192  A    
C76   C169  A    
C42   Cl8   S    
C187  O8    A    
C111  H37   S    
O25   Zn10  S    
C105  N9    S    
C2    N10   S    
C162  C189  A    
C118  H60   S    
C36   C49   A    
C2    C128  A    
O39   Zn3   S    
C49   C63   S    
C110  H32   S    
H44   N18   S    
C51   C61   S    
C116  H50   S    
O46   Zn6   S    
C125  N25   S    
C108  H24   S    
C103  Cl18  S    
C82   Cl39  S    
C52   C206  S    
H62   N22   S    
C3    O17   A    
C119  H65   S    
C145  C162  A    
H36   N16   S    
C170  C192  A    
C114  N17   S    
C74   Cl31  S    
C131  Cl49  S    
C19   H3    S    
C139  C157  A    
C83   Cl40  S    
C124  N24   S    
H40   N17   S    
C2    C88   A    
C121  H74   S    
N1    N6    A    
C11   C53   A    
C154  O48   A    
C42   C51   A    
C85   Cl42  S    
C91   Cl17  S    
C159  C177  A    
C107  H19   S    
C26   C43   A    
C6    O25   A    
C130  C148  A    
C7    O24   A    
C206  O9    A    
C73   Cl30  S    
C73   C91   A    
C89   Cl14  S    
H71   N25   S    
N3    N31   A    
O1    Zn1   S    
C123  C140  A    
C77   C95   A    
C93   Cl10  S    
O13   Zn7   S    
O15   Zn7   S    
C173  C195  A    
C16   C33   A    
C205  O39   A    
C20   C38   A    
C112  O12   A    
C21   C39   A    
C125  C142  A    
C143  C192  S    
C22   C40   A    
C153  C171  A    
C88   Cl15  S    
C71   Cl28  S    
C138  Cl55  S    
C37   C48   A    
C202  O36   A    
C28   Cl23  S    
C197  O31   A    
O37   Zn3   S    
C67   N12   A    
C116  H52   S    
C24   C91   A    
C90   C137  A    
C138  C156  A    
O41   Zn4   S    
C13   C89   A    
O6    Zn11  S    
C64   N3    A    
C114  H43   S    
C142  C160  A    
C73   C166  A    
O30   Zn12  S    
C146  C163  A    
C68   N17   S    
C16   C55   A    
C72   C89   A    
C46   C93   A    
C110  H33   S    
C102  Cl19  S    
C53   C207  S    
C160  C184  A    
C14   C55   A    
C26   Cl1   S    
C120  H70   S    
C39   C50   A    
C104  C126  A    
C165  O2    A    
C11   C29   A    
C36   Cl2   S    
C45   C66   S    
C80   Cl37  S    
C208  O16   A    
O33   Zn2   S    
C47   C65   S    
C66   N30   A    
C1    C189  S    
C10   H23   S    
C198  N9    S    
C130  Cl48  S    
