data_mof_unit_28461.cif
_audit_creation_date              2013-03-05T15:52:32-0500
_audit_creation_method            fapswitch 2.2
_symmetry_space_group_name_H-M    P1
_symmetry_Int_Tables_number       1
_space_group_crystal_system       triclinic
_cell_length_a                    6.961166
_cell_length_b                    20.441474
_cell_length_c                    24.41475
_cell_angle_alpha                 89.823923
_cell_angle_beta                  90.058419
_cell_angle_gamma                 90.025199
_cell_volume                      3474.11477991

loop_
_atom_site_label
_atom_site_type_symbol
_atom_site_description
_atom_site_fract_x
_atom_site_fract_y
_atom_site_fract_z
_atom_type_partial_charge
O1    O     O_R   0.507310 0.423620 0.460450 -0.581105
O2    O     O_R   0.170760 0.556060 0.437190 -0.589480
O3    O     O_R   0.004040 0.576380 0.539550 -0.592245
C1    C     C_R   0.340282 0.575914 0.421200 0.976392
O4    O     O_R   0.177350 0.422870 0.454070 -0.590203
O5    O     O_R   0.010680 0.442240 0.556560 -0.589009
C2    C     C_R   0.346092 0.398854 0.443555 0.932469
O6    O     O_R   0.500670 0.557760 0.443440 -0.589114
O7    O     O_3   0.340380 0.506510 0.533610 -0.275074
V1    V     V_3+5 0.064130 0.498790 0.493770 1.170919
O8    O     O_R   0.681170 0.443940 0.562810 -0.593007
C3    C     C_R   0.849939 0.423899 0.578707 0.981278
O9    O     O_R   0.674570 0.577130 0.545930 -0.589449
C4    C     C_R   0.842998 0.601003 0.556780 0.931743
V2    V     V_3+5 0.564560 0.501210 0.506230 1.171094
O10   O     O_3   0.838170 0.493490 0.466390 -0.267122
C5    C     C_R   0.970065 0.837110 0.912238 -0.169288
C6    C     C_R   0.846948 0.661777 0.589248 -0.141081
C7    C     C_R   0.962592 0.718817 0.910476 -0.185060
C8    C     C_R   0.979124 0.777091 0.940142 0.047599
C9    C     C_R   0.942806 0.838095 0.855136 -0.235058
C10   C     C_R   0.910913 0.779535 0.824951 0.141194
C11   C     C_R   0.929932 0.719659 0.853691 0.094459
C12   C     C_R   0.864834 0.778059 0.767377 -0.187201
C13   C     C_R   0.870436 0.716758 0.738273 -0.195756
C14   C     C_R   0.878299 0.658068 0.769930 0.642172
C15   C     C_R   0.911482 0.660476 0.826170 -0.385323
C16   C     C_R   0.799753 0.834508 0.738420 0.638593
C17   C     C_R   0.775231 0.832797 0.681866 -0.398571
C18   C     C_R   0.802736 0.775580 0.652221 0.113817
C19   C     C_R   0.853794 0.716634 0.679332 0.137524
C20   C     C_R   0.771774 0.776801 0.595386 -0.139553
C21   C     C_R   0.788798 0.720066 0.564518 -0.158670
C22   C     C_R   0.886742 0.660633 0.645787 -0.205035
H1    H     H_    0.919167 0.614768 0.848756 0.163257
H2    H     H_    0.944337 0.615669 0.661855 0.176706
H3    H     H_    0.755991 0.721568 0.521135 0.107717
H4    H     H_    0.728307 0.877002 0.661118 0.158937
H5    H     H_    0.972949 0.672444 0.931961 0.111729
H6    H     H_    0.953250 0.885162 0.835441 0.175292
H7    H     H_    0.728899 0.821603 0.574898 0.113460
C23   C     C_3   0.746509 0.248252 0.797071 -0.546558
C24   C     C_3   0.105215 0.254192 0.788459 -0.519488
C25   C     C_3   0.085837 0.304067 0.739977 0.492462
H8    H     H_    0.726776 0.349105 0.767176 0.209343
H9    H     H_    0.750362 0.274586 0.836893 0.201966
H10   H     H_    0.241433 0.226293 0.783946 0.165255
H11   H     H_    0.115111 0.280771 0.828086 0.196884
H12   H     H_    0.206206 0.295471 0.710537 -0.016571
C26   C     C_1   0.860669 0.378327 0.624377 -0.290753
C27   C     C_3   0.931556 0.206415 0.790519 0.190879
C28   C     C_3   0.726722 0.298911 0.749699 -0.384914
C29   C     C_3   0.894006 0.291790 0.708225 0.051803
C30   C     C_3   0.899208 0.219825 0.686340 0.287193
C31   C     C_3   0.918220 0.168705 0.735168 0.337687
C32   C     C_1   0.873829 0.339674 0.662172 0.107933
C33   C     C_1   0.950710 0.159802 0.837454 0.066627
C34   C     C_1   0.963560 0.121613 0.875586 -0.303715
H13   H     H_    0.790923 0.136242 0.739582 0.049257
H14   H     H_    0.617803 0.216017 0.797982 0.170294
H15   H     H_    0.586094 0.293548 0.728816 0.161515
H16   H     H_    0.036455 0.216296 0.663140 0.084154
C35   C     C_3   0.617696 0.732320 0.288878 -0.528509
C36   C     C_3   0.354300 0.674124 0.235215 -0.243920
C37   C     C_3   0.372092 0.725591 0.187441 0.481039
H17   H     H_    0.719734 0.690492 0.291651 0.174658
H18   H     H_    0.200645 0.658823 0.237645 0.133438
H19   H     H_    0.223346 0.736521 0.174467 0.022327
C38   C     C_1   0.472100 0.878425 0.124320 -0.337101
C39   C     C_3   0.407364 0.706087 0.290938 0.170720
C40   C     C_3   0.662889 0.775994 0.236687 1.122223
C41   C     C_3   0.457792 0.792217 0.209100 -0.092904
C42   C     C_3   0.307859 0.817180 0.253213 -0.218104
C43   C     C_3   0.275306 0.765772 0.299264 -0.457039
C44   C     C_1   0.463330 0.839961 0.162431 -0.022103
C45   C     C_1   0.378491 0.658943 0.337234 0.043326
C46   C     C_1   0.355880 0.620947 0.375190 -0.317092
H20   H     H_    0.302346 0.787568 0.340314 0.185866
H21   H     H_    0.122187 0.749869 0.299145 0.200000
H22   H     H_    0.644210 0.760823 0.326983 0.174031
H23   H     H_    0.167780 0.823477 0.232240 0.191868
C47   C     C_R   0.474912 0.163221 0.087383 -0.128322
C48   C     C_R   0.354720 0.338370 0.411011 -0.139926
C49   C     C_R   0.547843 0.278756 0.092940 -0.170994
C50   C     C_R   0.531368 0.221701 0.061747 0.027596
C51   C     C_R   0.432965 0.162769 0.143745 -0.254580
C52   C     C_R   0.453678 0.220129 0.176366 0.116553
C53   C     C_R   0.512878 0.278111 0.149572 0.106607
C54   C     C_R   0.423154 0.221559 0.234546 0.012098
C55   C     C_R   0.445483 0.281732 0.264583 -0.127657
C56   C     C_R   0.518008 0.337625 0.236232 0.620737
C57   C     C_R   0.547503 0.334789 0.179457 -0.398718
C58   C     C_R   0.377673 0.164036 0.263975 -0.148936
C59   C     C_R   0.353772 0.164428 0.320299 -0.236261
C60   C     C_R   0.363248 0.222520 0.349702 0.179054
C61   C     C_R   0.401231 0.282594 0.322398 0.145583
C62   C     C_R   0.330637 0.220779 0.406464 -0.176397
C63   C     C_R   0.329147 0.278165 0.436935 -0.147747
C64   C     C_R   0.385508 0.340734 0.354163 -0.177699
H24   H     H_    0.608112 0.376737 0.158495 0.153130
H25   H     H_    0.385975 0.388640 0.335979 0.156907
H26   H     H_    0.304114 0.275729 0.480691 0.115417
H27   H     H_    0.322965 0.118595 0.340992 0.127969
H28   H     H_    0.593502 0.323669 0.073096 0.110360
H29   H     H_    0.389556 0.116427 0.160777 0.101212
H30   H     H_    0.364013 0.116889 0.244912 0.118056
H31   H     H_    0.304691 0.174745 0.427343 0.120124
O11   O     O_R   0.323590 0.942280 0.056590 -0.591235
O12   O     O_R   0.647030 0.077140 0.045940 -0.597456
O13   O     O_R   0.813570 0.057750 0.943430 -0.589128
C65   C     C_R   0.478642 0.101369 0.056280 0.938130
O14   O     O_R   0.653510 0.943950 0.062820 -0.595457
O15   O     O_R   0.820100 0.923600 0.960440 -0.582668
C66   C     C_R   0.484265 0.923887 0.078625 0.981091
O16   O     O_R   0.317060 0.076430 0.039590 -0.588372
O17   O     O_3   0.483830 0.993520 0.966410 -0.270282
V3    V     V_3+5 0.760140 0.001200 0.006230 1.154581
O18   O     O_R   0.149560 0.922820 0.954030 -0.598739
C67   C     C_R   0.980676 0.898978 0.943232 0.949531
O19   O     O_R   0.143080 0.056020 0.937150 -0.587555
C68   C     C_R   0.974320 0.076208 0.921365 0.977412
V4    V     V_3+5 0.259690 0.998730 0.993720 1.157857
O20   O     O_3   0.986120 0.006480 0.033580 -0.276339
O21   O     O_3   0.088026 0.369229 0.760105 -0.591033
C69   C     C_3   0.278275 0.392203 0.765433 -0.234537
H32   H     H_    0.348960 0.396327 0.724724 0.135197
H33   H     H_    0.363742 0.360421 0.793316 0.128634
H34   H     H_    0.274465 0.441861 0.783588 0.174160
O22   O     O_3   0.087208 0.130585 0.728519 -0.631140
C70   C     C_3   0.050497 0.076218 0.694594 -0.267757
H35   H     H_    0.991162 0.091418 0.654200 0.155064
H36   H     H_    0.951806 0.041084 0.715133 0.167282
H37   H     H_    0.188078 0.050465 0.686964 0.167749
O23   O     O_3   0.755899 0.208435 0.645401 -0.614174
C71   C     C_3   0.588180 0.175882 0.663183 -0.190876
H38   H     H_    0.537356 0.191632 0.703962 0.126700
H39   H     H_    0.611079 0.122136 0.662479 0.133454
H40   H     H_    0.470982 0.186861 0.633750 0.165511
O24   O     O_3   0.781502 0.734203 0.203910 -0.650416
C72   C     C_3   0.855252 0.760680 0.154739 -0.156995
H41   H     H_    0.970102 0.796603 0.162335 0.106321
H42   H     H_    0.745249 0.780762 0.127061 0.170544
H43   H     H_    0.922023 0.720099 0.131511 0.146438
N1    N     N_3   0.467262 0.614451 0.225999 -0.212231
H44   H     H_    0.609352 0.625946 0.216321 0.199723
H45   H     H_    0.408857 0.589152 0.192756 0.123701
O25   O     O_3   0.481788 0.700505 0.143096 -0.590026
C73   C     C_3   0.363120 0.682461 0.098763 -0.305661
H46   H     H_    0.453563 0.659698 0.066682 0.176539
H47   H     H_    0.293283 0.726325 0.080613 0.138923
H48   H     H_    0.253040 0.646036 0.111583 0.133493
N2    N     N_3   0.353201 0.880811 0.277403 -0.202967
H49   H     H_    0.481158 0.878541 0.299605 0.168366
H50   H     H_    0.361378 0.916544 0.246819 0.106156
O26   O     O_3   0.772858 0.829646 0.258246 -0.661735
C74   C     C_3   0.793716 0.886952 0.226036 -0.324081
H51   H     H_    0.679169 0.922618 0.234871 0.149027
H52   H     H_    0.802562 0.879518 0.181603 0.145226
H53   H     H_    0.929858 0.911098 0.238141 0.179374
N3    N     N_3   0.573068 0.222646 0.004063 -0.219785
H54   H     H_    0.703318 0.198175 0.998320 0.111814
H55   H     H_    0.594225 0.270637 0.990394 0.094768
O27   O     O_3   0.594036 0.390036 0.265115 -0.614669
C75   C     C_3   0.519953 0.450156 0.245545 -0.310375
H56   H     H_    0.365090 0.447040 0.234141 0.133379
H57   H     H_    0.606610 0.468507 0.210576 0.157700
H58   H     H_    0.532054 0.486852 0.278765 0.181164
N4    N     N_3   0.004213 0.775798 0.998602 -0.222390
H59   H     H_    0.142302 0.793223 0.007019 0.096048
H60   H     H_    0.998497 0.727759 0.013351 0.084486
O28   O     O_3   0.842089 0.597187 0.747836 -0.634557
C76   C     C_3   0.642218 0.585762 0.749243 -0.257841
H61   H     H_    0.562338 0.622911 0.724772 0.144572
H62   H     H_    0.587716 0.584579 0.792085 0.141396
H63   H     H_    0.613029 0.537216 0.730807 0.172815
O29   O     O_3   0.745350 0.891327 0.764655 -0.645357
C77   C     C_3   0.551339 0.885305 0.780627 -0.255727
H64   H     H_    0.530288 0.843696 0.809542 0.148052
H65   H     H_    0.455403 0.879835 0.744416 0.141229
H66   H     H_    0.508389 0.930634 0.802266 0.179869

loop_
_geom_bond_atom_site_label_1
_geom_bond_atom_site_label_2
_geom_bond_distance
_ccdc_geom_bond_type
C25   H12   1.118808 S    
C13   C19   1.443585 A    
C71   H40   1.109189 S    
C2    C48   1.472995 S    
O28   C76   1.411134 S    
C58   C59   1.385377 A    
C62   H31   1.083987 S    
C31   H13   1.111953 S    
C42   C43   1.553305 S    
C4    C6    1.475948 S    
C70   H36   1.112326 S    
C60   C61   1.420324 A    
C73   H48   1.112692 S    
C1    O6    1.294974 A    
O14   C66   1.305621 A    
C62   C63   1.391036 A    
C55   C56   1.426434 A    
O12   V3    1.995370 S    
C71   H38   1.105819 S    
C29   C30   1.567088 S    
C28   C29   1.551138 S    
C9    H6    1.076723 S    
C14   C15   1.393175 A    
O17   V4    1.700907 S    
C10   C12   1.441868 A    
C16   C17   1.391648 A    
C72   H42   1.099556 S    
C28   H15   1.108837 S    
O12   C65   1.298040 A    
O13   C68   1.297817 A    
O5    C3    1.297915 A    
O14   V3    1.954687 S    
V2    O10   2.145617 S    
C30   O23   1.430960 S    
C61   C64   1.425412 A    
C5    C8    1.402917 A    
O17   V3    2.160161 S    
C23   H9    1.113054 S    
O11   C66   1.296036 A    
O18   C67   1.299532 A    
O25   C73   1.410791 S    
O15   C67   1.296935 A    
O8    V2    1.981480 S    
C25   C29   1.563944 S    
C7    C8    1.400661 A    
O19   V4    1.981550 S    
C77   H65   1.113305 S    
C48   C63   1.393589 A    
C17   H4    1.084862 S    
C39   C43   1.542009 S    
C69   H34   1.109220 S    
C20   H7    1.084033 S    
C72   H43   1.108838 S    
C12   C13   1.442986 A    
O29   C77   1.411321 S    
O1    V2    1.983201 S    
C50   N3    1.438316 S    
C11   C15   1.391472 A    
C37   O25   1.422561 S    
C24   H11   1.113125 S    
C27   C31   1.560478 S    
C76   H63   1.109514 S    
C23   C27   1.555162 S    
C41   C42   1.586124 S    
C77   H66   1.109352 S    
N4    H60   1.045642 S    
C35   H17   1.113668 S    
O16   V4    1.986416 S    
C48   C64   1.405290 A    
O9    C4    1.297164 A    
C56   O27   1.388726 S    
C41   C44   1.498481 S    
O13   V3    1.953288 S    
C42   H23   1.108289 S    
C76   H62   1.113208 S    
C35   H22   1.114421 S    
C75   H58   1.109569 S    
C8    N4    1.437908 S    
C38   C66   1.452298 S    
C36   H18   1.115862 S    
C53   C57   1.391881 A    
C72   H41   1.101288 S    
N1    H45   1.045577 S    
C23   H14   1.112132 S    
C56   C57   1.402852 A    
O4    C2    1.299464 A    
C51   C52   1.426628 A    
C16   O29   1.381360 S    
C40   O24   1.434608 S    
C30   H16   1.113663 S    
H8    C28   1.112433 S    
C31   O22   1.421022 S    
C13   C14   1.426166 A    
C47   C51   1.406984 A    
C25   O21   1.421239 S    
C26   C32   1.216389 T    
C20   C21   1.390221 A    
N3    H55   1.045674 S    
C7    C11   1.404732 A    
C24   C25   1.565605 S    
C37   C41   1.579071 S    
O5    V1    1.953121 S    
C17   C18   1.390730 A    
C58   H30   1.075671 S    
C65   O16   1.300362 A    
C74   H52   1.097674 S    
C35   C39   1.559855 S    
O24   C72   1.412331 S    
C37   H19   1.105219 S    
C40   O26   1.438001 S    
C19   C22   1.428336 A    
C49   C50   1.399483 A    
C6    C22   1.407749 A    
O3    C4    1.299922 A    
C7    H5    1.084369 S    
C27   C33   1.493945 S    
C73   H47   1.110943 S    
N4    H59   1.045407 S    
C64   H25   1.073973 S    
C35   C40   1.585323 S    
C14   O28   1.380889 S    
O6    V2    1.967821 S    
C36   C39   1.555128 S    
C43   H21   1.114217 S    
O9    V2    1.985209 S    
C42   N2    1.464326 S    
C39   C45   1.496746 S    
C69   H32   1.112418 S    
C49   H28   1.084419 S    
O15   V3    1.988135 S    
C51   H29   1.076659 S    
C38   C44   1.217902 T    
O2    V1    1.954758 S    
C76   H61   1.113425 S    
C57   H24   1.082886 S    
O22   C70   1.411189 S    
N2    H50   1.044527 S    
C29   C32   1.495018 S    
C71   H39   1.110422 S    
C54   C55   1.442238 A    
C30   C31   1.588334 S    
C75   H56   1.114968 S    
C34   C68   1.452533 S    
O1    C2    1.298369 A    
C74   H53   1.108616 S    
C10   C11   1.415149 A    
C12   C16   1.425246 A    
O11   V4    1.968163 S    
N1    H44   1.043712 S    
C59   H27   1.084498 S    
C3    C26   1.452639 S    
O8    C3    1.302764 A    
C60   C62   1.404879 A    
C55   C61   1.445245 A    
O23   C71   1.411724 S    
C47   C50   1.403821 A    
C36   N1    1.469613 S    
C15   H1    1.084785 S    
N3    H54   1.045490 S    
C52   C54   1.436852 A    
C70   H35   1.112258 S    
V3    O20   1.711805 S    
C1    C46   1.454265 S    
O3    V1    1.988022 S    
C63   H26   1.083582 S    
C47   C65   1.477119 S    
C18   C20   1.404182 A    
C45   C46   1.217603 T    
C24   C27   1.554502 S    
C33   C34   1.216373 T    
C18   C19   1.418212 A    
C49   C53   1.404178 A    
O18   V4    1.985248 S    
O2    C1    1.307371 A    
C36   C37   1.573311 S    
C75   H57   1.110123 S    
O7    V1    2.160067 S    
C22   H2    1.075750 S    
C73   H46   1.108997 S    
C54   C58   1.412125 A    
C59   C60   1.390995 A    
C6    C21   1.394125 A    
C21   H3    1.083656 S    
O27   C75   1.414561 S    
C5    C67   1.477547 S    
C70   H37   1.109271 S    
O4    V1    1.995238 S    
C74   H51   1.102597 S    
N2    H49   1.043201 S    
C52   C53   1.413480 A    
C77   H64   1.113403 S    
C43   H20   1.113879 S    
O26   C74   1.416385 S    
C69   H33   1.111882 S    
O19   C68   1.302847 A    
V1    O10   1.711990 S    
C40   C41   1.612159 S    
V4    O20   2.145639 S    
C9    C10   1.424849 A    
C24   H10   1.112476 S    
O7    V2    1.701956 S    
C23   C28   1.556085 S    
O21   C69   1.410981 S    
C5    C9    1.406875 A    
