data_mof_unit_8305.cif
_audit_creation_date              2013-03-05T16:41:46-0500
_audit_creation_method            fapswitch 2.2
_symmetry_space_group_name_H-M    P1
_symmetry_Int_Tables_number       1
_space_group_crystal_system       triclinic
_cell_length_a                    10.636915
_cell_length_b                    10.648928
_cell_length_c                    9.961621
_cell_angle_alpha                 89.24515
_cell_angle_beta                  86.291022
_cell_angle_gamma                 91.141596
_cell_volume                      1125.66499276

loop_
_atom_site_label
_atom_site_type_symbol
_atom_site_description
_atom_site_fract_x
_atom_site_fract_y
_atom_site_fract_z
_atom_type_partial_charge
O1    O     O_R   0.500020 0.316790 0.614690 -0.560511
O2    O     O_R   0.500000 0.316760 0.385350 -0.588105
C1    C     C_R   0.516426 0.261484 0.499905 0.941320
O3    O     O_R   0.316770 0.500020 0.614690 -0.634638
O4    O     O_R   0.316760 0.499980 0.385350 -0.560633
C2    C     C_R   0.260684 0.513826 0.504414 0.951549
Zn1   Zn    Zn3+2 0.500010 0.500020 0.653130 1.004104
Zn2   Zn    Zn3+2 0.499990 0.499980 0.346870 1.064564
O5    O     O_R   0.500000 0.683240 0.614650 -0.620265
O6    O     O_R   0.499980 0.683210 0.385310 -0.572555
O7    O     O_R   0.683240 0.500020 0.614650 -0.646475
O8    O     O_R   0.683230 0.499980 0.385310 -0.615110
C3    C     C_R   0.506570 0.740389 0.498131 0.908453
C4    C     C_R   0.740009 0.491975 0.496373 0.845268
C5    C     C_R   0.086210 0.500687 0.761152 -0.178717
H1    H     H_    0.165988 0.558745 0.785215 0.192919
C6    C     C_R   0.005231 0.453980 0.867032 0.286205
C7    C     C_R   0.902163 0.378200 0.840718 -0.142385
H2    H     H_    0.842317 0.336828 0.922328 0.201627
C8    C     C_R   0.867187 0.368949 0.709311 -0.112483
H3    H     H_    0.781035 0.317584 0.692400 0.188072
C9    C     C_R   0.932421 0.441320 0.605858 0.102955
C10   C     C_R   0.052662 0.487771 0.627204 0.024179
C11   C     C_R   0.126900 0.535053 0.515196 -0.201014
C12   C     C_R   0.069367 0.582232 0.403080 0.322647
H4    H     H_    0.895444 0.602113 0.311039 0.208112
C13   C     C_R   0.942429 0.558164 0.392211 -0.159488
C14   C     C_R   0.874678 0.485333 0.491084 -0.132933
C15   C     C_R   0.561603 0.063722 0.618644 0.220806
C16   C     C_R   0.553519 0.131653 0.499028 -0.203615
C17   C     C_R   0.569290 0.070199 0.377167 -0.126872
H5    H     H_    0.589366 0.122138 0.285718 0.256377
C18   C     C_R   0.554382 0.941614 0.372059 0.319313
C19   C     C_R   0.527775 0.873861 0.494158 -0.195742
C20   C     C_R   0.541559 0.934022 0.616775 0.082442
C21   C     C_3   0.646885 0.906414 0.703284 -0.454426
C22   C     C_3   0.680356 0.043647 0.692195 0.055708
H6    H     H_    0.611380 0.875992 0.806319 0.228162
H7    H     H_    0.718698 0.843699 0.655409 0.224382
H8    H     H_    0.681497 0.088181 0.791946 0.217457
C23   C     C_R   0.399124 0.453001 0.078951 0.135567
N1    N     N_R   0.499160 0.499140 0.142800 -0.092912
C24   C     C_R   0.596429 0.553507 0.064107 0.004709
H9    H     H_    0.675762 0.594844 0.111413 0.164755
C25   C     C_R   0.596766 0.552970 0.920879 -0.056717
H10   H     H_    0.676385 0.594073 0.861759 0.150414
N2    N     N_R   0.499160 0.499180 0.857150 -0.083593
C26   C     C_R   0.396026 0.458121 0.937358 0.029867
C27   C     C_3   0.327966 0.332541 0.937441 0.002746
C28   C     C_3   0.346346 0.321130 0.088175 0.354325
H11   H     H_    0.227854 0.341027 0.914841 0.145661
Br1   Br    Br    0.156190 0.699257 0.278639 -0.336696
Br2   Br    Br    0.836229 0.072583 0.580229 -0.456572
N3    N     N_R   0.391501 0.236836 0.856328 0.270645
O9    O     O_R   0.325020 0.157067 0.791213 -0.343995
O10   O     O_R   0.513007 0.225833 0.854246 -0.378672
Br3   Br    Br    0.192543 0.299693 0.203012 -0.337801
N4    N     N_R   0.439278 0.227299 0.119738 0.236071
O11   O     O_R   0.559511 0.254349 0.105624 -0.396768
O12   O     O_R   0.403000 0.110034 0.131112 -0.291034
Br4   Br    Br    0.021165 0.511158 0.044052 -0.476958
Br5   Br    Br    0.576667 0.870801 0.195069 -0.383701

loop_
_geom_bond_atom_site_label_1
_geom_bond_atom_site_label_2
_geom_bond_distance
_ccdc_geom_bond_type
O4    Zn2   1.961858 S    
C10   C11   1.406204 A    
C17   C18   1.377298 A    
C5    C6    1.397631 A    
C15   C16   1.394120 A    
C1    C16   1.445283 S    
C23   N1    1.361312 A    
C15   C20   1.393862 A    
C17   H5    1.066881 S    
Zn2   O8    2.010526 S    
C2    C11   1.442700 S    
C4    C14   1.433211 S    
C21   H6    1.112331 S    
C6    C7    1.389021 A    
O8    C4    1.296953 A    
C12   Br1   1.925598 S    
C22   Br2   1.954302 S    
C3    C19   1.434296 S    
C9    C14   1.411506 A    
C25   H10   1.081466 S    
C11   C12   1.400066 A    
Zn1   O7    1.961857 S    
C24   C25   1.426646 A    
H4    C13   1.083641 S    
C16   C17   1.388880 A    
O3    Zn1   2.010526 S    
C5    C10   1.411104 A    
C21   C22   1.498176 S    
C23   C26   1.413368 A    
Zn2   N1    2.033595 S    
C18   C19   1.415715 A    
C22   H8    1.107342 S    
C7    C8    1.388016 A    
C25   N2    1.371214 A    
C24   H9    1.081678 S    
O4    C2    1.304172 A    
C19   C20   1.401412 A    
O7    C4    1.293396 A    
N3    O10   1.298930 A    
Zn2   O6    1.993368 S    
C12   C13   1.380721 A    
N1    C24   1.370923 A    
N4    O12   1.300975 A    
C27   N3    1.458352 S    
C28   N4    1.464822 S    
N2    C26   1.375253 A    
Zn1   O5    1.983436 S    
C23   C28   1.501383 S    
C8    H3    1.081563 S    
O3    C2    1.291638 A    
C7    H2    1.082905 S    
C27   H11   1.107763 S    
C15   C22   1.518058 S    
C13   C14   1.398836 A    
C27   C28   1.530290 S    
O5    C3    1.300658 A    
N3    O9    1.300886 A    
C26   C27   1.507900 S    
O1    Zn1   1.993367 S    
O2    C1    1.300553 A    
C6    Br4   1.889950 S    
N4    O11   1.303588 A    
C9    C10   1.392284 A    
C28   Br3   1.942506 S    
O6    C3    1.290469 A    
C21   H7    1.112901 S    
O2    Zn2   1.983436 S    
C5    H1    1.081259 S    
C8    C9    1.415176 A    
C18   Br5   1.929109 S    
O1    C1    1.296456 A    
C20   C21   1.488490 S    
Zn1   N2    2.031706 S    
