data_mof_unit_17664.cif
_audit_creation_date              2012-12-11T14:17:43-0500
_audit_creation_method            fapswitch 2.2
_symmetry_space_group_name_H-M    P1
_symmetry_Int_Tables_number       1
_space_group_crystal_system       triclinic
_cell_length_a                    6.966538
_cell_length_b                    13.900208
_cell_length_c                    20.307467
_cell_angle_alpha                 102.188
_cell_angle_beta                  89.887823
_cell_angle_gamma                 90.869631
_cell_volume                      1921.95289505

loop_
_atom_site_label
_atom_site_type_symbol
_atom_type_description
_atom_site_fract_x
_atom_site_fract_y
_atom_site_fract_z
_atom_type_partial_charge
O1    O     O_R   0.506860 0.599390 0.449240 -0.549815
O2    O     O_R   0.180220 0.594600 0.586780 -0.522416
O3    O     O_R   0.004500 0.400610 0.550760 -0.525217
C1    C     C_R   0.347442 0.615740 0.613727 0.809452
O4    O     O_R   0.177490 0.611290 0.451970 -0.544970
O5    O     O_R   0.001750 0.417420 0.414990 -0.576778
C2    C     C_R   0.346819 0.636784 0.434946 0.739935
O6    O     O_R   0.509610 0.582580 0.585010 -0.510883
O7    O     O_3   0.337420 0.436370 0.488020 -0.384442
V1    V     V_3+5 0.064680 0.511800 0.502220 1.601665
O8    O     O_R   0.671710 0.405400 0.413220 -0.520985
C3    C     C_R   0.840000 0.384541 0.386662 0.642785
O9    O     O_R   0.674440 0.388710 0.548030 -0.522124
C4    C     C_R   0.842801 0.362632 0.564934 0.841011
V2    V     V_3+5 0.564010 0.488200 0.497780 1.640818
O10   O     O_3   0.841140 0.563630 0.511980 -0.363272
C5    C     C_R   0.834958 0.111925 0.608991 -0.137355
H1    H     H_    0.820582 0.035866 0.583346 0.210164
C6    C     C_R   0.850136 0.283472 0.602831 -0.180783
C7    C     C_R   0.860033 0.306547 0.926963 -0.173090
C8    C     C_R   0.836325 0.382790 0.893146 -0.028975
C9    C     C_R   0.816805 0.360669 0.821776 -0.151141
C10   C     C_R   0.860057 0.263517 0.784498 0.027588
C11   C     C_R   0.880765 0.187415 0.821046 0.050583
C12   C     C_R   0.873270 0.237445 0.712201 -0.010474
C13   C     C_R   0.868459 0.136958 0.678968 -0.002339
C14   C     C_R   0.908512 0.064622 0.715851 -0.010889
C15   C     C_R   0.916219 0.090731 0.786115 -0.186900
C16   C     C_R   0.906365 0.306347 0.671118 0.320348
C17   C     C_R   0.808965 0.184421 0.571580 -0.117979
C18   C     C_R   0.868964 0.209610 0.892169 -0.085334
H2    H     H_    0.863461 0.322437 0.981663 0.148541
H3    H     H_    0.949630 0.034581 0.813703 0.136936
C19   C     C_2   0.968664 0.325400 0.272977 -0.228635
C20   C     C_2   0.848864 0.311558 0.322486 0.337695
H4    H     H_    0.057953 0.391705 0.280885 0.105863
C21   C     C_2   0.006970 0.247868 0.211614 -0.126975
C22   C     C_2   0.863138 0.211662 0.167144 0.293299
C23   C     C_2   0.192779 0.779566 0.787013 -0.182877
C24   C     C_2   0.343549 0.791240 0.830879 -0.277645
C25   C     C_2   0.194445 0.705225 0.721187 0.351929
C26   C     C_2   0.350014 0.689330 0.678779 0.187145
C27   C     C_R   0.296842 0.883417 0.390989 -0.153633
H5    H     H_    0.261226 0.956547 0.417798 0.190654
C28   C     C_R   0.354412 0.715234 0.397199 -0.111457
C29   C     C_R   0.342885 0.687829 0.071821 0.328460
C30   C     C_R   0.346958 0.612034 0.108177 -0.048248
C31   C     C_R   0.356791 0.636613 0.178688 -0.262525
C32   C     C_R   0.355532 0.735488 0.214873 0.090006
C33   C     C_R   0.346198 0.811070 0.177602 -0.012027
C34   C     C_R   0.353819 0.761073 0.286982 0.104617
C35   C     C_R   0.319424 0.860286 0.320248 -0.019664
C36   C     C_R   0.299779 0.933399 0.282059 -0.000493
C37   C     C_R   0.320147 0.908945 0.212100 -0.182722
C38   C     C_R   0.378082 0.690477 0.327318 -0.271890
C39   C     C_R   0.312622 0.811809 0.429023 0.380297
C40   C     C_R   0.352904 0.786875 0.106121 -0.161239
H6    H     H_    0.411787 0.614875 0.306095 0.123779
H7    H     H_    0.357170 0.576171 0.204183 0.169972
H8    H     H_    0.306858 0.967298 0.184520 0.131328
O11   O     O_R   0.203230 0.917310 0.915020 -0.561486
O12   O     O_R   0.535500 0.888690 0.048040 -0.539120
O13   O     O_R   0.711080 0.082610 0.085000 -0.510929
C41   C     C_R   0.365763 0.864414 0.066485 0.754615
O14   O     O_R   0.532630 0.905370 0.913230 -0.499228
O15   O     O_R   0.708190 0.099410 0.949230 -0.539001
C42   C     C_R   0.361256 0.877761 0.889259 0.726160
O16   O     O_R   0.206120 0.900510 0.050790 -0.540460
O17   O     O_3   0.375360 0.063570 0.011990 -0.358136
V3    V     V_3+5 0.648170 0.988200 0.997780 1.635498
O18   O     O_R   0.038240 0.111390 0.951940 -0.548617
C43   C     C_R   0.871512 0.133571 0.932258 0.682839
O19   O     O_R   0.041120 0.094710 0.086750 -0.547021
C44   C     C_R   0.873217 0.123721 0.109944 0.670970
V4    V     V_3+5 0.148810 0.011930 0.002180 1.555986
O20   O     O_3   0.871750 0.936430 0.988010 -0.355559
C45   C     C_2   0.755284 0.152307 0.499197 0.818687
O21   O     O_2   0.668406 0.207101 0.470448 -0.528720
O22   O     O_R   0.799616 0.057353 0.464154 -0.644026
H9    H     H_    0.754364 0.043592 0.415589 0.349057
Cl1   Cl    Cl    0.719615 0.200163 0.316793 -0.523316
C46   C     C_2   0.212645 0.224295 0.199367 0.887137
O23   O     O_2   0.278724 0.214524 0.142842 -0.498266
O24   O     O_R   0.338693 0.223970 0.252669 -0.578062
H10   H     H_    0.277153 0.242146 0.298667 0.290061
Cl2   Cl    Cl    0.661045 0.286113 0.167907 -0.547839
C47   C     C_2   0.000027 0.811847 0.813670 0.965889
O25   O     O_2   0.892943 0.852634 0.781446 -0.505768
O26   O     O_R   0.933805 0.789363 0.873666 -0.587349
H11   H     H_    0.021747 0.744417 0.892562 0.309280
C48   C     C_2   0.450419 0.701453 0.835978 0.981080
O27   O     O_2   0.603687 0.708286 0.865258 -0.478162
O28   O     O_R   0.363950 0.608727 0.813877 -0.612617
H12   H     H_    0.431844 0.554924 0.830745 0.371648
Cl3   Cl    Cl    0.978254 0.635369 0.702561 -0.462883
Cl4   Cl    Cl    0.555397 0.765760 0.694035 -0.495285
Cl5   Cl    Cl    0.277555 0.845422 0.516880 -0.603011
C49   C     C_2   0.246862 0.035398 0.313431 0.809450
O29   O     O_2   0.104977 0.071133 0.293323 -0.554535
O30   O     O_R   0.356598 0.089943 0.366330 -0.623160
H13   H     H_    0.298951 0.156182 0.386380 0.318994
C50   C     C_2   0.970224 0.964964 0.682021 0.903741
O31   O     O_2   0.132093 0.938370 0.692068 -0.522760
O32   O     O_R   0.844990 0.901385 0.639275 -0.602332
H14   H     H_    0.905485 0.835788 0.619286 0.356114
Cl6   Cl    Cl    0.300966 0.660991 0.983974 -0.628045
C51   C     C_2   0.337258 0.505966 0.074467 0.920125
O33   O     O_2   0.399826 0.477862 0.017500 -0.509859
O34   O     O_R   0.258661 0.437332 0.108695 -0.650642
H15   H     H_    0.257901 0.367912 0.080362 0.327788
Cl7   Cl    Cl    0.076386 0.402476 0.697654 -0.550827
C52   C     C_2   0.730438 0.434880 0.788139 0.915223
O35   O     O_2   0.797319 0.518314 0.798073 -0.438669
O36   O     O_R   0.574071 0.410573 0.744335 -0.627861
H16   H     H_    0.522207 0.341511 0.742277 0.278484
C53   C     C_2   0.826924 0.483429 0.935788 0.910262
O37   O     O_2   0.940579 0.508126 0.982344 -0.525127
O38   O     O_R   0.684557 0.548212 0.925910 -0.613587
H17   H     H_    0.695898 0.613600 0.959196 0.354494

loop_
_geom_bond_atom_site_label_1
_geom_bond_atom_site_label_2
_ccdc_geom_bond_type
C47   O25   D    
V4    O20   S    
O28   H12   S    
C19   C21   S    
O19   V4    S    
C25   C26   D    
C23   C47   S    
C1    O6    A    
C52   O36   S    
O36   H16   S    
C20   Cl1   S    
C23   C25   S    
C37   H8    S    
C45   O21   D    
O11   V4    S    
O16   V4    S    
C13   C14   A    
C33   C37   A    
C22   Cl2   S    
C26   Cl4   S    
C5    C13   A    
C41   O16   A    
O17   V3    S    
O5    C3    A    
C27   C35   A    
V2    O10   S    
C53   O37   D    
O12   V3    S    
C19   C20   D    
O19   C44   A    
C32   C33   A    
O38   H17   S    
O32   H14   S    
O12   C41   A    
C17   C45   S    
O8    V2    S    
O15   C43   A    
C28   C39   A    
C32   C34   A    
C24   C42   S    
C51   O33   D    
O1    V2    S    
O7    V1    S    
C19   H4    S    
O9    C4    A    
C5    C17   A    
C51   O34   S    
C25   Cl3   S    
C39   Cl5   S    
C8    C53   S    
C52   O35   D    
C7    H2    S    
C45   O22   S    
C12   C16   A    
C34   C35   A    
C30   C51   S    
O24   H10   S    
C23   C24   D    
O4    C2    A    
O14   C42   A    
C12   C13   A    
C36   C37   A    
O2    C1    A    
C27   H5    S    
C21   C22   D    
C48   O28   S    
O11   C42   A    
C30   C31   A    
O13   V3    S    
C10   C11   A    
C5    H1    S    
C31   H7    S    
C3    C20   S    
C50   O32   S    
O3    C4    A    
C31   C32   A    
C15   H3    S    
C46   O23   D    
O6    V2    S    
C46   O24   S    
C47   O26   S    
C29   C40   A    
V3    O20   S    
C21   C46   S    
O2    V1    S    
C2    C28   S    
C48   O27   D    
C35   C36   A    
C40   C41   S    
C22   C44   S    
C29   C30   A    
C18   C43   S    
O1    C2    A    
C33   C40   A    
C4    C6    S    
C16   Cl7   S    
C11   C15   A    
O5    V1    S    
O8    C3    A    
O13   C44   A    
C36   C49   S    
C14   C50   S    
C49   O30   S    
O9    V2    S    
O7    V2    S    
C11   C18   A    
O18   C43   A    
O3    V1    S    
V1    O10   S    
O34   H15   S    
O18   V4    S    
O15   V3    S    
C1    C26   S    
C29   Cl6   S    
O30   H13   S    
C53   O38   S    
O17   V4    S    
C34   C38   A    
C10   C12   A    
C24   C48   S    
C50   O31   D    
O22   H9    S    
C27   C39   A    
O4    V1    S    
C7    C8    A    
C28   C38   A    
C49   O29   D    
C38   H6    S    
C14   C15   A    
C9    C10   A    
O26   H11   S    
C8    C9    A    
C6    C17   A    
O14   V3    S    
C9    C52   S    
C7    C18   A    
C6    C16   A    
