data_mof_unit_30733.cif
_audit_creation_date              2012-12-10T17:23:44-0500
_audit_creation_method            fapswitch 2.2
_symmetry_space_group_name_H-M    P1
_symmetry_Int_Tables_number       1
_space_group_crystal_system       triclinic
_cell_length_a                    9.618049
_cell_length_b                    10.849661
_cell_length_c                    17.263032
_cell_angle_alpha                 94.828912
_cell_angle_beta                  87.158118
_cell_angle_gamma                 91.184568
_cell_volume                      1792.59355502

loop_
_atom_site_label
_atom_site_type_symbol
_atom_type_description
_atom_site_fract_x
_atom_site_fract_y
_atom_site_fract_z
_atom_type_partial_charge
C1    C     C_R   0.501697 0.736544 0.496302 0.791980
C2    C     C_R   0.355195 0.483786 0.776374 -0.288643
C3    C     C_R   0.402328 0.487132 0.145092 -0.044238
C4    C     C_R   0.399520 0.485287 0.225239 -0.229901
C5    C     C_R   0.649627 0.519150 0.223490 -0.189450
C6    C     C_R   0.651598 0.524771 0.143027 -0.152984
C7    C     C_R   0.527179 0.512311 0.104050 0.225165
C8    C     C_2   0.440489 0.581976 0.981760 0.436095
C9    C     C_2   0.530092 0.517438 0.019638 -0.399000
C10   C     C_R   0.522788 0.501246 0.265240 -0.045273
C11   C     C_R   0.307632 0.856997 0.402678 -0.145823
C12   C     C_R   0.483224 0.504669 0.650085 0.824061
C13   C     C_R   0.188507 0.909632 0.378174 -0.113741
C14   C     C_R   0.154686 0.029479 0.405885 -0.157120
C15   C     C_R   0.246347 0.100256 0.452205 -0.198588
C16   C     C_R   0.376405 0.053538 0.470304 0.110297
C17   C     C_R   0.396542 0.925510 0.454056 0.083365
C18   C     C_R   0.504033 0.869221 0.490290 -0.115621
C19   C     C_R   0.604642 0.941185 0.529604 -0.199595
C20   C     C_R   0.598253 0.068805 0.534482 -0.237028
C21   C     C_R   0.486816 0.126986 0.504215 -0.119140
C22   C     C_R   0.874151 0.353264 0.375490 0.476629
C23   C     C_R   0.496657 0.262095 0.502043 0.804031
C24   C     C_R   0.959346 0.327281 0.307749 -0.283711
C25   C     C_R   0.100256 0.320118 0.313745 -0.305300
C26   C     C_R   0.157399 0.359939 0.383212 -0.175548
C27   C     C_R   0.080200 0.429799 0.442219 0.149382
C28   C     C_R   0.930620 0.428314 0.440762 0.113193
C29   C     C_R   0.922926 0.569972 0.553763 -0.083880
C30   C     C_R   0.070482 0.569268 0.554106 -0.056929
C31   C     C_R   0.516952 0.500082 0.350052 0.804233
C32   C     C_R   0.476264 0.521452 0.735378 -0.107594
C33   C     C_R   0.586692 0.580540 0.776061 0.459276
C34   C     C_R   0.569474 0.606123 0.856920 -0.260462
C35   C     C_R   0.449296 0.566841 0.896980 0.053659
C36   C     C_R   0.342172 0.505763 0.856864 -0.133018
Cu1   Cu    Cu3+1 0.359340 0.500010 0.500010 0.932030
Cu2   Cu    Cu3+1 0.640660 0.499990 0.499990 0.991025
H1    H     H_    0.749555 0.540396 0.111325 0.149599
H2    H     H_    0.687962 0.898558 0.557257 0.166704
H3    H     H_    0.329733 0.762757 0.380721 0.158798
H4    H     H_    0.119620 0.855703 0.340275 0.147135
H5    H     H_    0.056971 0.067838 0.391694 0.137034
H6    H     H_    0.207164 0.186952 0.477424 0.173395
H7    H     H_    0.680850 0.122542 0.562379 0.161465
H8    H     H_    0.865327 0.628848 0.597063 0.166574
H9    H     H_    0.914906 0.291591 0.253723 0.165399
H10   H     H_    0.300494 0.471618 0.255678 0.174361
H11   H     H_    0.164260 0.277054 0.266016 0.178745
H12   H     H_    0.262362 0.334008 0.388291 0.209316
H13   H     H_    0.122635 0.626470 0.598540 0.141010
H14   H     H_    0.746444 0.530703 0.252950 0.162920
H15   H     H_    0.609503 0.462869 0.986208 0.133098
H16   H     H_    0.249348 0.474188 0.887971 0.158094
H17   H     H_    0.306870 0.469157 0.115261 0.169590
H18   H     H_    0.270512 0.437145 0.746074 0.168186
H19   H     H_    0.649541 0.656610 0.888980 0.146542
N1    N     N_R   0.852190 0.498790 0.499250 -0.189440
N2    N     N_R   0.148060 0.498710 0.499220 -0.188211
O1    O     O_R   0.381190 0.680360 0.500010 -0.579735
O2    O     O_R   0.618760 0.680340 0.500000 -0.582008
O3    O     O_R   0.367440 0.500030 0.613600 -0.593741
O4    O     O_R   0.605010 0.500010 0.613590 -0.548109
O5    O     O_R   0.381240 0.319660 0.500000 -0.624610
O6    O     O_R   0.618810 0.319640 0.499990 -0.527750
O7    O     O_R   0.394990 0.499990 0.386410 -0.616288
O8    O     O_R   0.632560 0.499970 0.386400 -0.534970
O9    O     O_3   0.701593 0.626203 0.734899 -0.609180
C37   C     C_3   0.829195 0.594273 0.765240 0.034393
H20   H     H_    0.889258 0.538635 0.718630 0.157904
H21   H     H_    0.818865 0.535536 0.815324 0.122697
C38   C     C_3   0.912004 0.712602 0.787916 -0.374943
H22   H     H_    0.923392 0.769375 0.737204 0.223607
H23   H     H_    0.854817 0.767443 0.836131 0.227911
C39   C     C_3   0.056375 0.683936 0.813608 -0.840180
H24   H     H_    0.048066 0.627238 0.864349 0.271934
H25   H     H_    0.112808 0.771572 0.830639 0.280419
H26   H     H_    0.116741 0.633410 0.764898 0.247967
O10   O     O_3   0.740692 0.303832 0.375958 -0.568410
C40   C     C_3   0.734132 0.175122 0.351619 0.020125
H27   H     H_    0.722224 0.122859 0.403750 0.170993
H28   H     H_    0.827753 0.135896 0.319013 0.124705
C41   C     C_3   0.608039 0.149708 0.301718 -0.350368
H29   H     H_    0.511823 0.180182 0.335598 0.211682
H30   H     H_    0.619628 0.203834 0.249822 0.221583
C42   C     C_3   0.593537 0.012570 0.274878 -0.847415
H31   H     H_    0.684034 0.982751 0.235817 0.256546
H32   H     H_    0.496990 0.996388 0.242536 0.275896
H33   H     H_    0.587666 0.955949 0.325593 0.252848
S1    S     S_3+6 0.320232 0.690452 0.027081 -0.015832
O11   O     O_2   0.183448 0.626032 0.043602 -0.344715
O12   O     O_2   0.374226 0.750289 0.101659 -0.283006
O13   O     O_3   0.295515 0.800013 0.966016 -0.532879
H34   H     H_    0.218532 0.850549 0.991077 0.370782

loop_
_geom_bond_atom_site_label_1
_geom_bond_atom_site_label_2
_ccdc_geom_bond_type
C8    C9    D    
C31   O7    A    
C30   H13   S    
C16   C21   A    
C35   C36   A    
Cu1   O3    S    
C31   O8    A    
C1    C18   S    
O13   H34   S    
Cu1   Cu2   S    
C15   H6    S    
C34   C35   A    
C3    C7    A    
C26   H12   S    
C5    C6    A    
C42   H32   S    
C15   C16   A    
C2    C32   A    
C18   C19   A    
C37   H21   S    
Cu2   N1    S    
C3    H17   S    
C10   C31   S    
C19   C20   A    
C16   C17   A    
C34   H19   S    
C5    H14   S    
C20   H7    S    
Cu2   O2    S    
C22   C28   A    
C13   C14   A    
C12   C32   S    
C38   C39   S    
C13   H4    S    
C33   C34   A    
C24   C25   A    
C40   H28   S    
C1    O1    A    
C12   O4    A    
C42   H31   S    
C40   H27   S    
C25   C26   A    
C8    C35   S    
C37   C38   S    
C39   H24   S    
C29   C30   A    
C12   O3    A    
S1    O12   D    
C41   H29   S    
Cu2   O6    S    
C30   N2    A    
C17   C18   A    
C26   C27   A    
Cu2   O8    S    
C39   H25   S    
Cu1   N2    S    
C38   H23   S    
C23   O5    A    
C41   H30   S    
C21   C23   S    
C22   C24   A    
C9    H15   S    
C4    C10   A    
C3    C4    A    
Cu1   O5    S    
C29   N1    A    
S1    O13   S    
C40   C41   S    
Cu2   O4    S    
C4    H10   S    
C2    C36   A    
C7    C9    S    
C11   C17   A    
C14   C15   A    
C24   H9    S    
O9    C37   S    
C38   H22   S    
C42   H33   S    
C1    O2    A    
C22   O10   S    
C6    C7    A    
C28   N1    A    
C29   H8    S    
C32   C33   A    
C23   O6    A    
C5    C10   A    
C2    H18   S    
C11   C13   A    
S1    O11   D    
C11   H3    S    
Cu1   O7    S    
C37   H20   S    
C39   H26   S    
C25   H11   S    
Cu1   O1    S    
C36   H16   S    
C19   H2    S    
O10   C40   S    
C41   C42   S    
C8    S1    S    
C20   C21   A    
C27   C28   A    
C6    H1    S    
C27   N2    A    
C33   O9    S    
C14   H5    S    
