data_mof_unit_54482.cif
_audit_creation_date              2012-12-10T16:49:29-0500
_audit_creation_method            fapswitch 2.2
_symmetry_space_group_name_H-M    P1
_symmetry_Int_Tables_number       1
_space_group_crystal_system       triclinic
_cell_length_a                    7.863539
_cell_length_b                    8.551718
_cell_length_c                    12.800584
_cell_angle_alpha                 89.161642
_cell_angle_beta                  87.940032
_cell_angle_gamma                 93.552971
_cell_volume                      858.465514037

loop_
_atom_site_label
_atom_site_type_symbol
_atom_type_description
_atom_site_fract_x
_atom_site_fract_y
_atom_site_fract_z
_atom_type_partial_charge
C1    C     C_R   0.455115 0.205769 0.497452 0.945978
C2    C     C_R   0.683298 0.597417 0.145159 -0.269810
C3    C     C_R   0.558224 0.593933 0.870465 0.130593
C4    C     C_R   0.441776 0.406080 0.129533 0.130595
C5    C     C_R   0.561628 0.556532 0.977268 0.122351
C6    C     C_R   0.438370 0.443488 0.022732 0.122348
C7    C     C_2   0.431743 0.042019 0.495837 -0.381448
C8    C     C_2   0.568256 0.957981 0.504163 -0.381449
C9    C     C_3   0.325491 0.273564 0.177983 -0.906097
C10   C     C_3   0.674512 0.726438 0.822012 -0.906089
C11   C     C_3   0.006439 0.690550 0.432600 -0.500268
C12   C     C_R   0.544885 0.794231 0.502548 0.945974
C13   C     C_3   0.993561 0.309453 0.567403 -0.500274
C14   C     C_R   0.466243 0.505706 0.698981 0.873026
C15   C     C_R   0.533757 0.494295 0.301019 0.873032
C16   C     C_R   0.557578 0.493166 0.190084 -0.039237
C17   C     C_R   0.442421 0.506846 0.809916 -0.039228
C18   C     C_R   0.313094 0.372289 0.960679 -0.210305
C19   C     C_R   0.686901 0.627740 0.039322 -0.210297
C20   C     C_R   0.316697 0.402611 0.854843 -0.269822
H1    H     H_    0.773656 0.661842 0.192978 0.154497
H2    H     H_    0.640345 0.758783 0.741590 0.243158
H3    H     H_    0.663360 0.834282 0.868406 0.229996
H4    H     H_    0.808734 0.692846 0.819915 0.249784
H5    H     H_    0.114331 0.744567 0.383753 0.176627
H6    H     H_    0.898103 0.676282 0.380480 0.207832
H7    H     H_    0.983114 0.770763 0.498261 0.185718
H8    H     H_    0.885671 0.255436 0.616252 0.176626
H9    H     H_    0.016884 0.229238 0.501745 0.185719
H10   H     H_    0.101895 0.323724 0.619521 0.207834
H11   H     H_    0.226336 0.338195 0.807025 0.154505
H12   H     H_    0.214100 0.289603 0.992178 0.166253
H13   H     H_    0.785895 0.710435 0.007825 0.166244
H14   H     H_    0.302678 0.991228 0.487769 0.171876
H15   H     H_    0.697322 0.008772 0.512231 0.171876
H16   H     H_    0.359665 0.241210 0.258400 0.243155
H17   H     H_    0.191266 0.307150 0.180087 0.249784
H18   H     H_    0.336645 0.165724 0.131587 0.229998
N1    N     N_2   0.054030 0.541640 0.471970 0.000729
N2    N     N_2   0.945970 0.458360 0.528030 0.000728
O1    O     O_R   0.609680 0.261530 0.506880 -0.610941
O2    O     O_R   0.390320 0.738470 0.493120 -0.610942
O3    O     O_R   0.323330 0.288220 0.488910 -0.646513
O4    O     O_R   0.676670 0.711780 0.511090 -0.646517
O5    O     O_R   0.619510 0.488830 0.661140 -0.600810
O6    O     O_R   0.380490 0.511170 0.338860 -0.600808
O7    O     O_R   0.333160 0.515520 0.643180 -0.632659
O8    O     O_R   0.666840 0.484480 0.356820 -0.632657
Zn1   Zn    Zn3+2 0.691200 0.482180 0.511990 0.939667
Zn2   Zn    Zn3+2 0.308800 0.517820 0.488010 0.939668

loop_
_geom_bond_atom_site_label_1
_geom_bond_atom_site_label_2
_ccdc_geom_bond_type
O4    Zn1   S    
C4    C16   A    
C9    H16   S    
O3    Zn2   S    
C14   O7    A    
C5    C19   A    
O5    Zn1   S    
C10   H3    S    
O7    Zn2   S    
C2    C16   A    
O6    Zn2   S    
C15   O6    A    
C11   H7    S    
C8    C12   S    
N1    Zn2   S    
C2    H1    S    
C9    H17   S    
C2    C19   A    
C7    C8    D    
C13   H8    S    
C3    C10   S    
C10   H2    S    
C11   N1    S    
C14   C17   S    
C15   O8    A    
O2    Zn2   S    
O1    Zn1   S    
O8    Zn1   S    
C3    C17   A    
C14   O5    A    
C18   C20   A    
C5    C6    A    
C6    C18   A    
C7    H14   S    
C18   H12   S    
C11   H5    S    
N2    Zn1   S    
C20   H11   S    
C13   H10   S    
C17   C20   A    
C4    C6    A    
C19   H13   S    
C12   O4    A    
C1    O1    A    
N1    N2    D    
C9    H18   S    
C13   N2    S    
C12   O2    A    
C11   H6    S    
C10   H4    S    
C4    C9    S    
C1    C7    S    
C1    O3    A    
C15   C16   S    
C13   H9    S    
C3    C5    A    
C8    H15   S    
