data_mof_unit_62988.cif
_audit_creation_date              2012-12-10T17:51:40-0500
_audit_creation_method            fapswitch 2.2
_symmetry_space_group_name_H-M    P1
_symmetry_Int_Tables_number       1
_space_group_crystal_system       triclinic
_cell_length_a                    18.714144
_cell_length_b                    18.784716
_cell_length_c                    18.687197
_cell_angle_alpha                 109.253594
_cell_angle_beta                  109.399614
_cell_angle_gamma                 109.637386
_cell_volume                      5064.668383

loop_
_atom_site_label
_atom_site_type_symbol
_atom_type_description
_atom_site_fract_x
_atom_site_fract_y
_atom_site_fract_z
_atom_type_partial_charge
C1    C     C_R   0.620255 0.120286 0.000032 0.862741
C2    C     C_R   0.452614 0.727879 0.661051 0.471941
C3    C     C_R   0.451510 0.790525 0.725521 -0.297222
C4    C     C_R   0.498410 0.117697 0.120180 0.930021
C5    C     C_R   0.499189 0.813882 0.813212 -0.086596
C6    C     C_R   0.320777 0.821964 0.080384 0.494764
C7    C     C_R   0.256329 0.756776 0.078788 -0.354891
C8    C     C_R   0.185495 0.685989 0.998738 -0.187155
C9    C     C_R   0.177961 0.678424 0.919041 0.482805
C10   C     C_R   0.241790 0.744725 0.920731 -0.364473
C11   C     C_R   0.313562 0.814591 0.000781 -0.194056
C12   C     C_R   0.822663 0.243483 0.001581 -0.140940
C13   C     C_R   0.620257 0.502461 0.622581 0.845481
C14   C     C_R   0.498616 0.383847 0.381592 0.971724
C15   C     C_R   0.379884 0.502100 0.381791 0.962503
C16   C     C_R   0.379815 0.880149 0.000338 0.923327
C17   C     C_R   0.499642 0.622195 0.622035 0.934905
C18   C     C_R   0.879764 0.500690 0.880191 0.869631
C19   C     C_R   0.879575 0.379900 0.000013 0.905732
C20   C     C_R   0.118239 0.497693 0.119563 0.928511
C21   C     C_R   0.119718 0.620079 0.999312 0.955126
C22   C     C_R   0.758486 0.581013 0.759081 -0.187463
C23   C     C_R   0.813779 0.314125 0.000623 0.005745
C24   C     C_R   0.821884 0.580555 0.823077 -0.163968
C25   C     C_R   0.813950 0.501012 0.814096 -0.002860
C26   C     C_R   0.742711 0.421896 0.742277 -0.191125
C27   C     C_R   0.677928 0.422338 0.679631 -0.180570
C28   C     C_R   0.499678 0.880138 0.880005 0.888391
C29   C     C_R   0.686438 0.501907 0.688077 -0.003182
C30   C     C_R   0.320755 0.499849 0.240483 -0.027621
C31   C     C_R   0.254890 0.499526 0.177957 -0.239503
C32   C     C_R   0.182314 0.495808 0.185825 -0.119569
C33   C     C_R   0.173519 0.492399 0.256904 -0.040122
C34   C     C_R   0.741750 0.321551 0.999789 -0.192238
C35   C     C_R   0.240705 0.495499 0.320788 -0.219402
C36   C     C_R   0.313308 0.499045 0.312890 -0.139606
C37   C     C_2   0.422720 0.243141 0.250128 -0.138107
C38   C     C_2   0.495207 0.320223 0.309518 -0.314253
C39   C     C_2   0.422488 0.181689 0.177197 -0.164638
C40   C     C_2   0.495409 0.178083 0.189056 -0.346293
C41   C     C_R   0.759335 0.180085 0.002741 -0.189573
C42   C     C_3   0.430544 0.769576 0.556686 0.086199
C43   C     C_3   0.393756 0.733549 0.458751 -0.771170
C44   C     C_3   0.370648 0.957171 0.187599 0.097246
C45   C     C_R   0.677073 0.256773 0.998234 -0.176147
C46   C     C_3   0.447900 0.033913 0.274965 -0.788251
C47   C     C_3   0.126345 0.556585 0.791955 0.120017
C48   C     C_3   0.043137 0.473130 0.716532 -0.782000
C49   C     C_2   0.393017 0.496456 0.225573 0.913662
C50   C     C_2   0.094815 0.482133 0.265277 0.909381
C51   C     C_R   0.686454 0.186629 0.000267 -0.013415
C52   C     C_R   0.546116 0.773353 0.836844 -0.168753
C53   C     C_R   0.545091 0.709307 0.772981 -0.280155
C54   C     C_R   0.498371 0.687061 0.686205 -0.085697
H1    H     H_    0.362570 0.226631 0.252874 0.166848
H2    H     H_    0.622138 0.361127 0.624184 0.143375
H3    H     H_    0.259389 0.501064 0.121999 0.178126
H4    H     H_    0.236266 0.494088 0.376792 0.205551
H5    H     H_    0.361756 0.137038 0.115252 0.167329
H6    H     H_    0.553067 0.215315 0.253643 0.157357
H7    H     H_    0.766247 0.125444 0.004047 0.145148
H8    H     H_    0.878928 0.238285 0.002687 0.148893
H9    H     H_    0.735045 0.376357 0.998739 0.144071
H10   H     H_    0.620674 0.261852 0.996806 0.149064
H11   H     H_    0.582800 0.790430 0.904294 0.171581
H12   H     H_    0.580902 0.677369 0.790979 0.150176
H13   H     H_    0.503301 0.808233 0.589246 0.136976
H14   H     H_    0.405105 0.812968 0.579196 0.145288
H15   H     H_    0.321236 0.694043 0.423888 0.269191
H16   H     H_    0.412659 0.788007 0.444821 0.203368
H17   H     H_    0.420226 0.692170 0.434418 0.258137
H18   H     H_    0.312856 0.933142 0.196511 0.137063
H19   H     H_    0.356857 0.980663 0.139809 0.121888
H20   H     H_    0.506898 0.059148 0.268498 0.266663
H21   H     H_    0.432748 0.086824 0.296787 0.207908
H22   H     H_    0.461614 0.013259 0.324889 0.250955
H23   H     H_    0.413317 0.820264 0.707260 0.165139
H24   H     H_    0.167683 0.538519 0.832539 0.141238
H25   H     H_    0.161673 0.588961 0.764319 0.138683
H26   H     H_    0.000832 0.488456 0.673735 0.257594
H27   H     H_    0.059898 0.429628 0.677321 0.198836
H28   H     H_    0.006693 0.438868 0.742169 0.261237
H29   H     H_    0.475187 0.448445 0.233248 0.345846
H30   H     H_    0.045242 0.504487 0.345801 0.347784
H31   H     H_    0.261751 0.761249 0.139905 0.182793
H32   H     H_    0.235809 0.741608 0.859917 0.177350
H33   H     H_    0.764673 0.642583 0.765508 0.142956
H34   H     H_    0.877459 0.641783 0.878720 0.146472
H35   H     H_    0.736648 0.360344 0.735773 0.142905
H36   H     H_    0.552100 0.340711 0.301150 0.153070
O1    O     O_R   0.539900 0.091920 0.948590 -0.624578
O2    O     O_R   0.908310 0.551980 0.960300 -0.632478
O3    O     O_R   0.908280 0.357000 0.948510 -0.639087
O4    O     O_R   0.643340 0.091290 0.051390 -0.620362
O5    O     O_R   0.908310 0.459790 0.051330 -0.593531
O6    O     O_R   0.091510 0.448020 0.039520 -0.629270
O7    O     O_R   0.091540 0.550800 0.142340 -0.607153
O8    O     O_R   0.091520 0.540220 0.948490 -0.604801
O9    O     O_R   0.091540 0.643000 0.051310 -0.637468
O10   O     O_R   0.448270 0.091350 0.039630 -0.616756
O11   O     O_R   0.551710 0.090720 0.142430 -0.621066
O12   O     O_R   0.643360 0.554400 0.594170 -0.625848
O13   O     O_R   0.356660 0.908710 0.948610 -0.635543
O14   O     O_R   0.460100 0.908080 0.051410 -0.576258
O15   O     O_R   0.448290 0.909280 0.857570 -0.628427
O16   O     O_R   0.551730 0.908650 0.960370 -0.633176
O17   O     O_R   0.539910 0.450960 0.594180 -0.628145
O18   O     O_3   0.403247 0.699632 0.573001 -0.617404
O19   O     O_3   0.391680 0.891361 0.159641 -0.589176
O20   O     O_3   0.103658 0.611057 0.840823 -0.603556
O21   O     O_2   0.420632 0.535122 0.190861 -0.626704
O22   O     O_R   0.427147 0.446326 0.247740 -0.810081
O23   O     O_R   0.448310 0.360490 0.412110 -0.629123
O24   O     O_2   0.022424 0.441579 0.200244 -0.637635
O25   O     O_R   0.103283 0.516381 0.348311 -0.801853
O26   O     O_R   0.551750 0.463920 0.412090 -0.605693
O27   O     O_R   0.356690 0.452080 0.412090 -0.623076
O28   O     O_R   0.460130 0.555510 0.412070 -0.610315
O29   O     O_R   0.448290 0.542560 0.594160 -0.615933
O30   O     O_R   0.551730 0.645990 0.594150 -0.629409
O31   O     O_R   0.908290 0.449200 0.857490 -0.621109
Zn1   Zn    Zn3+2 0.430930 0.000420 0.931360 0.954336
Zn2   Zn    Zn3+2 0.569070 0.999580 0.068640 0.983519
Zn3   Zn    Zn3+2 0.430950 0.434180 0.503140 0.971915
Zn4   Zn    Zn3+2 0.569090 0.572300 0.503120 0.984285
Zn5   Zn    Zn3+2 0.999890 0.431370 0.931260 0.961056
Zn6   Zn    Zn3+2 0.999930 0.568630 0.068560 0.984203

loop_
_geom_bond_atom_site_label_1
_geom_bond_atom_site_label_2
_ccdc_geom_bond_type
C40   H6    S    
C22   C29   A    
C27   C29   A    
C35   C36   A    
C41   H7    S    
O7    Zn6   S    
O12   Zn4   S    
C46   H22   S    
C7    C8    A    
O14   Zn2   S    
O29   Zn3   S    
C26   H35   S    
C12   C23   A    
C26   C27   A    
C12   C41   A    
C35   H4    S    
C13   C29   S    
O27   Zn3   S    
C30   C31   A    
C21   O9    A    
C45   C51   A    
C48   H27   S    
C50   O25   S    
O3    Zn5   S    
C17   O30   A    
C16   O14   A    
C20   O7    A    
C4    C40   S    
C28   O16   A    
C1    O4    A    
O1    Zn1   S    
O16   Zn2   S    
C5    C52   A    
O28   Zn4   S    
C47   H25   S    
C9    C10   A    
C19   O3    A    
C13   O17   A    
C49   O21   D    
O4    Zn2   S    
C20   O6    A    
C43   H15   S    
C42   H14   S    
C18   C25   S    
O17   Zn3   S    
C46   H21   S    
C44   C46   S    
C24   C25   A    
C2    C54   A    
C6    C11   A    
O30   Zn4   S    
C8    C9    A    
O9    Zn6   S    
C33   C50   S    
C53   C54   A    
C15   O27   A    
C50   O24   D    
C19   C23   S    
C37   C38   D    
C14   C38   S    
C5    C28   S    
C12   H8    S    
C11   C16   S    
C16   O13   A    
C47   C48   S    
C28   O15   A    
C23   C34   A    
C39   H5    S    
C4    O11   A    
C8    C21   S    
O6    Zn5   S    
C34   C45   A    
O11   Zn2   S    
C22   H33   S    
C53   H12   S    
C24   H34   S    
C46   H20   S    
C49   O22   S    
C30   C49   S    
C43   H16   S    
O26   Zn4   S    
C4    O10   A    
C42   H13   S    
C6    O19   S    
C22   C24   A    
C42   C43   S    
C14   O23   A    
O2    Zn6   S    
C15   C36   S    
C39   C40   D    
C19   O5    A    
C52   C53   A    
C20   C32   S    
C9    O20   S    
C10   H32   S    
C43   H17   S    
C27   H2    S    
C31   C32   A    
C3    C5    A    
C6    C7    A    
H30   O25   S    
C47   O20   S    
C38   H36   S    
C45   H10   S    
C1    C51   S    
C15   O28   A    
C30   C36   A    
C18   O2    A    
C32   C33   A    
C31   H3    S    
C2    C3    A    
C25   C26   A    
O31   Zn5   S    
C37   C39   S    
C44   O19   S    
C21   O8    A    
C48   H26   S    
C7    H31   S    
O23   Zn3   S    
C14   O26   A    
C2    O18   S    
C34   H9    S    
C33   C35   A    
C48   H28   S    
O15   Zn1   S    
C44   H18   S    
O10   Zn1   S    
C44   H19   S    
C10   C11   A    
C17   O29   A    
C18   O31   A    
C37   H1    S    
O5    Zn6   S    
O8    Zn5   S    
C1    O1    A    
H29   O22   S    
C47   H24   S    
C13   O12   A    
O13   Zn1   S    
C42   O18   S    
C17   C54   S    
C41   C51   A    
C52   H11   S    
C3    H23   S    
