data_mof_unit_15000.cif
_audit_creation_date              2013-03-05T16:10:28-0500
_audit_creation_method            fapswitch 2.2
_symmetry_space_group_name_H-M    P1
_symmetry_Int_Tables_number       1
_space_group_crystal_system       triclinic
_cell_length_a                    10.882987
_cell_length_b                    9.878538
_cell_length_c                    14.913458
_cell_angle_alpha                 90.016762
_cell_angle_beta                  91.482238
_cell_angle_gamma                 90.002893
_cell_volume                      1602.77949833

loop_
_atom_site_label
_atom_site_type_symbol
_atom_site_description
_atom_site_fract_x
_atom_site_fract_y
_atom_site_fract_z
_atom_type_partial_charge
O1    O     O_R   0.316770 0.614620 0.499990 -0.564476
O2    O     O_R   0.683230 0.385380 0.500010 -0.572342
O3    O     O_R   0.683230 0.614620 0.500010 -0.564508
O4    O     O_R   0.316770 0.385380 0.499990 -0.572322
C1    C     C_R   0.260173 0.500044 0.506597 1.054268
C2    C     C_R   0.739829 0.500045 0.493411 1.054257
O5    O     O_R   0.499980 0.614680 0.367850 -0.579948
O6    O     O_R   0.500020 0.385320 0.632150 -0.588755
O7    O     O_R   0.500020 0.614680 0.632150 -0.579966
O8    O     O_R   0.499980 0.385320 0.367850 -0.588768
C3    C     C_R   0.498333 0.500136 0.327223 0.973387
C4    C     C_R   0.501674 0.500176 0.672778 0.973294
Zn1   Zn    Zn3+2 0.500000 0.653120 0.500000 1.157078
Zn2   Zn    Zn3+2 0.500000 0.346880 0.500000 1.148408
C5    C     C_R   0.613277 0.507619 0.815807 0.282745
C6    C     C_R   0.386747 0.507468 0.184191 0.282723
C7    C     C_R   0.501335 0.503371 0.768292 -0.229424
C8    C     C_R   0.498684 0.503231 0.231710 -0.229466
C9    C     C_R   0.388657 0.516132 0.809890 0.270211
C10   C     C_R   0.611369 0.515937 0.190117 0.270163
C11   C     C_R   0.386392 0.530872 0.903558 -0.109532
C12   C     C_R   0.613641 0.530738 0.096459 -0.109513
C13   C     C_R   0.499790 0.531697 0.952919 -0.027766
C14   C     C_R   0.500243 0.531645 0.047099 -0.027748
C15   C     C_R   0.612957 0.531477 0.908329 -0.094000
C16   C     C_R   0.387075 0.531398 0.091688 -0.093995
C17   C     C_R   0.275930 0.551429 0.949462 0.219571
C18   C     C_R   0.724110 0.551313 0.050572 0.219574
C19   C     C_R   0.278076 0.559608 0.042671 0.360470
C20   C     C_R   0.721963 0.559612 0.957372 0.360469
C21   C     C_R   0.062399 0.376314 0.509880 0.362458
C22   C     C_R   0.937464 0.624535 0.490616 0.373300
C23   C     C_R   0.937587 0.376321 0.490061 0.362410
C24   C     C_R   0.062554 0.624529 0.509473 0.373260
C25   C     C_R   0.872954 0.500325 0.487738 -0.341974
C26   C     C_R   0.127048 0.500317 0.512276 -0.342011
C27   C     C_R   0.552315 0.071931 0.570138 0.245203
C28   C     C_R   0.447865 0.928141 0.429800 0.244918
C29   C     C_R   0.447699 0.071866 0.429857 0.245141
C30   C     C_R   0.552126 0.928207 0.570202 0.244886
N1    N     N_R   0.500000 0.857200 0.500000 -0.217409
N2    N     N_R   0.500000 0.142800 0.500000 -0.216709
N3    N     N_R   0.724634 0.471508 0.771657 0.243931
O9    O     O_R   0.760845 0.539484 0.702505 -0.324883
O10   O     O_R   0.790367 0.370009 0.801069 -0.219265
N4    N     N_R   0.275392 0.471259 0.228302 0.244015
O11   O     O_R   0.239161 0.539127 0.297518 -0.324927
O12   O     O_R   0.209679 0.369774 0.198788 -0.219243
N5    N     N_R   0.278002 0.507634 0.755867 0.202055
O13   O     O_R   0.228697 0.389945 0.739553 -0.281830
O14   O     O_R   0.240983 0.612391 0.709820 -0.309721
N6    N     N_R   0.722022 0.507320 0.244131 0.202078
O15   O     O_R   0.771352 0.389604 0.260247 -0.281504
O16   O     O_R   0.759059 0.611970 0.290323 -0.310074
N7    N     N_R   0.161002 0.569344 0.902675 0.267546
O17   O     O_R   0.128619 0.688971 0.874309 -0.196905
O18   O     O_R   0.083081 0.469593 0.898208 -0.202089
N8    N     N_R   0.839046 0.569147 0.097374 0.267556
O19   O     O_R   0.871417 0.688712 0.125919 -0.196939
O20   O     O_R   0.916991 0.469419 0.101666 -0.202086
Cl1   Cl    Cl    0.149858 0.632862 0.094363 -0.270999
Cl2   Cl    Cl    0.850192 0.632930 0.905750 -0.271009
Cl3   Cl    Cl    0.130683 0.218634 0.540283 -0.300174
Cl4   Cl    Cl    0.868584 0.782889 0.462371 -0.290638
Cl5   Cl    Cl    0.869281 0.218661 0.459553 -0.300193
Cl6   Cl    Cl    0.131458 0.782868 0.537810 -0.290615
N9    N     N_R   0.609491 0.142480 0.643686 0.257438
O21   O     O_R   0.719963 0.190330 0.636241 -0.246624
O22   O     O_R   0.559856 0.140108 0.722095 -0.278913
N10   N     N_R   0.390652 0.857721 0.356261 0.258549
O23   O     O_R   0.276434 0.820755 0.361034 -0.233759
O24   O     O_R   0.443439 0.855335 0.278993 -0.287596
N11   N     N_R   0.390596 0.142351 0.356284 0.257420
O25   O     O_R   0.280107 0.190176 0.363666 -0.246570
O26   O     O_R   0.440327 0.139947 0.277909 -0.278905
N12   N     N_R   0.609270 0.857854 0.643765 0.258532
O27   O     O_R   0.723544 0.821064 0.639094 -0.233652
O28   O     O_R   0.556361 0.855464 0.720986 -0.287569

loop_
_geom_bond_atom_site_label_1
_geom_bond_atom_site_label_2
_geom_bond_distance
_ccdc_geom_bond_type
N7    O17   1.300889 A    
C28   N10   1.427796 S    
C3    C8    1.424870 S    
C17   C19   1.391975 A    
N11   O25   1.299261 A    
O3    C2    1.293559 A    
C24   Cl6   1.780615 S    
Zn1   N1    2.016012 S    
C23   Cl5   1.779663 S    
O5    C3    1.283281 A    
O1    C1    1.293564 A    
C9    C11   1.405283 A    
N12   O28   1.301031 A    
C27   C30   1.419783 A    
C28   C29   1.419789 A    
C17   N7    1.427422 S    
C5    C15   1.399830 A    
N8    O20   1.300585 A    
C1    C26   1.453456 S    
C2    C25   1.453454 S    
C27   N2    1.370417 A    
O7    Zn1   2.007165 S    
C7    C9    1.394205 A    
N5    O14   1.300359 A    
C4    C7    1.424886 S    
C13   C14   1.404423 A    
C21   C23   1.382629 A    
N10   O23   1.299271 A    
C24   C26   1.413721 A    
O3    Zn1   2.030049 S    
Zn2   N2    2.016012 S    
C13   C15   1.414716 A    
C11   C17   1.413365 A    
C12   C18   1.413368 A    
N11   O26   1.300926 A    
O2    C2    1.294328 A    
N6    O16   1.300356 A    
C29   N2    1.370399 A    
N4    O12   1.301390 A    
C11   C13   1.420563 A    
C6    C16   1.399810 A    
C19   Cl1   1.766507 S    
N9    O21   1.299268 A    
C22   C25   1.413724 A    
C21   Cl3   1.779658 S    
N12   O27   1.299266 A    
C22   Cl4   1.780610 S    
C28   N1    1.370706 A    
O8    Zn2   2.007166 S    
C6    N4    1.438985 S    
N8    O19   1.300887 A    
C30   N12   1.427776 S    
N9    O22   1.300922 A    
C22   C24   1.382952 A    
N3    O9    1.300468 A    
C9    N5    1.433936 S    
O6    C4    1.286006 A    
N3    O10   1.301385 A    
C30   N1    1.370677 A    
C10   C12   1.405288 A    
N7    O18   1.300583 A    
C12   C14   1.420565 A    
O1    Zn1   2.030013 S    
N6    O15   1.300683 A    
C15   C20   1.405161 A    
C5    C7    1.394059 A    
N4    O11   1.300459 A    
O6    Zn2   2.006947 S    
C14   C16   1.414716 A    
O4    C1    1.294326 A    
C18   N8    1.427432 S    
C20   Cl2   1.766500 S    
C5    N3    1.438973 S    
C10   N6    1.433942 S    
C27   N9    1.428350 S    
C18   C20   1.391978 A    
C23   C25   1.412586 A    
C8    C10   1.394207 A    
C29   N11   1.428337 S    
O4    Zn2   2.030051 S    
O2    Zn2   2.030011 S    
O7    C4    1.283252 A    
O8    C3    1.285973 A    
O5    Zn1   2.006948 S    
C16   C19   1.405160 A    
C6    C8    1.394048 A    
N5    O13   1.300680 A    
C21   C26   1.412593 A    
N10   O24   1.301030 A    
