data_mof_unit_8081.cif
_audit_creation_date              2013-03-05T15:46:55-0500
_audit_creation_method            fapswitch 2.2
_symmetry_space_group_name_H-M    P1
_symmetry_Int_Tables_number       1
_space_group_crystal_system       triclinic
_cell_length_a                    18.451194
_cell_length_b                    18.305498
_cell_length_c                    18.33452
_cell_angle_alpha                 89.307162
_cell_angle_beta                  120.471315
_cell_angle_gamma                 120.395789
_cell_volume                      4347.63415137

loop_
_atom_site_label
_atom_site_type_symbol
_atom_site_description
_atom_site_fract_x
_atom_site_fract_y
_atom_site_fract_z
_atom_type_partial_charge
Zn1   Zn    Zn3+2 0.086760 0.130530 0.543760 1.053557
Zn2   Zn    Zn3+2 0.086760 0.956230 0.542990 1.053453
Zn3   Zn    Zn3+2 0.913250 0.956230 0.369490 1.073835
Zn4   Zn    Zn3+2 0.913230 0.957020 0.543760 1.056637
O1    O     O_3   0.000000 1.000000 0.500000 -0.531359
O2    O     O_R   0.939250 0.884470 0.616070 -0.610832
O3    O     O_R   0.060740 0.176800 0.445190 -0.621603
O4    O     O_R   0.231610 0.054800 0.615530 -0.646079
O5    O     O_R   0.768390 0.883920 0.323210 -0.561334
O6    O     O_R   0.060730 0.883140 0.443890 -0.641506
O7    O     O_R   0.939260 0.056140 0.616830 -0.640385
O8    O     O_R   0.939300 0.883140 0.322450 -0.615099
O9    O     O_R   0.060710 0.177580 0.616830 -0.574368
O10   O     O_R   0.231620 0.176800 0.616070 -0.621425
O11   O     O_R   0.768380 0.884480 0.445190 -0.629451
O12   O     O_R   0.060710 0.883920 0.615530 -0.569806
O13   O     O_R   0.939300 0.054810 0.323210 -0.615757
C1    C     C_R   0.998588 0.858395 0.638053 0.879231
C2    C     C_R   0.000036 0.139958 0.360087 0.779982
C3    C     C_R   0.279977 0.140045 0.644752 0.826280
C4    C     C_R   0.720105 0.859489 0.359584 0.825550
C5    C     C_R   0.994302 0.853024 0.359218 0.825581
C6    C     C_R   0.002087 0.142161 0.642535 0.938851
C7    C     C_3   0.974247 0.151301 0.762928 -0.314742
H1    H     H_    0.890573 0.096387 0.714601 0.157871
C8    C     C_3   0.978785 0.212296 0.826258 0.084669
H2    H     H_    0.898041 0.176484 0.805013 0.204061
C9    C     C_3   0.123921 0.296663 0.767774 -0.321997
C10   C     C_3   0.922127 0.219657 0.643872 -0.313605
C11   C     C_3   0.008610 0.203421 0.703435 -0.211916
H3    H     H_    0.847350 0.152530 0.609673 0.183470
C12   C     C_3   0.007922 0.303946 0.807129 -0.266122
C13   C     C_3   0.121107 0.360743 0.825691 -0.016947
C14   C     C_3   0.922413 0.279084 0.705053 0.036078
H4    H     H_    0.940441 0.342129 0.690687 0.236069
H5    H     H_    0.915743 0.228624 0.323115 0.149539
C15   C     C_R   0.109095 0.169992 0.278652 -0.251256
H6    H     H_    0.110623 0.128350 0.321026 0.168051
C16   C     C_R   0.163622 0.186294 0.241026 0.344297
C17   C     C_R   0.163168 0.241095 0.186994 -0.110603
H7    H     H_    0.204823 0.255059 0.157385 0.226469
C18   C     C_R   0.109802 0.279274 0.171012 -0.149534
H8    H     H_    0.113407 0.322521 0.130284 0.179023
C19   C     C_R   0.055433 0.263816 0.208998 0.076578
C20   C     C_R   0.055351 0.208793 0.263724 0.024210
C21   C     C_R   0.003588 0.196076 0.304029 -0.026581
C22   C     C_R   0.954776 0.238146 0.291663 -0.170494
H9    H     H_    0.915834 0.323576 0.228410 0.156828
C23   C     C_R   0.954764 0.291880 0.237958 -0.172419
C24   C     C_R   0.003551 0.304093 0.196028 -0.016755
C25   C     C_R   0.603495 0.670753 0.358364 -0.111119
C26   C     C_R   0.548359 0.591888 0.373872 0.227816
C27   C     C_R   0.442565 0.548485 0.333501 -0.101076
C28   C     C_R   0.391683 0.580794 0.273367 -0.225053
H10   H     H_    0.308962 0.541145 0.237922 0.193363
C29   C     C_R   0.445326 0.661608 0.259389 0.039818
C30   C     C_R   0.553892 0.710957 0.306950 0.010260
C31   C     C_R   0.607690 0.798139 0.301073 -0.141923
C32   C     C_R   0.553518 0.830090 0.241604 -0.149681
C33   C     C_R   0.445669 0.776528 0.188325 0.244561
C34   C     C_R   0.392093 0.693275 0.197751 -0.158250
C35   C     C_R   0.097080 0.933414 0.825058 -0.167360
H11   H     H_    0.102215 0.977392 0.785533 0.176685
C36   C     C_R   0.144607 0.971146 0.915606 -0.201401
H12   H     H_    0.183425 0.042465 0.942543 0.224873
C37   C     C_R   0.141962 0.917660 0.970598 0.353064
C38   C     C_R   0.092210 0.825817 0.933283 -0.174012
H13   H     H_    0.092452 0.785493 0.976880 0.168358
C39   C     C_R   0.045261 0.786991 0.841654 0.009595
C40   C     C_R   0.046805 0.841234 0.786734 0.108735
C41   C     C_R   0.001645 0.803098 0.695630 -0.125530
C42   C     C_R   0.962100 0.712808 0.660490 -0.131574
C43   C     C_R   0.961173 0.659167 0.715690 0.243785
C44   C     C_R   0.000230 0.695909 0.804632 -0.153109
C45   C     C_R   0.114197 0.773603 0.436644 -0.185841
H14   H     H_    0.086213 0.775417 0.475362 0.241099
C46   C     C_R   0.201343 0.772157 0.478435 0.318470
C47   C     C_R   0.234879 0.763633 0.427823 -0.186447
H15   H     H_    0.304755 0.766757 0.458692 0.202622
C48   C     C_R   0.176059 0.747154 0.335805 -0.152988
H16   H     H_    0.205971 0.741982 0.299982 0.200320
C49   C     C_R   0.082587 0.739886 0.292346 0.100825
C50   C     C_R   0.060990 0.767698 0.345261 0.036170
C51   C     C_R   0.986516 0.787554 0.304571 -0.133785
C52   C     C_R   0.915510 0.754881 0.209972 -0.065676
H17   H     H_    0.869728 0.684334 0.086603 0.204646
C53   C     C_R   0.927335 0.713089 0.158586 -0.206992
C54   C     C_R   0.008941 0.704410 0.198258 -0.072229
H18   H     H_    0.406694 0.317635 0.684701 0.192090
C55   C     C_R   0.406031 0.079112 0.776809 -0.132453
C56   C     C_R   0.454645 0.034202 0.798302 0.286150
C57   C     C_R   0.541535 0.069602 0.797948 -0.189607
H19   H     H_    0.576804 0.034166 0.809529 0.211039
C58   C     C_R   0.590333 0.155077 0.792425 -0.160816
H20   H     H_    0.657888 0.179097 0.793710 0.223877
C59   C     C_R   0.549823 0.205421 0.782214 0.077303
C60   C     C_R   0.447568 0.159353 0.755730 -0.002441
C61   C     C_R   0.392461 0.196404 0.709685 -0.032238
C62   C     C_R   0.446576 0.286920 0.716558 -0.147023
H21   H     H_    0.593280 0.410037 0.772984 0.193883
C63   C     C_R   0.552955 0.339075 0.764362 -0.159522
C64   C     C_R   0.606158 0.299569 0.797409 -0.065331
Zn5   Zn    Zn3+2 0.913240 0.369500 0.956210 1.053416
Zn6   Zn    Zn3+2 0.086750 0.543800 0.130490 1.004580
Zn7   Zn    Zn3+2 0.913240 0.543800 0.956980 1.034203
Zn8   Zn    Zn3+2 0.086770 0.543010 0.956210 1.141825
O14   O     O_3   0.000000 0.500030 0.999970 -0.530976
O15   O     O_R   0.231620 0.615550 0.054780 -0.584394
O16   O     O_R   0.768380 0.323230 0.883900 -0.654252
O17   O     O_R   0.060700 0.445220 0.176760 -0.624985
O18   O     O_R   0.939290 0.616110 0.884440 -0.634023
O19   O     O_R   0.060700 0.616880 0.177520 -0.655096
O20   O     O_R   0.060740 0.443890 0.883140 -0.595519
O21   O     O_R   0.939270 0.616890 0.056080 -0.641013
O22   O     O_R   0.939290 0.322450 0.883140 -0.600762
O23   O     O_R   0.939260 0.323230 0.054780 -0.616934
O24   O     O_R   0.060750 0.615550 0.883900 -0.580458
O25   O     O_R   0.231610 0.616100 0.176760 -0.651688
O26   O     O_R   0.768390 0.445230 0.884440 -0.631306
C65   C     C_R   0.279725 0.638702 0.140256 0.863659
C66   C     C_R   0.719489 0.358990 0.856621 0.835364
C67   C     C_R   0.000039 0.360102 0.139888 0.778882
C68   C     C_R   0.999793 0.639443 0.860166 0.868782
C69   C     C_R   0.004641 0.645270 0.141291 0.827583
C70   C     C_R   0.001931 0.359114 0.860683 0.918171
C71   C     C_2   0.011580 0.094604 0.804927 1.061324
O27   O     O_2   0.073327 0.091642 0.799583 -0.673652
O28   O     O_R   0.968374 0.040276 0.845466 -0.732103
H22   H     H_    0.995889 0.003224 0.869348 0.351796
C72   C     C_2   0.171643 0.352312 0.720381 1.082397
O29   O     O_2   0.263001 0.415862 0.766312 -0.531231
O30   O     O_R   0.114437 0.335732 0.628057 -0.745075
H23   H     H_    0.157120 0.378783 0.608246 0.363737
N1    N     N_R   0.141022 0.444037 0.799470 0.211899
O31   O     O_R   0.213669 0.523850 0.859526 -0.264445
O32   O     O_R   0.092685 0.441210 0.716491 -0.311970
N2    N     N_R   0.220547 0.148467 0.258779 0.243267
O33   O     O_R   0.213283 0.090663 0.301512 -0.347418
O34   O     O_R   0.281926 0.172939 0.233991 -0.257438
C73   C     C_2   0.608948 0.922575 0.239038 0.986031
O35   O     O_2   0.599397 0.977193 0.263201 -0.556047
O36   O     O_R   0.669363 0.946214 0.206796 -0.727515
H24   H     H_    0.703022 0.010960 0.208463 0.347281
C74   C     C_2   0.709055 0.703184 0.389328 0.913251
O37   O     O_2   0.774623 0.724184 0.468760 -0.618911
O38   O     O_R   0.732699 0.707764 0.327406 -0.740730
H25   H     H_    0.806946 0.729722 0.356846 0.334840
N3    N     N_R   0.599938 0.554741 0.428976 0.248943
O39   O     O_R   0.598819 0.493286 0.392588 -0.276333
O40   O     O_R   0.644556 0.579879 0.514938 -0.297280
C75   C     C_2   0.382455 0.469095 0.352614 0.951187
O41   O     O_2   0.408296 0.418535 0.375579 -0.531497
O42   O     O_R   0.295826 0.452718 0.345070 -0.803538
H26   H     H_    0.263656 0.399190 0.363244 0.348452
N4    N     N_R   0.390327 0.808244 0.126428 0.225136
O43   O     O_R   0.408160 0.835035 0.067657 -0.276879
O44   O     O_R   0.323631 0.812212 0.129909 -0.365447
C76   C     C_2   0.918535 0.672272 0.565817 1.041302
O45   O     O_2   0.964473 0.712180 0.533047 -0.629661
O46   O     O_R   0.825613 0.586934 0.514675 -0.664630
H27   H     H_    0.804468 0.566250 0.451838 0.371358
N5    N     N_R   0.190667 0.956545 0.064119 0.238360
O47   O     O_R   0.241518 0.042555 0.099588 -0.274762
O48   O     O_R   0.184910 0.906487 0.114779 -0.334928
N6    N     N_R   0.923305 0.567683 0.682521 0.233111
O49   O     O_R   0.849521 0.502635 0.684964 -0.322741
O50   O     O_R   0.965188 0.549622 0.652803 -0.269622
C77   C     C_2   0.823229 0.756385 0.161277 0.982998
O51   O     O_2   0.768546 0.734802 0.187640 -0.550257
O52   O     O_R   0.796019 0.778185 0.082398 -0.762867
H28   H     H_    0.730920 0.775673 0.054475 0.375645
N7    N     N_R   0.256129 0.780756 0.571940 0.230209
O53   O     O_R   0.225006 0.789022 0.619090 -0.289341
O54   O     O_R   0.336937 0.779304 0.610564 -0.313545
C78   C     C_2   0.324609 0.051878 0.790778 0.978578
O55   O     O_2   0.258244 0.972654 0.770197 -0.550299
O56   O     O_R   0.325577 0.118006 0.829299 -0.822839
H29   H     H_    0.268966 0.092377 0.838589 0.341450
N8    N     N_R   0.421201 0.956233 0.825410 0.249224
O57   O     O_R   0.410337 0.958056 0.890028 -0.290440
O58   O     O_R   0.425021 0.892563 0.800914 -0.252252
N9    N     N_R   0.035936 0.220410 0.921944 0.236428
O59   O     O_R   0.120709 0.225270 0.963140 -0.308477
O60   O     O_R   0.991362 0.206740 0.962366 -0.363182
C79   C     C_2   0.199297 0.270740 0.823008 0.957306
O61   O     O_2   0.224108 0.266456 0.897648 -0.533957
O62   O     O_R   0.239747 0.249982 0.786067 -0.772634
H30   H     H_    0.291691 0.238414 0.829486 0.379788
C80   C     C_2   0.209770 0.397734 0.926681 1.059953
O63   O     O_2   0.195017 0.396234 0.984755 -0.629986
O64   O     O_R   0.311507 0.443692 0.952621 -0.709801
H31   H     H_    0.363974 0.468144 0.020096 0.368369
C81   C     C_2   0.913660 0.246123 0.562318 1.058372
O65   O     O_2   0.920226 0.315048 0.553159 -0.508032
O66   O     O_R   0.890991 0.187459 0.493659 -0.805500
H32   H     H_    0.885017 0.210819 0.441912 0.343133
N10   N     N_R   0.818623 0.236813 0.684806 0.205368
O67   O     O_R   0.756760 0.150847 0.666229 -0.385768
O68   O     O_R   0.783913 0.285191 0.677305 -0.316653

loop_
_geom_bond_atom_site_label_1
_geom_bond_atom_site_label_2
_geom_bond_distance
_ccdc_geom_bond_type
C76   O46   1.397754 S    
C53   C54   1.396426 A    
C16   N2    1.439593 S    
C8    C12   1.578303 S    
N6    O49   1.301310 A    
C59   C64   1.425954 A    
N4    O44   1.301532 A    
C43   C44   1.405368 A    
O15   C65   1.283762 A    
Zn5   O22   1.966605 S    
C24   C67   1.445300 S    
C54   C69   1.457946 S    
O5    C4    1.276983 A    
O28   H22   1.012582 S    
O25   C65   1.277309 A    
C60   C61   1.421266 A    
C79   O61   1.219356 D    
C2    C21   1.445896 S    
C78   O56   1.396596 S    
C46   C47   1.397118 A    
O6    C5    1.274097 A    
Zn7   O14   1.956742 S    
O9    C6    1.269821 A    
C8    H2    1.109204 S    
O4    C3    1.282407 A    
O23   C67   1.277813 A    
H18   C62   1.083344 S    
Zn1   O1    1.946456 S    
N3    O40   1.300663 A    
O19   C69   1.272771 A    
C39   C40   1.406038 A    
C46   N7    1.439977 S    
C47   C48   1.392543 A    
C79   O62   1.402156 S    
O20   C70   1.270252 A    
O52   H28   1.013901 S    
C61   C62   1.400562 A    
O8    C5    1.285136 A    
C42   C76   1.490694 S    
C29   C30   1.416124 A    
C35   C40   1.408960 A    
H5    C22   1.083228 S    
C13   C80   1.549326 S    
C14   H4    1.097709 S    
O7    C6    1.289233 A    
N10   O68   1.301931 A    
N9    O59   1.299079 A    
C57   H19   1.083063 S    
C35   C36   1.393017 A    
Zn3   O8    1.965725 S    
C12   C14   1.580558 S    
C28   H10   1.078470 S    
C77   O51   1.222435 D    
C13   N1    1.511778 S    
C50   C51   1.426908 A    
O30   H23   1.014078 S    
C81   O66   1.398897 S    
C56   N8    1.437892 S    
C75   O41   1.222598 D    
C7    H1    1.114812 S    
C40   C41   1.414097 A    
C25   C30   1.434472 A    
C64   C66   1.469300 S    
Zn2   O12   1.927161 S    
C55   C60   1.428892 A    
N5    O48   1.301785 A    
C55   C56   1.419725 A    
C42   C43   1.401883 A    
O21   C69   1.280583 A    
C77   O52   1.398285 S    
C44   C68   1.442078 S    
Zn7   O18   1.927158 S    
C32   C33   1.397392 A    
C26   N3    1.432455 S    
C34   C65   1.456278 S    
C7    C71   1.520113 S    
N10   O67   1.302402 A    
C18   C19   1.409979 A    
N7    O54   1.301563 A    
Zn6   O25   1.939874 S    
C52   C53   1.383955 A    
O2    C1    1.290576 A    
C28   C29   1.414268 A    
O36   H24   1.013959 S    
Zn8   O20   1.960108 S    
O18   C68   1.282002 A    
C25   C26   1.413210 A    
O16   C66   1.274567 A    
C63   C64   1.399401 A    
O10   C3    1.283882 A    
Zn7   O21   1.961010 S    
C37   C38   1.402274 A    
C73   O35   1.222757 D    
C22   C23   1.383343 A    
Zn4   O2    1.925877 S    
C16   C17   1.401372 A    
Zn6   O19   1.965472 S    
C47   H15   1.082569 S    
C74   O37   1.219967 D    
N1    O32   1.300672 A    
C31   C32   1.414502 A    
C25   C74   1.478137 S    
C10   C14   1.568243 S    
C49   C50   1.403074 A    
C80   O63   1.222406 D    
C38   H13   1.081321 S    
C33   C34   1.404279 A    
C38   C39   1.416946 A    
C36   C37   1.398289 A    
C12   C70   1.497731 S    
C72   O30   1.395591 S    
C45   H14   1.077631 S    
C6    C11   1.508690 S    
C15   H6    1.081973 S    
Zn3   O5    1.939827 S    
C15   C16   1.404402 A    
N2    O34   1.301342 A    
C78   O55   1.221702 D    
O11   C4    1.285784 A    
C59   C60   1.406168 A    
C35   H11   1.077296 S    
C57   C58   1.390009 A    
C39   C44   1.408727 A    
O12   C1    1.279110 A    
C26   C27   1.403198 A    
C51   C52   1.417718 A    
Zn4   O7    1.960109 S    
C58   C59   1.412101 A    
C45   C46   1.402254 A    
O26   C66   1.295277 A    
O56   H29   1.011322 S    
C8    N9    1.477610 S    
C74   O38   1.396167 S    
H9    C23   1.083977 S    
C62   C63   1.382548 A    
C43   N6    1.439482 S    
C9    C13   1.629102 S    
C81   O65   1.222950 D    
O3    C2    1.277708 A    
Zn8   O24   1.925730 S    
C76   O45   1.221622 D    
C37   N5    1.440042 S    
Zn1   O9    1.966603 S    
C18   H8    1.082362 S    
C15   C20   1.412629 A    
Zn2   O6    1.961007 S    
C56   C57   1.396226 A    
N7    O53   1.301754 A    
H17   C53   1.084686 S    
C10   C81   1.522200 S    
O38   H25   1.013765 S    
C19   C24   1.412690 A    
C1    C41   1.453870 S    
C21   C22   1.395055 A    
C17   H7    1.082482 S    
C71   O28   1.399227 S    
N9    O60   1.301434 A    
Zn1   O3    1.925743 S    
C52   C77   1.483931 S    
Zn2   O4    1.934058 S    
C19   C20   1.413094 A    
C7    C8    1.562059 S    
C48   H16   1.080258 S    
Zn3   O1    1.947755 S    
C27   C28   1.393945 A    
N1    O31   1.305346 A    
C73   O36   1.397606 S    
N8    O57   1.301348 A    
N5    O47   1.301227 A    
N2    O33   1.301688 A    
Zn5   O23   1.925740 S    
O22   C70   1.283288 A    
Zn5   O16   1.939444 S    
C12   C13   1.627477 S    
Zn4   O11   1.934004 S    
C9    C11   1.630940 S    
C72   O29   1.226184 D    
O24   C68   1.281602 A    
C33   N4    1.440957 S    
C4    C31   1.459285 S    
C10   H3    1.110092 S    
C9    C79   1.553309 S    
O17   C67   1.277030 A    
Zn6   O17   1.925080 S    
C14   N10   1.479985 S    
C45   C50   1.418235 A    
C30   C31   1.430076 A    
Zn8   O15   1.934003 S    
C32   C73   1.486316 S    
C71   O27   1.219188 D    
C49   C54   1.414466 A    
Zn4   O1    1.959286 S    
C55   C78   1.483369 S    
C36   H12   1.082557 S    
C17   C18   1.393795 A    
H21   C63   1.083337 S    
O13   C2    1.277452 A    
C48   C49   1.415514 A    
Zn3   O13   1.925183 S    
C9    C72   1.554020 S    
N3    O39   1.300672 A    
C75   O42   1.398503 S    
C58   H20   1.078628 S    
O64   H31   1.014025 S    
O46   H27   1.013946 S    
C7    C11   1.601939 S    
C10   C11   1.591203 S    
O66   H32   1.013400 S    
Zn2   O1    1.956745 S    
C20   C21   1.413881 A    
O62   H30   1.012250 S    
C3    C61   1.464991 S    
N6    O50   1.301284 A    
C23   C24   1.394775 A    
Zn8   O14   1.959286 S    
N4    O43   1.301296 A    
C27   C75   1.488517 S    
C29   C34   1.418618 A    
Zn7   O26   1.934059 S    
Zn5   O14   1.946458 S    
Zn1   O10   1.939446 S    
C41   C42   1.416991 A    
O42   H26   1.013714 S    
Zn6   O14   1.947905 S    
C5    C51   1.472969 S    
C80   O64   1.401361 S    
N8    O58   1.301154 A    
