data_mof_unit_5540.cif
_audit_creation_date              2012-12-10T20:42:40-0500
_audit_creation_method            fapswitch 2.2
_symmetry_space_group_name_H-M    P1
_symmetry_Int_Tables_number       1
_space_group_crystal_system       triclinic
_cell_length_a                    8.91078
_cell_length_b                    10.676055
_cell_length_c                    9.907397
_cell_angle_alpha                 90.301342
_cell_angle_beta                  90.313716
_cell_angle_gamma                 90.651519
_cell_volume                      942.421858914

loop_
_atom_site_label
_atom_site_type_symbol
_atom_type_description
_atom_site_fract_x
_atom_site_fract_y
_atom_site_fract_z
_atom_type_partial_charge
C1    C     C_R   0.503081 0.260182 0.499917 0.871207
C2    C     C_R   0.394187 0.432966 0.927755 0.163375
C3    C     C_3   0.228853 0.451004 0.921062 -0.417510
C4    C     C_R   0.218836 0.499989 0.499770 0.923431
C5    C     C_3   0.228342 0.451945 0.074282 -0.439650
C6    C     C_R   0.503445 0.739862 0.500382 0.885106
C7    C     C_R   0.781179 0.500251 0.500265 0.942021
C8    C     C_1   0.065430 0.500172 0.499741 -0.198818
C9    C     C_1   0.934594 0.500272 0.500421 -0.177040
C10   C     C_R   0.501194 0.064634 0.622147 0.150242
C11   C     C_R   0.522064 0.128704 0.501599 -0.109136
C12   C     C_R   0.568395 0.935195 0.385830 -0.199434
C13   C     C_R   0.567935 0.064734 0.385375 -0.214734
C14   C     C_2   0.418944 0.873534 0.854141 1.029119
C15   C     C_2   0.740078 0.622640 0.866895 0.942999
C16   C     C_R   0.522943 0.871661 0.502516 -0.126570
C17   C     C_R   0.502062 0.936763 0.622935 0.149366
C18   C     C_3   0.374460 0.929574 0.720728 -0.257286
C19   C     C_3   0.374528 0.072020 0.720365 -0.553570
C20   C     C_R   0.393832 0.433436 0.069940 0.197834
C21   C     C_R   0.613516 0.554176 0.074237 -0.149458
C22   C     C_R   0.614009 0.555731 0.930919 0.010130
H1    H     H_    0.594932 0.113769 0.293012 0.182155
H2    H     H_    0.198890 0.542580 0.876243 0.250593
H3    H     H_    0.565144 0.870949 0.010287 0.326288
H4    H     H_    0.963537 0.651759 0.860211 0.345015
H5    H     H_    0.169489 0.368434 0.876369 0.198259
H6    H     H_    0.197398 0.544168 0.118109 0.238943
H7    H     H_    0.168469 0.369931 0.118081 0.198756
H8    H     H_    0.595627 0.885561 0.293646 0.173156
H9    H     H_    0.271092 0.886970 0.675438 0.142627
H10   H     H_    0.271308 0.111755 0.674659 0.194571
H11   H     H_    0.409937 0.117078 0.817088 0.228911
H12   H     H_    0.702107 0.601239 0.130782 0.167534
N1    N     N_R   0.499010 0.499140 0.142800 -0.110684
N2    N     N_R   0.499010 0.499180 0.857150 -0.132741
O1    O     O_R   0.500020 0.316790 0.614690 -0.618370
O2    O     O_R   0.547544 0.916695 0.922273 -0.786722
O3    O     O_2   0.717047 0.705118 0.784961 -0.588218
O4    O     O_R   0.886798 0.597212 0.907946 -0.829703
O5    O     O_R   0.500000 0.316760 0.385350 -0.622248
O6    O     O_R   0.285350 0.500020 0.614650 -0.621314
O7    O     O_R   0.285340 0.499980 0.385310 -0.616801
O8    O     O_R   0.500000 0.683240 0.614650 -0.573914
O9    O     O_R   0.499980 0.683210 0.385310 -0.625651
O10   O     O_R   0.714660 0.500020 0.614690 -0.604739
O11   O     O_R   0.714650 0.499980 0.385350 -0.624036
O12   O     O_2   0.341885 0.789797 0.902459 -0.659606
Zn1   Zn    Zn3+2 0.500010 0.500020 0.653130 0.991549
Zn2   Zn    Zn3+2 0.499990 0.499980 0.346870 0.954767

loop_
_geom_bond_atom_site_label_1
_geom_bond_atom_site_label_2
_ccdc_geom_bond_type
O8    Zn1   S    
O7    Zn2   S    
C21   N1    A    
C6    O9    A    
H3    O2    S    
C14   O2    S    
C5    H6    S    
O1    Zn1   S    
C14   C18   S    
C1    C11   S    
C1    O1    A    
C10   C19   S    
C4    C8    S    
H4    O4    S    
N1    Zn2   S    
C3    H5    S    
C2    C3    S    
C5    C20   S    
C6    O8    A    
C21   C22   A    
C11   C13   A    
O10   Zn1   S    
C15   O3    D    
C3    H2    S    
C4    O6    A    
O9    Zn2   S    
C19   H10   S    
C1    O5    A    
C4    O7    A    
C17   C18   S    
O11   Zn2   S    
C5    H7    S    
C15   O4    S    
C10   C11   A    
O6    Zn1   S    
C2    C20   A    
C7    O10   A    
O5    Zn2   S    
C22   N2    A    
C12   C13   A    
C13   H1    S    
C18   C19   S    
C19   H11   S    
C2    N2    A    
C7    C9    S    
C8    C9    T    
C14   O12   D    
C21   H12   S    
C10   C17   A    
C12   H8    S    
C20   N1    A    
C6    C16   S    
C15   C22   S    
N2    Zn1   S    
C12   C16   A    
C18   H9    S    
C16   C17   A    
C3    C5    S    
C7    O11   A    
