data_mof_unit_7921.cif
_audit_creation_date              2012-12-10T17:19:57-0500
_audit_creation_method            fapswitch 2.2
_symmetry_space_group_name_H-M    P1
_symmetry_Int_Tables_number       1
_space_group_crystal_system       triclinic
_cell_length_a                    9.595346
_cell_length_b                    10.901262
_cell_length_c                    15.442368
_cell_angle_alpha                 87.438404
_cell_angle_beta                  74.525815
_cell_angle_gamma                 91.114501
_cell_volume                      1554.35832129

loop_
_atom_site_label
_atom_site_type_symbol
_atom_type_description
_atom_site_fract_x
_atom_site_fract_y
_atom_site_fract_z
_atom_type_partial_charge
C1    C     C_R   0.994531 0.262991 0.510461 0.835508
C2    C     C_R   0.233989 0.566866 0.043684 0.162046
C3    C     C_R   0.329395 0.523542 0.093289 0.086726
C4    C     C_R   0.918989 0.499789 0.672599 0.780448
C5    C     C_R   0.087933 0.584716 0.087143 -0.214176
C6    C     C_R   0.035060 0.559579 0.179544 -0.208292
C7    C     C_R   0.271618 0.493677 0.185554 -0.240179
C8    C     C_R   0.206547 0.125353 0.581523 -0.105918
C9    C     C_R   0.341967 0.077112 0.572962 -0.138614
C10   C     C_R   0.373989 0.967723 0.530910 -0.163603
C11   C     C_R   0.265369 0.899054 0.508898 -0.148968
C12   C     C_R   0.675912 0.509978 0.909469 0.096114
C13   C     C_R   0.123819 0.943615 0.521109 0.039705
C14   C     C_R   0.104807 0.066888 0.544454 0.094047
C15   C     C_R   0.986647 0.129208 0.527881 -0.193604
C16   C     C_R   0.001017 0.738590 0.502101 0.805750
C17   C     C_R   0.865652 0.061616 0.521169 -0.302893
C18   C     C_R   0.867604 0.934021 0.522080 0.437016
C19   C     C_R   0.000632 0.873650 0.511737 -0.226057
C20   C     C_R   0.702193 0.655322 0.374559 -0.101175
C21   C     C_R   0.659511 0.728590 0.311052 -0.208110
C22   C     C_R   0.516265 0.728183 0.310313 -0.211496
C23   C     C_R   0.772854 0.478254 0.961032 0.116246
C24   C     C_R   0.414990 0.654736 0.373231 -0.187508
C25   C     C_R   0.454162 0.575252 0.437316 0.197664
C26   C     C_R   0.603540 0.575522 0.437683 0.216758
C27   C     C_R   0.546603 0.429387 0.560121 -0.076352
C28   C     C_R   0.081558 0.502117 0.327863 0.788429
C29   C     C_R   0.398700 0.430559 0.560680 -0.066878
C30   C     C_R   0.876078 0.497999 0.772386 -0.139796
C31   C     C_R   0.127554 0.515285 0.229267 -0.047331
C32   C     C_R   0.918413 0.459157 0.919292 -0.197766
C33   C     C_R   0.972795 0.471783 0.825822 0.012688
C34   C     C_R   0.528095 0.530965 0.953975 0.067715
C35   C     C_R   0.729898 0.516713 0.815185 -0.256697
C36   C     C_3   0.663017 0.860807 0.624688 0.072950
C37   C     C_3   0.556623 0.751017 0.644196 -0.772485
C38   C     C_2   0.130586 0.458210 0.788217 0.306939
C39   C     C_R   0.478755 0.511260 0.049284 0.062520
C40   C     C_R   0.580949 0.483166 0.097864 -0.208879
C41   C     C_R   0.724744 0.466938 0.054355 -0.225495
C42   C     C_R   0.428675 0.573385 0.906990 -0.185447
C43   C     C_R   0.285260 0.592580 0.951432 -0.188834
Cu1   Cu    Cu3+1 0.140660 0.499990 0.500010 0.922110
Cu2   Cu    Cu3+1 0.859340 0.500010 0.499990 0.939849
H1    H     H_    0.798981 0.444905 0.094392 0.152929
H2    H     H_    0.737936 0.788072 0.263289 0.152950
H3    H     H_    0.336204 0.452455 0.225523 0.156805
H4    H     H_    0.482309 0.788114 0.262452 0.161140
H5    H     H_    0.306485 0.670185 0.372117 0.197620
H6    H     H_    0.321205 0.375487 0.611545 0.137238
H7    H     H_    0.923195 0.577284 0.212131 0.151036
H8    H     H_    0.213528 0.627052 0.913003 0.137038
H9    H     H_    0.991126 0.436120 0.960187 0.174798
H10   H     H_    0.658876 0.533705 0.773017 0.157871
H11   H     H_    0.554765 0.476320 0.170218 0.151976
H12   H     H_    0.015135 0.620132 0.049845 0.137212
H13   H     H_    0.458589 0.596170 0.835831 0.135577
H14   H     H_    0.601909 0.945909 0.642258 0.138207
H15   H     H_    0.736197 0.848067 0.669638 0.131738
H16   H     H_    0.616356 0.664598 0.639640 0.264648
H17   H     H_    0.483849 0.754609 0.713171 0.185295
H18   H     H_    0.489946 0.750396 0.595618 0.242403
H19   H     H_    0.192345 0.519769 0.733985 0.099676
H20   H     H_    0.767877 0.106994 0.517228 0.176018
H21   H     H_    0.181257 0.208709 0.616767 0.139860
H22   H     H_    0.423016 0.126277 0.596282 0.126040
H23   H     H_    0.482495 0.934619 0.516693 0.189566
H24   H     H_    0.299407 0.815132 0.479398 0.173420
H25   H     H_    0.579187 0.371469 0.609515 0.143086
H26   H     H_    0.813307 0.666529 0.371912 0.192818
N1    N     N_R   0.648320 0.501210 0.499140 -0.205273
N2    N     N_R   0.352470 0.501290 0.499110 -0.199976
O1    O     O_R   0.118810 0.319640 0.500010 -0.575185
O2    O     O_2   0.194774 0.380284 0.820276 -0.553799
O3    O     O_R   0.881240 0.319660 0.500000 -0.575936
O4    O     O_R   0.055570 0.499980 0.629840 -0.604536
O5    O     O_R   0.818000 0.500010 0.629830 -0.590521
O6    O     O_R   0.118760 0.680340 0.500000 -0.621651
O7    O     O_R   0.881190 0.680360 0.499990 -0.537817
O8    O     O_R   0.182000 0.499990 0.370170 -0.593450
O9    O     O_R   0.944430 0.500020 0.370160 -0.600268
O10   O     O_3   0.738645 0.868793 0.532173 -0.573231

loop_
_geom_bond_atom_site_label_1
_geom_bond_atom_site_label_2
_ccdc_geom_bond_type
C8    H21   S    
C27   C29   A    
C26   N1    A    
Cu2   O9    S    
C34   C42   A    
C36   H14   S    
C42   H13   S    
C37   H17   S    
C12   C23   A    
C30   C35   A    
Cu2   O3    S    
C1    O1    A    
C36   C37   S    
C3    C7    A    
C5    C6    A    
C29   N2    A    
C36   O10   S    
C18   C19   A    
C43   H8    S    
C8    C9    A    
C40   H11   S    
C41   H1    S    
C20   H26   S    
Cu2   O5    S    
C1    C15   S    
C9    C10   A    
C6    C31   A    
C3    C39   A    
C13   C14   A    
Cu2   N1    S    
C32   H9    S    
C37   H18   S    
C17   C18   A    
C38   H19   S    
C38   O2    D    
C28   C31   S    
C24   H5    S    
C7    C31   A    
C13   C19   A    
C28   O9    A    
C34   C39   A    
C24   C25   A    
Cu1   O8    S    
C39   C40   A    
C25   C26   A    
C35   H10   S    
C16   O7    A    
C9    H22   S    
C4    O5    A    
C2    C43   A    
C18   O10   S    
C12   C35   A    
Cu1   O1    S    
C27   H25   S    
C22   H4    S    
C40   C41   A    
C22   C24   A    
C2    C5    A    
C42   C43   A    
C12   C34   A    
Cu1   Cu2   S    
C29   H6    S    
C15   C17   A    
Cu1   O4    S    
C8    C14   A    
C30   C33   A    
C28   O8    A    
C1    O3    A    
Cu1   O6    S    
C23   C32   A    
C36   H15   S    
C37   H16   S    
C11   H24   S    
C10   H23   S    
C17   H20   S    
C33   C38   S    
C23   C41   A    
C5    H12   S    
C16   O6    A    
C7    H3    S    
C2    C3    A    
C4    O4    A    
C32   C33   A    
C11   C13   A    
C20   C26   A    
C16   C19   S    
Cu2   O7    S    
C25   N2    A    
Cu1   N2    S    
C10   C11   A    
C20   C21   A    
C14   C15   A    
C6    H7    S    
C21   C22   A    
C4    C30   S    
C27   N1    A    
C21   H2    S    
