data_mof_unit_14436.cif
_audit_creation_date              2012-10-26T21:27:10-0400
_audit_creation_method            fapswitch 2.2
_symmetry_space_group_name_H-M    P1
_symmetry_Int_Tables_number       1
_space_group_crystal_system       triclinic
_cell_length_a                    12.278468
_cell_length_b                    12.278428
_cell_length_c                    23.89875
_cell_angle_alpha                 89.999654
_cell_angle_beta                  90.000348
_cell_angle_gamma                 89.99978
_cell_volume                      3602.98236788

loop_
_atom_site_label
_atom_site_type_symbol
_atom_type_description
_atom_site_fract_x
_atom_site_fract_y
_atom_site_fract_z
_atom_type_partial_charge
Br1   Br    Br    0.212176 0.016370 0.163313 -0.545284
Br2   Br    Br    0.784257 0.200933 0.249592 -0.567210
Br3   Br    Br    0.816065 0.770612 0.262018 -0.463918
Br4   Br    Br    0.200936 0.215750 0.749589 -0.567222
Br5   Br    Br    0.770608 0.183927 0.762014 -0.464002
Br6   Br    Br    0.215740 0.799060 0.249593 -0.567217
Br7   Br    Br    0.183930 0.229389 0.262016 -0.463943
Br8   Br    Br    0.799072 0.784259 0.749595 -0.567206
Br9   Br    Br    0.803968 0.995424 0.852647 -0.383437
Br10  Br    Br    0.983626 0.212179 0.663311 -0.545287
Br11  Br    Br    0.004592 0.803955 0.352640 -0.383450
Br12  Br    Br    0.787822 0.983626 0.163312 -0.545254
Br13  Br    Br    0.196049 0.004597 0.852632 -0.383478
Br14  Br    Br    0.016373 0.787826 0.663311 -0.545253
Br15  Br    Br    0.995414 0.196038 0.352642 -0.383451
Br16  Br    Br    0.229382 0.816055 0.762019 -0.463894
C1    C     C_3   1.000000 0.999998 0.251825 0.060749
C2    C     C_R   0.898572 0.999406 0.293553 0.019293
C3    C     C_R   0.999657 0.647791 0.921224 0.587134
C4    C     C_R   0.000037 0.348728 0.077705 0.610435
C5    C     C_R   0.352207 0.999658 0.421225 0.587119
C6    C     C_R   0.651272 0.000037 0.577705 0.610435
C7    C     C_R   0.000341 0.352206 0.921225 0.587125
C8    C     C_R   0.999963 0.651272 0.077705 0.610436
C9    C     C_R   0.647793 0.000342 0.421225 0.587119
C10   C     C_R   0.348728 0.999963 0.577705 0.610437
C11   C     C_R   0.085410 0.109096 0.167758 0.161843
C12   C     C_3   0.000002 0.000004 0.751824 0.060749
C13   C     C_R   0.920359 0.893803 0.838265 0.179636
C14   C     C_R   0.890903 0.085412 0.667757 0.161848
C15   C     C_R   0.106207 0.920352 0.338261 0.179647
C16   C     C_R   0.914587 0.890900 0.167758 0.161842
C17   C     C_R   0.079650 0.106214 0.838257 0.179654
C18   C     C_R   0.109101 0.914590 0.667758 0.161842
C19   C     C_R   0.893796 0.079645 0.338262 0.179642
C20   C     C_R   0.084368 0.814249 0.795733 0.228853
C21   C     C_R   0.913464 0.181825 0.204049 0.233015
C22   C     C_R   0.814252 0.915625 0.295735 0.228847
C23   C     C_R   0.999987 0.101237 0.209576 0.025212
C24   C     C_R   0.181827 0.086538 0.704048 0.233014
C25   C     C_R   0.915620 0.185749 0.795734 0.228804
C26   C     C_R   0.086534 0.818172 0.204049 0.233015
C27   C     C_R   0.185747 0.084375 0.295735 0.228825
C28   C     C_R   0.818177 0.913466 0.704049 0.233015
C29   C     C_R   0.090055 0.196155 0.129518 0.258915
C30   C     C_R   0.914688 0.805711 0.875165 0.254544
C31   C     C_R   0.803842 0.090057 0.629518 0.258920
C32   C     C_R   0.194302 0.914679 0.375159 0.254549
C33   C     C_R   0.909942 0.803841 0.129519 0.258914
C34   C     C_R   0.000594 0.898577 0.793554 0.019286
C35   C     C_R   0.085324 0.194308 0.875155 0.254551
C36   C     C_R   0.196159 0.909945 0.629518 0.258910
C37   C     C_R   0.805703 0.085317 0.375161 0.254548
C38   C     C_R   0.078196 0.728889 0.834996 0.250781
C39   C     C_R   0.910091 0.253566 0.157881 0.255799
C40   C     C_R   0.728902 0.921787 0.335003 0.250757
C41   C     C_R   0.253567 0.089910 0.657880 0.255799
C42   C     C_R   0.921773 0.271094 0.835006 0.250706
C43   C     C_R   0.089908 0.746433 0.157881 0.255799
C44   C     C_R   0.271096 0.078215 0.335003 0.250744
C45   C     C_R   0.898764 0.999989 0.709576 0.025215
C46   C     C_R   0.746435 0.910092 0.657882 0.255799
C47   C     C_R   0.999981 0.264492 0.122225 -0.020344
C48   C     C_R   0.997414 0.728280 0.876029 -0.024565
C49   C     C_R   0.735507 0.999981 0.622225 -0.020346
C50   C     C_R   0.271720 0.997417 0.376029 -0.024564
C51   C     C_R   0.000018 0.735507 0.122225 -0.020345
C52   C     C_R   0.002581 0.271721 0.876028 -0.024546
C53   C     C_R   0.264494 0.000020 0.622225 -0.020345
C54   C     C_R   0.728281 0.002583 0.376029 -0.024570
C55   C     C_3   0.258467 0.275395 0.126603 0.059535
C56   C     C_R   0.101429 0.000591 0.293552 0.019299
C57   C     C_3   0.344646 0.319200 0.086985 -0.364435
C58   C     C_3   0.740514 0.744485 0.889069 0.062032
C59   C     C_3   0.659729 0.711839 0.934164 -0.337841
C60   C     C_3   0.724594 0.258467 0.626605 0.059536
C61   C     C_3   0.680791 0.344652 0.586990 -0.364436
C62   C     C_3   0.255542 0.740508 0.389059 0.062037
C63   C     C_3   0.288191 0.659718 0.434152 -0.337829
C64   C     C_3   0.741532 0.724597 0.126607 0.059532
C65   C     C_3   0.655349 0.680791 0.086991 -0.364445
C66   C     C_3   0.259495 0.255546 0.889055 0.062038
C67   C     C_R   0.000011 0.898759 0.209577 0.025212
C68   C     C_3   0.340285 0.288188 0.934149 -0.337818
C69   C     C_3   0.275396 0.741531 0.626603 0.059531
C70   C     C_3   0.319198 0.655349 0.586986 -0.364440
C71   C     C_3   0.744470 0.259490 0.389061 0.062038
C72   C     C_3   0.711819 0.340277 0.434155 -0.337830
C73   C     C_3   0.134377 0.564408 0.800008 0.001832
C74   C     C_3   0.239113 0.519119 0.775129 -0.330848
C75   C     C_3   0.741236 0.268591 0.117727 0.055428
C76   C     C_3   0.655553 0.350908 0.099692 -0.361824
C77   C     C_3   0.564429 0.865500 0.300046 0.001846
C78   C     C_R   0.999409 0.101435 0.793549 0.019316
C79   C     C_3   0.519147 0.760716 0.275216 -0.330896
C80   C     C_3   0.268587 0.258764 0.617722 0.055427
C81   C     C_3   0.350901 0.344450 0.599688 -0.361831
C82   C     C_3   0.865323 0.435519 0.800056 0.001879
C83   C     C_3   0.760450 0.480831 0.775338 -0.330951
C84   C     C_3   0.258763 0.731411 0.117727 0.055426
C85   C     C_3   0.344450 0.649096 0.099695 -0.361826
C86   C     C_3   0.435547 0.134537 0.300038 0.001841
C87   C     C_3   0.480850 0.239344 0.275245 -0.330913
C88   C     C_3   0.731411 0.741236 0.617729 0.055429
C89   C     C_R   0.101241 0.000014 0.709577 0.025210
C90   C     C_3   0.649093 0.655556 0.599691 -0.361820
Cu1   Cu    Cu3+1 0.889520 0.500000 0.000000 0.959932
Cu2   Cu    Cu3+1 0.110480 0.500000 0.000000 0.959956
Cu3   Cu    Cu3+1 0.500000 0.889520 0.500000 0.959935
Cu4   Cu    Cu3+1 0.500000 0.110480 0.500000 0.959938
H1    H     H_    0.301238 0.225570 0.158465 0.194614
H2    H     H_    0.696780 0.649569 0.961741 0.153293
H3    H     H_    0.774414 0.301235 0.658470 0.194632
H4    H     H_    0.653467 0.219349 0.647635 0.166631
H5    H     H_    0.623683 0.307225 0.556735 0.150159
H6    H     H_    0.635665 0.407150 0.611256 0.074604
H7    H     H_    0.748866 0.384445 0.564259 0.170240
H8    H     H_    0.330714 0.765980 0.366421 0.134478
H9    H     H_    0.201615 0.696946 0.359323 0.220372
H10   H     H_    0.215914 0.635995 0.459282 0.190532
H11   H     H_    0.323522 0.585696 0.414566 0.103295
H12   H     H_    0.219354 0.346520 0.147636 0.166632
H13   H     H_    0.350452 0.696772 0.461734 0.153295
H14   H     H_    0.698763 0.774422 0.158469 0.194611
H15   H     H_    0.780649 0.653473 0.147639 0.166635
H16   H     H_    0.692775 0.623670 0.056743 0.150154
H17   H     H_    0.592844 0.635677 0.111259 0.074601
H18   H     H_    0.615565 0.748863 0.064254 0.170239
H19   H     H_    0.234023 0.330721 0.866419 0.134497
H20   H     H_    0.303055 0.201620 0.859318 0.220368
H21   H     H_    0.364000 0.215909 0.959280 0.190536
H22   H     H_    0.414312 0.323510 0.914563 0.103308
H23   H     H_    0.307220 0.376326 0.056739 0.150154
H24   H     H_    0.303236 0.350453 0.961730 0.153285
H25   H     H_    0.225570 0.698762 0.658465 0.194597
H26   H     H_    0.346523 0.780642 0.647636 0.166631
H27   H     H_    0.376329 0.692773 0.556741 0.150148
H28   H     H_    0.364298 0.592833 0.611253 0.074591
H29   H     H_    0.251125 0.615578 0.564244 0.170254
H30   H     H_    0.669300 0.234020 0.366421 0.134474
H31   H     H_    0.798400 0.303052 0.359328 0.220371
H32   H     H_    0.784091 0.363989 0.459291 0.190545
H33   H     H_    0.676502 0.414306 0.414568 0.103298
H34   H     H_    0.407158 0.364307 0.111252 0.074597
H35   H     H_    0.649546 0.303226 0.461731 0.153285
H36   H     H_    0.080162 0.588557 0.764537 0.151008
H37   H     H_    0.094353 0.498351 0.824117 0.114357
H38   H     H_    0.292695 0.487383 0.808806 0.163680
H39   H     H_    0.219557 0.452411 0.745546 0.151024
H40   H     H_    0.283299 0.583434 0.751757 0.186486
H41   H     H_    0.699383 0.203965 0.141990 0.203692
H42   H     H_    0.776814 0.230755 0.079455 0.161161
H43   H     H_    0.693728 0.417537 0.075208 0.161309
H44   H     H_    0.593636 0.310102 0.073131 0.090296
H45   H     H_    0.384423 0.251128 0.064245 0.170249
H46   H     H_    0.614900 0.386162 0.137056 0.155749
H47   H     H_    0.588543 0.919669 0.264550 0.150992
H48   H     H_    0.498385 0.905547 0.324153 0.114352
H49   H     H_    0.487497 0.707152 0.308923 0.163657
H50   H     H_    0.452376 0.780203 0.245659 0.151020
H51   H     H_    0.583444 0.716538 0.251829 0.186498
H52   H     H_    0.203958 0.300616 0.641984 0.203676
H53   H     H_    0.230755 0.223182 0.579450 0.161163
H54   H     H_    0.417541 0.306273 0.575214 0.161319
H55   H     H_    0.310097 0.406356 0.573119 0.090297
H56   H     H_    0.765979 0.669314 0.866429 0.134458
H57   H     H_    0.386138 0.385116 0.637052 0.155736
H58   H     H_    0.919342 0.411388 0.764504 0.151094
H59   H     H_    0.905483 0.501550 0.824122 0.114303
H60   H     H_    0.707024 0.512471 0.809104 0.163578
H61   H     H_    0.779830 0.547614 0.745770 0.150993
H62   H     H_    0.716167 0.416551 0.751989 0.186560
H63   H     H_    0.300612 0.796039 0.141990 0.203691
H64   H     H_    0.223184 0.769244 0.079454 0.161158
H65   H     H_    0.306277 0.582461 0.075216 0.161310
H66   H     H_    0.406361 0.689902 0.073131 0.090295
H67   H     H_    0.696953 0.798417 0.859335 0.220369
H68   H     H_    0.385108 0.613853 0.137060 0.155747
H69   H     H_    0.411409 0.080428 0.264523 0.151051
H70   H     H_    0.501590 0.094441 0.324127 0.114320
H71   H     H_    0.512521 0.292850 0.308970 0.163637
H72   H     H_    0.547609 0.219877 0.245677 0.151011
H73   H     H_    0.416556 0.283571 0.251877 0.186523
H74   H     H_    0.796034 0.699379 0.641993 0.203704
H75   H     H_    0.769251 0.776815 0.579458 0.161158
H76   H     H_    0.582466 0.693735 0.575209 0.161314
H77   H     H_    0.689899 0.593641 0.573129 0.090296
H78   H     H_    0.636017 0.784115 0.959297 0.190549
H79   H     H_    0.613839 0.614899 0.637054 0.155742
H80   H     H_    0.585699 0.676521 0.914578 0.103287
O1    O     O_R   0.907020 0.615090 0.941240 -0.504439
O2    O     O_R   0.092980 0.615090 0.941240 -0.474903
O3    O     O_R   0.384910 0.092980 0.558760 -0.504378
O4    O     O_R   0.615090 0.907020 0.441240 -0.474898
O5    O     O_R   0.092980 0.615090 0.058760 -0.504379
O6    O     O_R   0.907020 0.384910 0.941240 -0.474877
O7    O     O_R   0.615090 0.907020 0.558760 -0.504378
O8    O     O_R   0.384910 0.092980 0.441240 -0.474888
O9    O     O_3   0.182300 0.210834 0.096656 -0.484069
O10   O     O_3   0.830147 0.799459 0.913803 -0.482937
O11   O     O_3   0.789160 0.182304 0.596657 -0.484067
O12   O     O_R   0.092980 0.384910 0.058760 -0.486315
O13   O     O_3   0.200559 0.830133 0.413794 -0.482940
O14   O     O_3   0.817696 0.789160 0.096658 -0.484067
O15   O     O_3   0.169870 0.200562 0.913790 -0.482948
O16   O     O_3   0.210836 0.817700 0.596656 -0.484065
O17   O     O_3   0.799449 0.169862 0.413797 -0.482941
O18   O     O_3   0.159918 0.650901 0.836872 -0.493746
O19   O     O_3   0.821004 0.321990 0.150757 -0.501020
O20   O     O_3   0.650956 0.840027 0.336902 -0.493711
O21   O     O_3   0.321988 0.178999 0.650754 -0.501018
O22   O     O_3   0.839971 0.348994 0.836933 -0.493693
O23   O     O_R   0.384910 0.907020 0.441240 -0.504432
O24   O     O_3   0.178996 0.678010 0.150757 -0.501018
O25   O     O_3   0.349035 0.159981 0.336906 -0.493712
O26   O     O_3   0.678012 0.821003 0.650759 -0.501023
O27   O     O_R   0.615090 0.092980 0.558760 -0.486314
O28   O     O_R   0.092980 0.384910 0.941240 -0.504414
O29   O     O_R   0.907020 0.615090 0.058760 -0.486311
O30   O     O_R   0.615090 0.092980 0.441240 -0.504426
O31   O     O_R   0.384910 0.907020 0.558760 -0.486311
O32   O     O_R   0.907020 0.384910 0.058760 -0.504377

loop_
_geom_bond_atom_site_label_1
_geom_bond_atom_site_label_2
_ccdc_geom_bond_type
C71   C72   S    
C41   O21   S    
C27   C56   A    
C5    C50   S    
Cu4   O8    S    
C87   H72   S    
C86   H70   S    
C6    O7    A    
Cu3   O7    S    
C59   H78   S    
C5    O8    A    
C75   O19   S    
C17   C78   A    
C88   C90   S    
C43   O24   S    
C20   C34   A    
C83   H60   S    
C69   C70   S    
Br13  C17   S    
C88   H75   S    
C63   H11   S    
C32   O13   S    
C68   H24   S    
C59   H2    S    
C38   C48   A    
C36   O16   S    
C62   H8    S    
C44   O25   S    
C90   H77   S    
Cu3   O23   S    
C79   H51   S    
C75   H42   S    
C65   H16   S    
C73   O18   S    
C83   H61   S    
C64   H15   S    
C40   C54   A    
C31   O11   S    
C12   C78   S    
C1    C23   S    
Br15  C19   S    
Cu4   O27   S    
C32   C50   A    
C66   C68   S    
C74   H38   S    
C36   C53   A    
C55   H12   S    
C8    C51   S    
C43   C51   A    
C80   H52   S    
C82   H59   S    
C12   C34   S    
Br4   C24   S    
Br3   C22   S    
C11   C23   A    
C39   C47   A    
C7    O6    A    
Cu2   O12   S    
C72   H35   S    
C76   H43   S    
C85   H68   S    
Br7   C27   S    
C66   H20   S    
C61   H6    S    
Cu4   O30   S    
C2    C19   A    
C71   H30   S    
C72   H33   S    
C70   H27   S    
C74   H40   S    
C3    O2    A    
Cu1   O32   S    
Cu2   O28   S    
C12   C45   S    
C11   C29   A    
C7    O28   A    
C44   C50   A    
C77   C79   S    
C80   O21   S    
Br12  C16   S    
C86   H69   S    
C77   H48   S    
C46   O26   S    
Cu4   O3    S    
C74   H39   S    
C37   C54   A    
C72   H32   S    
Cu1   O6    S    
C69   O16   S    
C60   H3    S    
C84   H63   S    
C13   C34   A    
C73   H36   S    
C79   H49   S    
C58   C59   S    
C79   H50   S    
C14   C31   A    
C59   H80   S    
C62   O13   S    
C90   H76   S    
C19   C37   A    
C75   C76   S    
C55   C57   S    
C60   O11   S    
C83   H62   S    
C8    O5    A    
C28   C46   A    
C81   H57   S    
C63   H13   S    
C29   C47   A    
C71   H31   S    
C30   C48   A    
C1    C67   S    
C7    C52   S    
C42   O22   S    
C8    O29   A    
C6    C49   S    
C40   O20   S    
C39   O19   S    
Br10  C14   S    
C30   O10   S    
C25   C78   A    
C3    C48   S    
Cu1   Cu2   S    
C81   H54   S    
C84   O24   S    
C80   C81   S    
C57   H45   S    
C10   O31   A    
C1    C2    S    
Cu3   O4    S    
C76   H46   S    
C60   C61   S    
Cu2   O5    S    
C77   H47   S    
C88   O26   S    
C27   C44   A    
C69   H25   S    
Cu1   O29   S    
C70   H29   S    
C42   C52   A    
C15   C56   A    
C88   H74   S    
C12   C89   S    
C57   H23   S    
C38   O18   S    
C15   C32   A    
C65   H18   S    
C84   H64   S    
C87   H73   S    
C85   H65   S    
C29   O9    S    
C66   H19   S    
C25   C42   A    
C58   H56   S    
Cu3   O31   S    
C64   H14   S    
C73   H37   S    
C16   C67   A    
Br5   C25   S    
C24   C41   A    
C33   C51   A    
C46   C49   A    
C87   H71   S    
C18   C89   A    
C18   C36   A    
C6    O27   A    
C26   C67   A    
Br8   C28   S    
C58   O10   S    
C64   C65   S    
C85   H66   S    
C26   C43   A    
Br14  C18   S    
C35   O15   S    
C55   O9    S    
Br9   C13   S    
C28   C45   A    
C17   C35   A    
C68   H21   S    
C61   H7    S    
C80   H53   S    
C13   C30   A    
C55   H1    S    
C4    C47   S    
C62   H9    S    
C2    C22   A    
C4    O12   A    
C21   C23   A    
Cu3   Cu4   S    
Br16  C20   S    
C75   H41   S    
C62   C63   S    
Br2   C21   S    
C64   O14   S    
C60   H4    S    
C82   O22   S    
C81   H55   S    
C84   C85   S    
C37   O17   S    
C68   H22   S    
C71   O17   S    
C5    O23   A    
C35   C52   A    
C86   C87   S    
C16   C33   A    
C33   O14   S    
C20   C38   A    
C70   H28   S    
C69   H26   S    
Br11  C15   S    
C21   C39   A    
C63   H10   S    
C86   O25   S    
C58   H67   S    
C22   C40   A    
C1    C56   S    
C82   C83   S    
Br6   C26   S    
C14   C45   A    
Cu1   O1    S    
C77   O20   S    
Br1   C11   S    
C10   C53   S    
C4    O32   A    
Cu2   O2    S    
C9    O30   A    
C76   H44   S    
C9    C54   S    
C90   H79   S    
C41   C53   A    
C73   C74   S    
C61   H5    S    
C10   O3    A    
C31   C49   A    
C66   O15   S    
C82   H58   S    
C9    O4    A    
C65   H17   S    
C3    O1    A    
C24   C89   A    
C57   H34   S    
