data_mof_unit_61619.cif
_audit_creation_date              2012-12-10T19:37:08-0500
_audit_creation_method            fapswitch 2.2
_symmetry_space_group_name_H-M    P1
_symmetry_Int_Tables_number       1
_space_group_crystal_system       triclinic
_cell_length_a                    14.341431
_cell_length_b                    15.860294
_cell_length_c                    16.961071
_cell_angle_alpha                 95.491844
_cell_angle_beta                  90.984393
_cell_angle_gamma                 91.990178
_cell_volume                      3837.11316931

loop_
_atom_site_label
_atom_site_type_symbol
_atom_type_description
_atom_site_fract_x
_atom_site_fract_y
_atom_site_fract_z
_atom_type_partial_charge
C1    C     C_R   0.498734 0.490079 0.348735 0.888472
C2    C     C_R   0.555649 0.159018 0.530467 0.239921
C3    C     C_R   0.514513 0.891237 0.519632 0.067315
C4    C     C_R   0.492743 0.108913 0.478369 0.048576
C5    C     C_R   0.578606 0.847989 0.563115 0.216958
C6    C     C_R   0.434104 0.150990 0.428944 0.214385
C7    C     C_R   0.571314 0.757973 0.561500 0.449304
C8    C     C_R   0.431032 0.240775 0.437545 0.452982
C9    C     C_R   0.331002 0.500272 0.499868 0.817162
C10   C     C_R   0.668997 0.499735 0.500242 0.817088
C11   C     C_1   0.228742 0.500726 0.499895 -0.172653
C12   C     C_R   0.501416 0.509782 0.651364 0.883634
C13   C     C_1   0.771257 0.499216 0.500233 -0.172761
C14   C     C_1   0.143341 0.500535 0.499926 -0.000969
C15   C     C_1   0.856645 0.499213 0.500174 0.004730
C16   C     C_1   0.042698 0.500024 0.499993 0.014201
C17   C     C_1   0.957278 0.499575 0.500073 0.015822
C18   C     C_R   0.494684 0.485190 0.262702 -0.194167
C19   C     C_R   0.513062 0.513113 0.737117 -0.217354
C20   C     C_R   0.411500 0.504364 0.225469 -0.378005
C21   C     C_R   0.585204 0.467519 0.767098 -0.342860
C22   C     C_R   0.405858 0.504053 0.142936 0.447149
C23   C     C_R   0.565233 0.454662 0.134724 0.392964
C24   C     C_R   0.597562 0.464494 0.848802 0.437892
C25   C     C_R   0.483134 0.480949 0.097383 0.130884
C26   C     C_R   0.538635 0.510141 0.900692 0.138007
C27   C     C_3   0.661195 0.333942 0.850936 -0.252726
C28   C     C_3   0.299344 0.605874 0.127701 -0.224733
C29   C     C_3   0.624678 0.339683 0.066578 -0.191324
C30   C     C_3   0.456118 0.683447 0.949079 -0.260612
C31   C     C_3   0.695145 0.298706 0.587514 -0.236459
C32   C     C_3   0.412094 0.717017 0.332793 -0.247852
C33   C     C_3   0.695825 0.095913 0.527260 -0.257798
C34   C     C_R   0.468715 0.560371 0.870943 0.408154
C35   C     C_3   0.299164 0.887310 0.481624 -0.191497
C36   C     C_3   0.733236 0.884705 0.574206 -0.261554
C37   C     C_3   0.423096 0.094753 0.301235 -0.222369
C38   C     C_3   0.608868 0.734887 0.689344 -0.218574
C39   C     C_3   0.279649 0.270918 0.412383 -0.214554
C40   C     C_R   0.571610 0.459507 0.217641 0.035753
C41   C     C_R   0.454535 0.560055 0.788871 0.030808
C42   C     C_R   0.451067 0.752779 0.462778 0.456267
C43   C     C_R   0.550358 0.248932 0.537608 0.472471
C44   C     C_R   0.447033 0.842559 0.471665 0.202442
Cu1   Cu    Cu3+1 0.495850 0.415220 0.496180 1.013772
Cu2   Cu    Cu3+1 0.504150 0.584780 0.503820 1.023048
H1    H     H_    0.632278 0.434693 0.726560 0.192380
H2    H     H_    0.687480 0.315723 0.035858 0.190837
H3    H     H_    0.564532 0.329254 0.024039 0.151545
H4    H     H_    0.407959 0.721189 0.987541 0.181449
H5    H     H_    0.474583 0.721032 0.899001 0.154815
H6    H     H_    0.519480 0.673632 0.985355 0.155986
H7    H     H_    0.725499 0.360048 0.614992 0.152195
H8    H     H_    0.714828 0.293481 0.524002 0.139399
H9    H     H_    0.727232 0.248669 0.619197 0.187690
H10   H     H_    0.371242 0.669773 0.292946 0.157134
H11   H     H_    0.487379 0.707278 0.321181 0.149290
H12   H     H_    0.350926 0.519298 0.260717 0.174968
H13   H     H_    0.392390 0.780237 0.316628 0.192812
H14   H     H_    0.675635 0.040370 0.484895 0.176712
H15   H     H_    0.753405 0.077247 0.565654 0.180034
H16   H     H_    0.723850 0.147494 0.493386 0.107118
H17   H     H_    0.243757 0.919680 0.450979 0.182828
H18   H     H_    0.315821 0.925687 0.538899 0.155645
H19   H     H_    0.270735 0.823302 0.492374 0.163054
H20   H     H_    0.731447 0.899425 0.511302 0.129693
H21   H     H_    0.758654 0.819855 0.578163 0.192739
H22   H     H_    0.784603 0.929638 0.606770 0.174988
H23   H     H_    0.588751 0.307439 0.855789 0.155024
H24   H     H_    0.489172 0.060700 0.306612 0.149909
H25   H     H_    0.437245 0.157275 0.278242 0.167771
H26   H     H_    0.377415 0.056287 0.257075 0.179449
H27   H     H_    0.532603 0.739414 0.699901 0.160617
H28   H     H_    0.646551 0.794252 0.713540 0.192933
H29   H     H_    0.634114 0.683427 0.723241 0.167710
H30   H     H_    0.272014 0.280376 0.477914 0.139550
H31   H     H_    0.250062 0.207692 0.389028 0.192168
H32   H     H_    0.237377 0.319050 0.386463 0.167951
H33   H     H_    0.707382 0.297849 0.887424 0.175319
H34   H     H_    0.685162 0.323755 0.788945 0.172385
H35   H     H_    0.247899 0.625040 0.083832 0.206343
H36   H     H_    0.360382 0.651492 0.128562 0.128601
H37   H     H_    0.265201 0.610150 0.186136 0.141846
H38   H     H_    0.613564 0.302057 0.118023 0.142384
I1    I     I_    0.698640 0.428316 0.273126 -0.350263
I2    I     I_    0.341273 0.627249 0.745573 -0.342409
N1    N     N_2   0.475136 0.485702 0.014474 -0.140792
N2    N     N_2   0.550014 0.503751 0.982805 -0.138975
N3    N     N_R   0.510380 0.712130 0.509560 -0.275573
N4    N     N_R   0.489620 0.287870 0.490440 -0.283731
N5    N     N_2   0.518196 0.982577 0.528729 -0.085054
N6    N     N_2   0.488197 0.017447 0.470563 -0.104689
O1    O     O_R   0.496120 0.420530 0.382500 -0.522504
O2    O     O_3   0.323647 0.521767 0.104692 -0.526956
O3    O     O_3   0.640460 0.426625 0.090932 -0.508904
O4    O     O_3   0.410355 0.605711 0.921891 -0.510235
O5    O     O_3   0.597797 0.297975 0.598599 -0.530885
O6    O     O_3   0.389215 0.705079 0.411735 -0.527849
O7    O     O_3   0.620733 0.121782 0.575881 -0.510862
O8    O     O_3   0.377663 0.881785 0.432783 -0.534544
O9    O     O_3   0.645610 0.894787 0.609826 -0.531363
O10   O     O_3   0.376551 0.103802 0.373914 -0.536948
O11   O     O_3   0.629281 0.714930 0.608611 -0.544380
O12   O     O_R   0.503880 0.579470 0.617500 -0.542271
O13   O     O_3   0.373013 0.281965 0.389088 -0.532419
O14   O     O_R   0.503120 0.563720 0.388950 -0.560194
O15   O     O_R   0.496880 0.436280 0.611050 -0.528511
O16   O     O_R   0.372550 0.428390 0.496770 -0.550167
O17   O     O_R   0.627450 0.571610 0.503230 -0.520237
O18   O     O_R   0.379550 0.571580 0.503220 -0.512866
O19   O     O_R   0.620450 0.428420 0.496780 -0.553886
O20   O     O_3   0.669347 0.420465 0.879745 -0.537147

loop_
_geom_bond_atom_site_label_1
_geom_bond_atom_site_label_2
_ccdc_geom_bond_type
N1    N2    D    
C24   O20   S    
C30   H5    S    
Cu1   O1    S    
C8    O13   S    
C36   H21   S    
Cu2   N3    S    
C29   H3    S    
Cu1   Cu2   S    
C9    O16   A    
C41   I2    S    
C1    C18   S    
C39   H31   S    
C28   O2    S    
C19   C21   A    
C34   O4    S    
C12   O12   A    
C27   H33   S    
C42   O6    S    
C37   O10   S    
C11   C14   T    
C36   H20   S    
C35   H19   S    
C23   C40   A    
C7    N3    A    
C25   N1    S    
C10   O17   A    
C3    N5    S    
C18   C40   A    
C30   O4    S    
C26   C34   A    
C23   O3    S    
C16   C17   T    
C22   C25   A    
C35   H18   S    
C27   H23   S    
Cu1   O16   S    
C1    O14   A    
C4    N6    S    
C31   O5    S    
C30   H4    S    
C7    O11   S    
C37   H24   S    
C28   H37   S    
C22   O2    S    
C37   H26   S    
C34   C41   A    
C42   C44   A    
C32   H11   S    
C38   H29   S    
C5    O9    S    
C3    C44   A    
C43   N4    A    
C29   H2    S    
C28   H36   S    
C39   H32   S    
C29   H38   S    
C4    C6    A    
C27   H34   S    
N5    N6    D    
C5    C7    A    
C33   H16   S    
C6    C8    A    
Cu2   O12   S    
C1    O1    A    
C36   O9    S    
C33   O7    S    
C40   I1    S    
C2    C4    A    
C38   O11   S    
C2    C43   A    
C36   H22   S    
C10   O19   A    
C39   H30   S    
C31   H7    S    
Cu1   N4    S    
C9    C11   S    
C33   H15   S    
C20   C22   A    
C27   O20   S    
C33   H14   S    
C37   H25   S    
C14   C16   S    
Cu2   O17   S    
C8    N4    A    
C20   H12   S    
C35   O8    S    
C29   O3    S    
C38   H28   S    
C9    O18   A    
C39   O13   S    
C30   H6    S    
C28   H35   S    
C43   O5    S    
C24   C26   A    
C3    C5    A    
C10   C13   S    
C2    O7    S    
C12   O15   A    
Cu1   O19   S    
C15   C17   S    
C42   N3    A    
C13   C15   T    
Cu2   O18   S    
C44   O8    S    
Cu2   O14   S    
C12   C19   S    
C32   O6    S    
C18   C20   A    
C6    O10   S    
C31   H8    S    
C19   C41   A    
C23   C25   A    
C26   N2    S    
C21   C24   A    
C35   H17   S    
C32   H13   S    
C31   H9    S    
C32   H10   S    
Cu1   O15   S    
C21   H1    S    
C38   H27   S    
