data_mof_unit_15994.cif
_audit_creation_date              2012-12-11T14:40:14-0500
_audit_creation_method            fapswitch 2.2
_symmetry_space_group_name_H-M    P1
_symmetry_Int_Tables_number       1
_space_group_crystal_system       triclinic
_cell_length_a                    19.478902
_cell_length_b                    10.922253
_cell_length_c                    19.435298
_cell_angle_alpha                 89.870996
_cell_angle_beta                  97.832001
_cell_angle_gamma                 89.962913
_cell_volume                      4096.34423143

loop_
_atom_site_label
_atom_site_type_symbol
_atom_type_description
_atom_site_fract_x
_atom_site_fract_y
_atom_site_fract_z
_atom_type_partial_charge
C1    C     C_R   0.727597 0.946656 0.358542 0.575585
C2    C     C_R   0.272409 0.947006 0.641290 0.584139
C3    C     C_R   0.226005 0.450925 0.360754 0.599711
C4    C     C_R   0.774175 0.451634 0.639001 0.582193
C5    C     C_3   0.674616 0.346728 0.488105 -0.176401
C6    C     C_3   0.326020 0.351114 0.512831 -0.173893
C7    C     C_3   0.206568 0.766847 0.498467 -0.151428
C8    C     C_3   0.789910 0.764745 0.501974 -0.156004
C9    C     C_3   0.730659 0.338842 0.439682 -0.028410
C10   C     C_3   0.269504 0.339383 0.560504 -0.027127
C11   C     C_3   0.232249 0.842751 0.440477 -0.018035
C12   C     C_3   0.767340 0.844599 0.559727 -0.017075
C13   C     C_3   0.758733 0.463757 0.462956 0.417002
C14   C     C_3   0.238749 0.462291 0.536274 0.419173
C15   C     C_3   0.205260 0.959945 0.469442 0.404215
C16   C     C_3   0.797147 0.958234 0.529400 0.405495
C17   C     C_3   0.810124 0.402797 0.519135 -0.150429
C18   C     C_3   0.189491 0.397872 0.479943 -0.145558
C19   C     C_3   0.276671 0.979711 0.512564 -0.132373
C20   C     C_3   0.725889 0.983258 0.486968 -0.127996
C21   C     C_3   0.781919 0.275718 0.495616 -0.116184
C22   C     C_3   0.220395 0.272828 0.504474 -0.116669
C23   C     C_3   0.303966 0.860933 0.483556 -0.123976
C24   C     C_3   0.695759 0.868143 0.517447 -0.117599
C25   C     C_3   0.726536 0.285211 0.545079 0.392271
C26   C     C_3   0.276204 0.286135 0.455682 0.392723
C27   C     C_3   0.278257 0.787066 0.541956 0.416368
C28   C     C_3   0.718492 0.790219 0.459288 0.419307
C29   C     C_3   0.754353 0.410498 0.568326 -0.008574
C30   C     C_3   0.245734 0.409516 0.431478 -0.010408
C31   C     C_3   0.251488 0.904201 0.571165 -0.004048
C32   C     C_3   0.748147 0.903694 0.428649 -0.001586
C33   C     C_3   0.549404 0.187070 0.958590 0.369870
C34   C     C_3   0.533389 0.279820 0.012984 0.354029
C35   C     C_3   0.047107 0.772532 0.967007 0.374359
C36   C     C_3   0.997579 0.771323 0.021464 0.390849
C37   C     C_3   0.547280 0.079802 0.010282 -0.177680
C38   C     C_3   0.454803 0.267410 0.989965 -0.170787
C39   C     C_3   0.094191 0.675742 0.007975 -0.236141
C40   C     C_3   0.954196 0.668757 0.983044 -0.176129
C41   C     C_3   0.530503 0.174244 0.064417 -0.060283
C42   C     C_3   0.471359 0.173498 0.935512 -0.053556
C43   C     C_3   0.043517 0.674812 0.062643 -0.076036
C44   C     C_3   0.004586 0.670322 0.928133 -0.039668
C45   C     C_R   0.534842 0.179827 0.337758 0.558696
C46   C     C_R   0.465031 0.179959 0.662157 0.556910
C47   C     C_R   0.034083 0.679959 0.337177 0.542038
C48   C     C_R   0.936177 0.683616 0.651637 0.511388
C49   C     C_3   0.452505 0.160173 0.041331 0.373975
C50   C     C_3   0.468363 0.067393 0.986573 0.351151
C51   C     C_3   0.000990 0.572025 0.023723 0.387120
C52   C     C_3   0.050176 0.573116 0.968386 0.364397
C53   C     C_1   0.757221 0.408243 0.899503 0.060503
C54   C     C_1   0.219358 0.472330 0.085670 0.035748
C55   C     C_1   0.275294 0.956400 0.911341 0.096722
C56   C     C_1   0.742815 0.908859 0.100434 0.032114
C57   C     C_1   0.733244 0.358014 0.025310 0.074178
C58   C     C_1   0.242978 0.435872 0.958585 0.042681
C59   C     C_1   0.245299 0.895529 0.032761 0.060378
C60   C     C_1   0.766825 0.858536 0.974678 0.021411
C61   C     C_1   0.744265 0.382143 0.956495 0.068385
C62   C     C_1   0.230798 0.456251 0.027189 0.040156
C63   C     C_1   0.260718 0.928707 0.967149 0.083972
C64   C     C_1   0.755796 0.882831 0.043468 0.021333
C65   C     C_1   0.726722 0.338150 0.084982 0.063145
C66   C     C_1   0.252565 0.409968 0.900656 0.045030
C67   C     C_1   0.234181 0.863409 0.089078 0.047492
C68   C     C_1   0.773282 0.838388 0.915037 0.028131
C69   C     C_R   0.723742 0.306645 0.366947 0.572040
C70   C     C_R   0.276322 0.306847 0.633169 0.571455
C71   C     C_R   0.224522 0.809162 0.367600 0.566756
C72   C     C_R   0.775316 0.809989 0.632400 0.545463
C73   C     C_R   0.722689 0.950741 0.164473 0.537460
C74   C     C_R   0.293254 0.991705 0.845773 0.543249
C75   C     C_R   0.205033 0.496403 0.154417 0.513596
C76   C     C_R   0.777287 0.450454 0.835464 0.557275
C77   C     C_R   0.560387 0.182332 0.136105 0.555572
C78   C     C_R   0.440561 0.181887 0.864116 0.554958
C79   C     C_R   0.063670 0.682739 0.137182 0.523796
C80   C     C_R   0.973076 0.678506 0.856933 0.588816
C81   C     C_R   0.721772 0.310138 0.156070 0.534746
C82   C     C_R   0.263363 0.362625 0.834671 0.560762
C83   C     C_R   0.224109 0.818626 0.155557 0.500849
C84   C     C_R   0.778231 0.810122 0.843990 0.548667
C85   C     C_1   0.486324 0.171526 0.594983 0.021435
C86   C     C_1   0.513222 0.171109 0.404796 0.026766
C87   C     C_1   0.955274 0.675946 0.583350 0.003338
C88   C     C_1   0.004850 0.671888 0.400554 0.020359
C89   C     C_1   0.503406 0.167079 0.464436 -0.014687
C90   C     C_1   0.495933 0.167305 0.535295 -0.017986
C91   C     C_1   0.986514 0.669603 0.457134 -0.009838
C92   C     C_1   0.969397 0.671435 0.525095 -0.021096
C93   C     C_3   0.703290 0.474579 0.512118 -0.123941
C94   C     C_3   0.294631 0.476958 0.487873 -0.125003
C95   C     C_3   0.179461 0.886675 0.528675 -0.152793
C96   C     C_3   0.819989 0.880784 0.470384 -0.154216
Cr1   Cr    Cr6+3 0.765830 0.160660 0.268180 1.064759
Cr2   Cr    Cr6+3 0.234170 0.160660 0.731820 1.079844
Cr3   Cr    Cr6+3 0.265830 0.660660 0.268180 1.064249
Cr4   Cr    Cr6+3 0.734170 0.660660 0.731820 1.060458
Cr5   Cr    Cr6+3 0.612110 0.009150 0.248770 1.102294
Cr6   Cr    Cr6+3 0.387890 0.009150 0.751230 1.118081
Cr7   Cr    Cr6+3 0.112110 0.509150 0.248770 1.117901
Cr8   Cr    Cr6+3 0.887890 0.509150 0.751230 1.109755
Cr9   Cr    Cr6+3 0.615930 0.324050 0.248450 1.133549
Cr10  Cr    Cr6+3 0.384070 0.324050 0.751550 1.104234
Cr11  Cr    Cr6+3 0.115930 0.824050 0.248450 1.143092
Cr12  Cr    Cr6+3 0.884070 0.824050 0.751550 1.146229
H1    H     H_    0.671906 0.556253 0.521245 0.180078
H2    H     H_    0.324355 0.560558 0.478550 0.176184
H3    H     H_    0.129150 0.898752 0.548636 0.156362
H4    H     H_    0.870149 0.887316 0.449535 0.151353
H5    H     H_    0.307114 0.065186 0.521571 0.140292
H6    H     H_    0.697362 0.070588 0.477106 0.134892
H7    H     H_    0.865539 0.428160 0.532451 0.146064
H8    H     H_    0.133591 0.419344 0.465868 0.151081
O1    O     O_R   0.783230 0.287800 0.346510 -0.468303
O2    O     O_R   0.216770 0.287800 0.653490 -0.469998
O3    O     O_R   0.283230 0.787800 0.346510 -0.495366
O4    O     O_R   0.716770 0.787800 0.653490 -0.494976
O5    O     O_R   0.554500 0.081650 0.170370 -0.457398
O6    O     O_R   0.445500 0.081650 0.829630 -0.446848
O7    O     O_R   0.054500 0.581650 0.170370 -0.443141
O8    O     O_R   0.945500 0.581650 0.829630 -0.470547
O9    O     O_R   0.545430 0.285140 0.163100 -0.434496
O10   O     O_R   0.454570 0.285140 0.836900 -0.455773
O11   O     O_R   0.045430 0.785140 0.163100 -0.426160
O12   O     O_R   0.954570 0.785140 0.836900 -0.462772
O13   O     O_R   0.677850 0.374730 0.185500 -0.455468
O14   O     O_R   0.322150 0.374730 0.814500 -0.511759
O15   O     O_R   0.177850 0.874730 0.185500 -0.463184
O16   O     O_R   0.822150 0.874730 0.814500 -0.454317
O17   O     O_3   0.664630 0.164620 0.255130 -0.370401
O18   O     O_3   0.335370 0.164620 0.744870 -0.365098
O19   O     O_3   0.164630 0.664620 0.255130 -0.387332
O20   O     O_3   0.835370 0.664620 0.744870 -0.367591
O21   O     O_R   0.760130 0.037060 0.338610 -0.541864
O22   O     O_R   0.239870 0.037060 0.661390 -0.538306
O23   O     O_R   0.260130 0.537060 0.338610 -0.525099
O24   O     O_R   0.739870 0.537060 0.661390 -0.531584
O25   O     O_R   0.666620 0.921370 0.332440 -0.448284
O26   O     O_R   0.333380 0.921370 0.667560 -0.452427
O27   O     O_R   0.166620 0.421370 0.332440 -0.474705
O28   O     O_R   0.833380 0.421370 0.667560 -0.481763
O29   O     O_R   0.557170 0.082420 0.312350 -0.485152
O30   O     O_R   0.442830 0.082420 0.687650 -0.491283
O31   O     O_R   0.057170 0.582420 0.312350 -0.496757
O32   O     O_R   0.942830 0.582420 0.687650 -0.480892
O33   O     O_R   0.548310 0.285980 0.316250 -0.505024
O34   O     O_R   0.451690 0.285980 0.683750 -0.501062
O35   O     O_R   0.048310 0.785980 0.316250 -0.492717
O36   O     O_R   0.951690 0.785980 0.683750 -0.472434
O37   O     O_R   0.680520 0.375500 0.327470 -0.421163
O38   O     O_R   0.319480 0.375500 0.672530 -0.424841
O39   O     O_R   0.180520 0.875500 0.327470 -0.396429
O40   O     O_R   0.819480 0.875500 0.672530 -0.409865
O41   O     O_R   0.780350 0.286970 0.193350 -0.466531
O42   O     O_R   0.219650 0.286970 0.806650 -0.473692
O43   O     O_R   0.280350 0.786970 0.193350 -0.466861
O44   O     O_R   0.719650 0.786970 0.806650 -0.469393
O45   O     O_R   0.757460 0.036290 0.196640 -0.507286
O46   O     O_R   0.242540 0.036290 0.803360 -0.484956
O47   O     O_R   0.257460 0.536290 0.196640 -0.489123
O48   O     O_R   0.742540 0.536290 0.803360 -0.508116
O49   O     O_R   0.663740 0.920540 0.179290 -0.496495
O50   O     O_R   0.336260 0.920540 0.820710 -0.456618
O51   O     O_R   0.163740 0.420540 0.179290 -0.437904
O52   O     O_R   0.836260 0.420540 0.820710 -0.469745
H9    H     H_    0.619320 0.322874 0.473834 0.133997
H10   H     H_    0.381765 0.331194 0.527981 0.136832
H11   H     H_    0.175953 0.681944 0.487599 0.147996
H12   H     H_    0.817376 0.676945 0.513447 0.135935
F1    F     F_    0.776612 0.548043 0.415303 -0.560881
F2    F     F_    0.217875 0.545044 0.582979 -0.559304
F3    F     F_    0.166500 0.045131 0.428091 -0.575345
F4    F     F_    0.838678 0.041185 0.569360 -0.577637
H13   H     H_    0.814475 0.197661 0.483714 0.192822
H14   H     H_    0.189464 0.193188 0.517232 0.188929
H15   H     H_    0.355151 0.849708 0.465220 0.167576
H16   H     H_    0.644743 0.862585 0.536724 0.168178
F5    F     F_    0.710240 0.195720 0.590600 -0.577359
F6    F     F_    0.295160 0.197914 0.410943 -0.574259
F7    F     F_    0.318182 0.702467 0.582580 -0.561901
F8    F     F_    0.676093 0.707374 0.420213 -0.562972
H17   H     H_    0.585527 0.004174 0.019833 0.153942
H18   H     H_    0.416622 0.343234 0.980777 0.150811
H19   H     H_    0.151457 0.679438 0.018261 0.094928
H20   H     H_    0.896747 0.665450 0.972197 0.121457
F9    F     F_    0.598488 0.202613 0.914186 -0.575530
F10   F     F_    0.568108 0.389095 0.027404 -0.583800
F11   F     F_    0.070454 0.876435 0.936701 -0.558619
F12   F     F_    0.969976 0.875110 0.047831 -0.542603
F13   F     F_    0.403398 0.144560 0.085706 -0.560845
F14   F     F_    0.433519 0.958454 0.971672 -0.589187
F15   F     F_    0.977511 0.467789 0.053575 -0.544591
F16   F     F_    0.075809 0.470491 0.939081 -0.568116

loop_
_geom_bond_atom_site_label_1
_geom_bond_atom_site_label_2
_ccdc_geom_bond_type
C58   C62   S    
Cr9   O37   S    
C67   C83   S    
C72   O40   A    
C7    H11   S    
C17   C29   S    
C14   C18   S    
C19   C23   S    
C35   C36   S    
C8    C96   S    
Cr1   O17   S    
C22   H14   S    
C44   C80   S    
C19   C31   S    
Cr5   O5    S    
C84   O44   A    
C68   C84   S    
Cr7   O31   S    
C38   C49   S    
C6    C26   S    
C10   C22   S    
C15   C19   S    
C96   H4    S    
Cr5   O29   S    
C4    O28   A    
Cr3   O3    S    
Cr2   O22   S    
Cr10  O34   S    
C33   C42   S    
C75   O47   A    
C9    C69   S    
C38   C42   S    
C6    H10   S    
Cr3   O43   S    
C15   C95   S    
C82   O42   A    
C1    O21   A    
C11   C71   S    
C66   C82   S    
C19   H5    S    
C43   C79   S    
C7    C27   S    
C33   F9    S    
C95   H3    S    
C41   C49   S    
C57   C61   S    
C9    C13   S    
C7    C11   S    
C73   O45   A    
C69   O1    A    
Cr4   O24   S    
C59   C67   T    
C43   C51   S    
Cr12  O36   S    
C55   C74   S    
Cr5   O25   S    
C58   C66   T    
C37   H17   S    
C20   C24   S    
C6    C94   S    
C55   C63   T    
C24   H16   S    
Cr11  O19   S    
Cr8   O28   S    
C76   O52   A    
C18   C30   S    
C23   C27   S    
C82   O14   A    
Cr8   O32   S    
C23   H15   S    
C4    C29   S    
C8    C12   S    
C46   C85   S    
C39   H19   S    
C44   C52   S    
C21   H13   S    
C39   C52   S    
C12   C72   S    
Cr7   O7    S    
Cr6   O50   S    
C70   O38   A    
C87   C92   T    
Cr1   O1    S    
Cr3   O23   S    
C34   C41   S    
C11   C15   S    
Cr1   O21   S    
Cr2   O46   S    
C25   F5    S    
Cr2   O2    S    
C27   F7    S    
Cr9   O33   S    
C25   C29   S    
C34   F10   S    
C47   O31   A    
C16   C96   S    
C81   O41   A    
C13   F1    S    
C27   C31   S    
C51   C52   S    
C2    O22   A    
C12   C16   S    
C36   C40   S    
C3    O27   A    
C73   O49   A    
C10   C14   S    
C18   H8    S    
C91   C92   S    
C74   O46   A    
C77   O5    A    
C29   C93   S    
C34   C38   S    
C39   C43   S    
C80   O12   A    
Cr10  O38   S    
C38   H18   S    
C79   O7    A    
C94   H2    S    
C1    C32   S    
C33   C37   S    
C13   C93   S    
C2    C31   S    
Cr1   O41   S    
C3    C30   S    
C35   C39   S    
Cr6   O18   S    
C5    C9    S    
C4    O24   A    
Cr4   O44   S    
Cr10  O18   S    
C65   C81   S    
Cr12  O40   S    
C88   C91   T    
C28   C32   S    
C16   C20   S    
C71   O39   A    
Cr5   O17   S    
C72   O4    A    
C56   C64   T    
C33   C34   S    
C48   C87   S    
Cr3   O19   S    
Cr4   O48   S    
Cr7   O51   S    
Cr12  O12   S    
Cr5   O49   S    
C35   C44   S    
Cr10  O10   S    
Cr6   O6    S    
C42   C50   S    
C5    C25   S    
C10   C70   S    
Cr11  O15   S    
C46   O34   A    
C47   O35   A    
C26   C30   S    
C89   C90   S    
Cr1   O45   S    
C71   O3    A    
C48   O36   A    
Cr9   O13   S    
C81   O13   A    
C2    O26   A    
C45   O29   A    
C76   O48   A    
C53   C76   S    
C3    O23   A    
C53   C61   T    
C78   O10   A    
C26   F6    S    
C74   O50   A    
C79   O11   A    
C77   O9    A    
C17   H7    S    
Cr9   O17   S    
C20   C32   S    
Cr10  O14   S    
C21   C25   S    
C35   F11   S    
C56   C73   S    
Cr8   O20   S    
C32   C96   S    
C36   F12   S    
C15   F3    S    
C24   C28   S    
C57   C65   T    
C52   F16   S    
C86   C89   T    
Cr7   O27   S    
Cr2   O18   S    
C6    C10   S    
C5    C93   S    
C7    C95   S    
C8    H12   S    
C42   C78   S    
C40   H20   S    
C13   C17   S    
Cr11  O39   S    
C40   C51   S    
C54   C62   T    
C12   C24   S    
C59   C63   S    
Cr12  O20   S    
Cr9   O9    S    
C60   C64   S    
C85   C90   T    
C18   C22   S    
C83   O15   A    
C28   F8    S    
Cr11  O35   S    
Cr8   O52   S    
C14   F2    S    
C51   F15   S    
C47   C88   S    
C41   C77   S    
C37   C50   S    
C50   F14   S    
C9    C21   S    
C46   O30   A    
C49   F13   S    
C70   O2    A    
C31   C95   S    
C48   O32   A    
C11   C23   S    
C84   O16   A    
C45   C86   S    
C45   O33   A    
C37   C41   S    
Cr4   O4    S    
C78   O6    A    
Cr7   O19   S    
Cr12  O16   S    
C1    O25   A    
C16   F4    S    
Cr11  O11   S    
C54   C75   S    
Cr2   O42   S    
C40   C44   S    
C83   O43   A    
C60   C68   T    
C8    C28   S    
C30   C94   S    
C49   C50   S    
C22   C26   S    
C69   O37   A    
C5    H9    S    
C36   C43   S    
C75   O51   A    
Cr6   O26   S    
C80   O8    A    
Cr8   O8    S    
C20   H6    S    
C14   C94   S    
Cr3   O47   S    
Cr6   O30   S    
Cr4   O20   S    
C93   H1    S    
C17   C21   S    
