data_mof_unit_64969.cif
_audit_creation_date              2012-12-10T19:51:23-0500
_audit_creation_method            fapswitch 2.2
_symmetry_space_group_name_H-M    P1
_symmetry_Int_Tables_number       1
_space_group_crystal_system       triclinic
_cell_length_a                    18.272728
_cell_length_b                    18.272964
_cell_length_c                    21.361456
_cell_angle_alpha                 90.002598
_cell_angle_beta                  90.002372
_cell_angle_gamma                 89.927433
_cell_volume                      7132.51822357

loop_
_atom_site_label
_atom_site_type_symbol
_atom_type_description
_atom_site_fract_x
_atom_site_fract_y
_atom_site_fract_z
_atom_type_partial_charge
C1    C     C_R   0.499976 0.141244 0.499999 0.943805
C2    C     C_R   0.141212 0.499955 0.499996 0.951281
C3    C     C_R   0.500126 0.000064 0.878242 1.042998
C4    C     C_R   0.500085 0.000069 0.121759 1.043187
C5    C     C_R   0.000068 0.500067 0.378241 1.043243
C6    C     C_R   0.000119 0.500068 0.621758 1.043040
C7    C     C_R   0.358677 0.000031 0.999998 0.959437
C8    C     C_R   0.858677 0.500031 0.500005 0.959176
C9    C     C_R   0.640990 0.499994 0.500002 0.923217
C10   C     C_R   0.140990 0.999994 0.000001 0.923245
C11   C     C_R   0.499995 0.359016 0.499999 0.924123
C12   C     C_R   0.500052 0.858756 0.500001 0.953022
C13   C     C_R   0.500033 0.640988 0.500001 0.922474
C14   C     C_R   0.999995 0.859016 0.999999 0.924150
C15   C     C_R   0.000034 0.140988 0.000001 0.922446
C16   C     C_R   0.359012 0.499955 0.499999 0.923475
C17   C     C_R   0.859012 0.999955 0.999999 0.923460
C18   C     C_1   0.717711 0.999869 1.000000 -0.152007
C19   C     C_1   0.217711 0.499869 0.499994 -0.151931
C20   C     C_1   0.282505 0.499880 0.499995 -0.173186
C21   C     C_1   0.782506 0.999880 0.999998 -0.173055
C22   C     C_1   0.282222 0.000070 1.000000 -0.149908
C23   C     C_R   0.999976 0.641244 0.999999 0.943760
C24   C     C_1   0.782222 0.500070 0.500007 -0.149999
C25   C     C_R   0.500034 0.000877 0.621716 1.029677
C26   C     C_R   0.500027 0.000898 0.378285 1.029787
C27   C     C_R   0.000028 0.500905 0.121714 1.029840
C28   C     C_R   0.000030 0.500881 0.878284 1.029692
C29   C     C_1   0.717453 0.500038 0.500006 -0.177796
C30   C     C_1   0.217453 0.000037 0.000001 -0.177946
C31   C     C_3   0.444277 0.042081 0.729827 0.518042
C32   C     C_3   0.562719 0.030872 0.270263 0.518343
C33   C     C_3   0.443381 0.040929 0.270184 0.518053
C34   C     C_R   0.000052 0.358756 0.000002 0.953116
C35   C     C_3   0.563381 0.029528 0.729732 0.518420
C36   C     C_3   0.942999 0.540397 0.229808 0.517998
C37   C     C_3   0.063272 0.529748 0.770275 0.518420
C38   C     C_3   0.944127 0.541907 0.770174 0.518040
C39   C     C_3   0.062427 0.531459 0.229752 0.518351
C40   C     C_3   0.507507 0.070790 0.771107 -0.356514
C41   C     C_3   0.505985 0.070953 0.228897 -0.356587
C42   C     C_3   0.005313 0.571004 0.271112 -0.356600
C43   C     C_3   0.007261 0.570827 0.728900 -0.356513
C44   C     C_3   0.500291 0.000519 0.810988 -0.305255
C45   C     C_1   0.499940 0.282521 0.499997 -0.164419
C46   C     C_3   0.500220 0.000541 0.189013 -0.305217
C47   C     C_3   0.000195 0.500537 0.310986 -0.305207
C48   C     C_3   0.000277 0.500532 0.689012 -0.305252
C49   C     C_3   0.436846 0.972845 0.770065 0.311364
C50   C     C_3   0.557321 0.961487 0.230067 0.310487
C51   C     C_3   0.437384 0.971553 0.229949 0.311246
C52   C     C_3   0.556550 0.960281 0.769921 0.310392
C53   C     C_3   0.937643 0.470966 0.270030 0.311169
C54   C     C_3   0.056669 0.460479 0.730078 0.310406
C55   C     C_3   0.936925 0.472648 0.729929 0.311330
C56   C     C_1   0.500096 0.717483 0.500003 -0.184862
C57   C     C_3   0.057667 0.462021 0.269940 0.310563
C58   C     C_3   0.492992 0.931772 0.729790 0.200937
C59   C     C_3   0.494394 0.931660 0.270211 0.200986
C60   C     C_3   0.995034 0.431611 0.229777 0.201015
C61   C     C_3   0.993207 0.431759 0.770203 0.200948
C62   C     C_3   0.500149 0.001098 0.688934 -0.373893
C63   C     C_3   0.500113 0.001126 0.311068 -0.373850
C64   C     C_3   0.000110 0.501131 0.188931 -0.373831
C65   C     C_3   0.000135 0.501108 0.811067 -0.373891
C66   C     C_1   0.499920 0.217733 0.499997 -0.141603
C67   C     C_1   0.999940 0.782521 0.999997 -0.164428
C68   C     C_1   0.500120 0.782270 0.500002 -0.150488
C69   C     C_1   0.999920 0.717733 0.999997 -0.141636
C70   C     C_1   0.000121 0.282270 0.000004 -0.150440
C71   C     C_3   0.319843 0.931660 0.750536 0.132580
C72   C     C_3   0.257353 0.887344 0.778242 -0.812206
C73   C     C_3   0.664261 0.898733 0.250352 0.126441
C74   C     C_3   0.717049 0.842712 0.223207 -0.796620
C75   C     C_3   0.321312 0.927881 0.249557 0.131856
C76   C     C_3   0.259784 0.882190 0.221906 -0.810334
C77   C     C_3   0.662116 0.895268 0.749557 0.125942
C78   C     C_1   0.000097 0.217483 0.000004 -0.184873
C79   C     C_3   0.713667 0.838067 0.776639 -0.795328
C80   C     C_3   0.822004 0.426197 0.250359 0.131721
C81   C     C_3   0.760922 0.379883 0.277963 -0.809988
C82   C     C_3   0.162453 0.395820 0.750435 0.125968
C83   C     C_3   0.214200 0.338801 0.723344 -0.795466
C84   C     C_3   0.820066 0.431065 0.749454 0.132533
C85   C     C_3   0.757723 0.386540 0.721743 -0.812062
C86   C     C_3   0.165204 0.400282 0.249699 0.126518
C87   C     C_3   0.218530 0.344793 0.276873 -0.796949
C88   C     C_3   0.480049 0.808025 0.748257 0.127683
C89   C     C_R   0.641212 0.999955 0.000001 0.950973
C90   C     C_3   0.473881 0.733585 0.716889 -0.817483
C91   C     C_3   0.484060 0.807659 0.251756 0.127678
C92   C     C_3   0.479117 0.733138 0.283139 -0.817379
C93   C     C_3   0.985861 0.307512 0.248203 0.127640
C94   C     C_3   0.981525 0.232960 0.216801 -0.817376
C95   C     C_3   0.980680 0.307969 0.751722 0.127667
C96   C     C_3   0.974705 0.233513 0.783084 -0.817509
F1    F     F_    0.387785 0.084654 0.706735 -0.649727
F2    F     F_    0.626139 0.062153 0.293243 -0.646024
F3    F     F_    0.386012 0.082321 0.293268 -0.649313
F4    F     F_    0.627447 0.059479 0.706772 -0.645658
F5    F     F_    0.885247 0.581255 0.206727 -0.649145
F6    F     F_    0.127237 0.559909 0.793247 -0.645711
F7    F     F_    0.887494 0.584294 0.793264 -0.649662
F8    F     F_    0.125551 0.563330 0.206778 -0.646177
H1    H     H_    0.513454 0.127282 0.789516 0.211078
H2    H     H_    0.635400 0.872824 0.290579 0.168039
H3    H     H_    0.696606 0.946198 0.267395 0.206683
H4    H     H_    0.747831 0.867056 0.183510 0.268298
H5    H     H_    0.756487 0.825021 0.259768 0.218838
H6    H     H_    0.686340 0.794150 0.206305 0.257634
H7    H     H_    0.297581 0.980239 0.266632 0.206466
H8    H     H_    0.344973 0.897112 0.289799 0.169509
H9    H     H_    0.281669 0.829014 0.204978 0.260473
H10   H     H_    0.217572 0.871620 0.258180 0.215097
H11   H     H_    0.234059 0.911759 0.182129 0.268577
H12   H     H_    0.510734 0.127562 0.210493 0.211108
H13   H     H_    0.695494 0.942014 0.732524 0.206707
H14   H     H_    0.632661 0.870034 0.709327 0.167781
H15   H     H_    0.681899 0.790189 0.793527 0.256910
H16   H     H_    0.752671 0.819527 0.740045 0.219406
H17   H     H_    0.745020 0.861686 0.816332 0.268530
H18   H     H_    0.845985 0.395684 0.210113 0.169431
H19   H     H_    0.797767 0.478328 0.233299 0.206468
H20   H     H_    0.734885 0.409178 0.317739 0.268529
H21   H     H_    0.718836 0.368910 0.241664 0.215191
H22   H     H_    0.783327 0.326919 0.294878 0.260411
H23   H     H_    0.009525 0.627655 0.289524 0.211152
H24   H     H_    0.133089 0.370479 0.790660 0.167824
H25   H     H_    0.195670 0.442680 0.767476 0.206708
H26   H     H_    0.245467 0.362536 0.683655 0.268509
H27   H     H_    0.253270 0.320392 0.759935 0.219375
H28   H     H_    0.182596 0.290816 0.706445 0.256965
H29   H     H_    0.797291 0.483845 0.766530 0.206461
H30   H     H_    0.843119 0.399846 0.789700 0.169577
H31   H     H_    0.778629 0.332972 0.704816 0.260465
H32   H     H_    0.715282 0.376746 0.757981 0.214753
H33   H     H_    0.732594 0.416595 0.681954 0.268797
H34   H     H_    0.013020 0.627340 0.710497 0.211092
H35   H     H_    0.197085 0.448059 0.232662 0.206690
H36   H     H_    0.136613 0.374077 0.209467 0.168167
H37   H     H_    0.188295 0.295934 0.293769 0.257797
H38   H     H_    0.258158 0.327483 0.240330 0.218742
H39   H     H_    0.249049 0.369453 0.316580 0.268256
H40   H     H_    0.430443 0.816507 0.777490 0.184710
H41   H     H_    0.529223 0.807316 0.778887 0.184004
H42   H     H_    0.523184 0.722925 0.687841 0.263074
H43   H     H_    0.469295 0.690143 0.753018 0.211759
H44   H     H_    0.424546 0.731973 0.686535 0.264933
H45   H     H_    0.342785 0.900370 0.710283 0.169601
H46   H     H_    0.533364 0.807834 0.221279 0.184092
H47   H     H_    0.434428 0.815213 0.222368 0.184677
H48   H     H_    0.429701 0.730657 0.313349 0.264761
H49   H     H_    0.475460 0.689596 0.247015 0.211448
H50   H     H_    0.528489 0.723393 0.312336 0.263302
H51   H     H_    0.936194 0.314631 0.277625 0.184676
H52   H     H_    0.035190 0.308104 0.278648 0.184108
H53   H     H_    0.030953 0.223645 0.187574 0.263318
H54   H     H_    0.978270 0.189377 0.252915 0.211358
H55   H     H_    0.932106 0.230067 0.186617 0.264734
H56   H     H_    0.297245 0.984519 0.733471 0.206462
H57   H     H_    0.029877 0.307403 0.721121 0.184010
H58   H     H_    0.931070 0.316305 0.722460 0.184715
H59   H     H_    0.925354 0.231762 0.813409 0.264923
H60   H     H_    0.970269 0.190056 0.746950 0.211727
H61   H     H_    0.024018 0.222999 0.812160 0.263087
H62   H     H_    0.232333 0.917478 0.818038 0.268822
H63   H     H_    0.214872 0.877701 0.742004 0.214721
H64   H     H_    0.278079 0.833703 0.795156 0.260480
O1    O     O_R   0.439410 0.107330 0.500000 -0.610707
O2    O     O_R   0.560610 0.892690 0.500000 -0.632428
O3    O     O_R   0.060610 0.607310 0.000000 -0.612593
O4    O     O_R   0.060610 0.392690 0.000000 -0.632282
O5    O     O_R   0.439410 0.000000 0.593020 -0.606162
O6    O     O_R   0.439410 0.000000 0.406980 -0.605784
O7    O     O_R   0.939410 0.500000 0.093020 -0.605583
O8    O     O_R   0.939410 0.500000 0.906980 -0.606085
O9    O     O_R   0.560610 1.000000 0.593010 -0.600969
O10   O     O_R   0.560610 0.000000 0.406990 -0.601466
O11   O     O_R   0.060610 0.500000 0.093010 -0.601719
O12   O     O_R   0.439410 0.892670 0.500000 -0.627288
O13   O     O_R   0.060610 0.500000 0.906990 -0.601066
O14   O     O_R   0.607280 0.939410 0.000000 -0.613117
O15   O     O_R   0.607280 0.060590 0.000000 -0.627965
O16   O     O_R   0.107280 0.439410 0.500000 -0.613244
O17   O     O_R   0.107280 0.560590 0.500000 -0.627860
O18   O     O_R   0.499930 0.939410 0.906960 -0.604340
O19   O     O_R   0.499930 0.060590 0.093040 -0.638319
O20   O     O_R   0.499930 0.939410 0.093040 -0.604403
O21   O     O_R   0.499930 0.060590 0.906960 -0.638144
O22   O     O_R   0.999930 0.439410 0.406960 -0.604437
O23   O     O_R   0.939410 0.607330 0.000000 -0.610740
O24   O     O_R   0.999930 0.560590 0.593040 -0.638168
O25   O     O_R   0.999930 0.439410 0.593040 -0.604359
O26   O     O_R   0.999930 0.560590 0.406960 -0.638372
O27   O     O_R   0.392580 0.939390 0.000000 -0.617141
O28   O     O_R   0.392580 0.060610 0.000000 -0.625314
O29   O     O_R   0.892580 0.439390 0.500000 -0.616977
O30   O     O_R   0.892580 0.560610 0.500000 -0.625421
O31   O     O_R   0.607360 0.500000 0.552500 -0.619195
O32   O     O_R   0.607360 0.500000 0.447500 -0.618575
O33   O     O_R   0.107360 0.000000 0.052500 -0.618718
O34   O     O_R   0.939410 0.392670 0.000000 -0.627502
O35   O     O_R   0.107360 0.000000 0.947500 -0.619214
O36   O     O_R   0.500010 0.392660 0.552500 -0.614751
O37   O     O_R   0.500010 0.607340 0.447500 -0.619667
O38   O     O_R   0.500010 0.392660 0.447500 -0.614954
O39   O     O_R   0.500010 0.607340 0.552500 -0.619800
O40   O     O_R   0.000010 0.892660 0.052500 -0.614933
O41   O     O_R   0.000010 0.107340 0.947500 -0.619785
O42   O     O_R   0.000010 0.892660 0.947500 -0.614743
O43   O     O_R   0.000010 0.107340 0.052500 -0.619651
O44   O     O_3   0.372720 0.944166 0.797386 -0.611767
O45   O     O_R   0.392660 0.500000 0.552510 -0.615650
O46   O     O_3   0.615227 0.921229 0.203123 -0.606504
O47   O     O_3   0.373848 0.941535 0.202666 -0.611251
O48   O     O_3   0.613630 0.918820 0.796825 -0.605874
O49   O     O_3   0.874379 0.440349 0.297279 -0.611008
O50   O     O_3   0.113883 0.419208 0.703170 -0.605985
O51   O     O_3   0.872892 0.443758 0.702604 -0.611681
O52   O     O_3   0.115932 0.422304 0.296906 -0.606792
O53   O     O_3   0.485789 0.862294 0.701630 -0.620017
O54   O     O_3   0.488641 0.862052 0.298377 -0.620169
O55   O     O_3   0.989936 0.361955 0.201596 -0.620235
O56   O     O_R   0.392660 0.500000 0.447490 -0.616199
O57   O     O_3   0.986232 0.362256 0.798355 -0.620045
O58   O     O_R   0.892660 0.000000 0.052510 -0.616095
O59   O     O_R   0.892660 0.000000 0.947490 -0.615635
O60   O     O_R   0.560610 0.107310 0.500000 -0.612683
Zn1   Zn    Zn3+2 0.419080 0.000000 0.500000 1.026208
Zn2   Zn    Zn3+2 0.500000 0.500000 0.429880 0.982124
Zn3   Zn    Zn3+2 0.000000 0.000000 0.070120 0.982110
Zn4   Zn    Zn3+2 0.000000 0.000000 0.929880 0.982212
Zn5   Zn    Zn3+2 0.919080 0.500000 0.000000 1.026439
Zn6   Zn    Zn3+2 0.580940 0.000000 0.500000 1.033801
Zn7   Zn    Zn3+2 0.080940 0.500000 0.000000 1.033533
Zn8   Zn    Zn3+2 0.499940 0.919080 0.000000 1.017469
Zn9   Zn    Zn3+2 0.499940 0.080920 0.000000 0.989978
Zn10  Zn    Zn3+2 0.999940 0.419080 0.500000 1.017436
Zn11  Zn    Zn3+2 0.999940 0.580920 0.500000 0.989970
Zn12  Zn    Zn3+2 0.500000 0.500000 0.570120 0.982202

loop_
_geom_bond_atom_site_label_1
_geom_bond_atom_site_label_2
_ccdc_geom_bond_type
C44   C49   S    
C58   C62   S    
C48   C55   S    
C3    O18   A    
C75   C76   S    
C93   C94   S    
C14   O40   A    
C81   H22   S    
C70   C78   T    
C18   C21   T    
C73   C74   S    
C23   C69   S    
C36   C42   S    
C95   C96   S    
O22   Zn10  S    
O36   Zn12  S    
O45   Zn12  S    
O21   Zn9   S    
O31   Zn12  S    
C74   H5    S    
C23   O23   A    
C8    O29   A    
C39   F8    S    
C4    C46   S    
C48   C54   S    
C71   H56   S    
C79   H17   S    
C84   H30   S    
C75   H8    S    
C94   H55   S    
O43   Zn3   S    
C50   C59   S    
C89   O15   A    
C4    O19   A    
C84   O51   S    
C27   O11   A    
C5    O22   A    
C90   H44   S    
C95   H57   S    
O35   Zn4   S    
C25   O9    A    
C73   H3    S    
C15   C78   S    
O38   Zn2   S    
C26   O6    A    
C14   C67   S    
O58   Zn3   S    
C39   C57   S    
C55   C61   S    
C52   O48   S    
C76   H11   S    
C31   C40   S    
C43   H34   S    
O29   Zn10  S    
C75   O47   S    
O13   Zn7   S    
C24   C29   T    
C15   O43   A    
C36   C53   S    
C8    C24   S    
O6    Zn1   S    
C8    O30   A    
C53   C60   S    
C38   C55   S    
C19   C20   T    
C32   F2    S    
O7    Zn5   S    
C79   H15   S    
C92   H48   S    
C76   H10   S    
C41   C46   S    
C13   O39   A    
C92   H49   S    
C11   O38   A    
C82   H25   S    
O26   Zn11  S    
C3    O21   A    
C43   C48   S    
C34   C70   S    
O60   Zn6   S    
O20   Zn8   S    
C9    O32   A    
C33   C63   S    
C47   C53   S    
C13   C56   S    
C44   C52   S    
C26   O10   A    
O59   Zn4   S    
C94   H54   S    
C75   H7    S    
C72   H64   S    
C31   C62   S    
O37   Zn2   S    
O32   Zn2   S    
C31   C49   S    
C80   H18   S    
O16   Zn10  S    
O19   Zn9   S    
C58   O53   S    
C54   O50   S    
C39   C42   S    
O18   Zn8   S    
O28   Zn9   S    
C77   C79   S    
C53   O49   S    
C84   H29   S    
O12   Zn1   S    
C90   H43   S    
C14   O42   A    
C81   H20   S    
C93   H51   S    
C84   C85   S    
C83   H26   S    
O11   Zn7   S    
C77   H14   S    
O17   Zn11  S    
C95   H58   S    
C27   O7    A    
C80   O49   S    
O10   Zn6   S    
C57   O52   S    
C86   C87   S    
C28   O8    A    
O24   Zn11  S    
C12   O2    A    
O40   Zn3   S    
C56   C68   T    
C46   C51   S    
C17   C21   S    
C37   F6    S    
C96   H60   S    
C37   C65   S    
C36   F5    S    
C67   C69   T    
O41   Zn4   S    
C37   C43   S    
C33   F3    S    
C26   C63   S    
C95   O57   S    
C83   H27   S    
C38   F7    S    
C39   C64   S    
C59   O54   S    
O56   Zn2   S    
O25   Zn10  S    
C47   C57   S    
C5    C47   S    
C17   O58   A    
C10   C30   S    
C77   H13   S    
O8    Zn5   S    
C82   O50   S    
C38   C65   S    
O33   Zn3   S    
C16   C20   S    
C82   H24   S    
C79   H16   S    
C38   C43   S    
C1    C66   S    
C88   H41   S    
O30   Zn11  S    
C93   O55   S    
C2    O16   A    
C87   H37   S    
C91   O54   S    
C32   C50   S    
C6    C48   S    
C52   C58   S    
C86   H35   S    
C85   H31   S    
C61   C65   S    
C37   C54   S    
C42   H23   S    
C1    O60   A    
C12   O12   A    
C88   C90   S    
C71   O44   S    
C94   H53   S    
C3    C44   S    
C72   H63   S    
C13   O37   A    
O27   Zn8   S    
C16   O56   A    
C51   C59   S    
C32   C41   S    
C7    O27   A    
C35   F4    S    
C60   O55   S    
C85   H33   S    
C91   C92   S    
C34   O4    A    
C10   O35   A    
O4    Zn7   S    
C51   O47   S    
O39   Zn12  S    
C35   C52   S    
O42   Zn4   S    
C22   C30   T    
C81   H21   S    
C2    C19   S    
C88   O53   S    
C18   C89   S    
C72   H62   S    
C93   H52   S    
C32   C63   S    
C80   C81   S    
C57   C60   S    
C5    O26   A    
C74   H6    S    
C91   H46   S    
C55   O51   S    
O9    Zn6   S    
C54   C61   S    
C9    C29   S    
C25   C62   S    
C33   C51   S    
C7    C22   S    
C46   C50   S    
C59   C63   S    
C96   H59   S    
C60   C64   S    
C33   C41   S    
C89   O14   A    
C12   C68   S    
C76   H9    S    
C35   C40   S    
C2    O17   A    
C83   H28   S    
C15   O41   A    
O15   Zn9   S    
O34   Zn5   S    
C91   H47   S    
C17   O59   A    
C4    O20   A    
C73   H2    S    
C71   H45   S    
C34   O34   A    
C28   O13   A    
O23   Zn5   S    
O5    Zn1   S    
C49   O44   S    
C1    O1    A    
O2    Zn6   S    
O1    Zn1   S    
C28   C65   S    
C35   C62   S    
C42   C47   S    
C31   F1    S    
C87   H38   S    
C16   O45   A    
C73   O46   S    
C10   O33   A    
C61   O57   S    
C11   O36   A    
C11   C45   S    
C27   C64   S    
C49   C58   S    
C85   H32   S    
C74   H4    S    
C25   O5    A    
C40   C44   S    
C23   O3    A    
C71   C72   S    
C90   H42   S    
C82   C83   S    
C86   O52   S    
C6    O24   A    
C45   C66   T    
C50   O46   S    
C96   H61   S    
O3    Zn7   S    
C92   H50   S    
C86   H36   S    
C41   H12   S    
C87   H39   S    
C7    O28   A    
C36   C64   S    
C88   H40   S    
C6    O25   A    
C9    O31   A    
C77   O48   S    
O14   Zn8   S    
C80   H19   S    
C40   H1    S    
