data_mof_unit_59458.cif
_audit_creation_date              2012-12-11T15:34:22-0500
_audit_creation_method            fapswitch 2.2
_symmetry_space_group_name_H-M    P1
_symmetry_Int_Tables_number       1
_space_group_crystal_system       triclinic
_cell_length_a                    15.050756
_cell_length_b                    15.086059
_cell_length_c                    34.912395
_cell_angle_alpha                 90.623378
_cell_angle_beta                  90.076596
_cell_angle_gamma                 60.058791
_cell_volume                      6868.64101184

loop_
_atom_site_label
_atom_site_type_symbol
_atom_type_description
_atom_site_fract_x
_atom_site_fract_y
_atom_site_fract_z
_atom_type_partial_charge
C1    C     C_R   0.302873 0.608066 0.555860 0.543766
C2    C     C_R   0.653465 0.658690 0.669786 0.035481
C3    C     C_R   0.234222 0.638293 0.269320 -0.124628
C4    C     C_R   0.160618 0.639315 0.293955 0.002036
C5    C     C_R   0.075104 0.637612 0.279058 -0.101095
C6    C     C_R   0.058080 0.642615 0.239298 0.075171
C7    C     C_R   0.131106 0.647398 0.214882 -0.026324
C8    C     C_R   0.179779 0.567107 0.358972 -0.116742
C9    C     C_R   0.213300 0.560529 0.396601 -0.123337
C10   C     C_R   0.224520 0.714112 0.388052 -0.121925
C11   C     C_R   0.191966 0.720020 0.350423 -0.102531
C12   C     C_R   0.173769 0.644134 0.335300 0.037420
C13   C     C_R   0.569890 0.731701 0.648699 -0.121606
C14   C     C_R   0.240384 0.631410 0.410821 0.022030
C15   C     C_R   0.735782 0.025556 0.943343 0.548968
C16   C     C_R   0.744840 0.722226 0.945330 0.556251
C17   C     C_R   0.038456 0.733901 0.948401 0.540101
C18   C     C_R   0.723402 0.037868 0.053175 0.544704
C19   C     C_R   0.733653 0.734782 0.054811 0.549342
C20   C     C_R   0.025925 0.745824 0.058215 0.542606
C21   C     C_R   0.559003 0.712724 0.610197 -0.131528
C22   C     C_R   0.654498 0.680414 0.789186 0.328342
C23   C     C_R   0.655863 0.667339 0.711613 0.342343
C24   C     C_R   0.740872 0.601229 0.850071 -0.127529
C25   C     C_R   0.762956 0.605954 0.888729 0.040380
C26   C     C_R   0.622470 0.781700 0.891227 -0.117932
C27   C     C_R   0.597059 0.775229 0.853073 0.006715
C28   C     C_R   0.661737 0.686084 0.831391 -0.030282
C29   C     C_R   0.610852 0.588201 0.555306 0.545840
C30   C     C_R   0.708079 0.700296 0.908862 -0.031921
C31   C     C_R   0.721304 0.074296 0.905725 0.011681
C32   C     C_R   0.627837 0.109829 0.886432 -0.137394
C33   C     C_R   0.618632 0.134989 0.847608 0.030185
C34   C     C_R   0.705909 0.123606 0.827719 0.035900
C35   C     C_R   0.796628 0.096073 0.847832 -0.145396
C36   C     C_R   0.804408 0.071550 0.886512 -0.125510
C37   C     C_R   0.722780 0.206047 0.768914 -0.095658
C38   C     C_R   0.718398 0.216230 0.729205 -0.109656
C39   C     C_R   0.699204 0.151008 0.705919 0.022528
C40   C     C_R   0.590503 0.300416 0.553555 0.545127
C41   C     C_R   0.688403 0.072968 0.722859 -0.101139
C42   C     C_R   0.693503 0.062407 0.762550 -0.061672
C43   C     C_R   0.707728 0.130796 0.785775 0.064514
C44   C     C_R   0.595522 0.175597 0.647098 -0.114863
C45   C     C_R   0.568999 0.211528 0.609796 -0.126718
C46   C     C_R   0.719792 0.229874 0.605836 -0.124281
C47   C     C_R   0.745875 0.194548 0.643159 -0.122382
C48   C     C_R   0.682098 0.170481 0.664519 0.029643
C49   C     C_R   0.628924 0.242541 0.589335 0.021823
C50   C     C_R   0.095165 0.695543 0.911965 0.013651
C51   C     C_R   0.299260 0.610551 0.446401 0.543913
C52   C     C_R   0.136072 0.750308 0.893939 -0.121595
C53   C     C_R   0.167331 0.730156 0.855750 -0.103514
C54   C     C_R   0.159188 0.654371 0.835182 0.076171
C55   C     C_R   0.125156 0.594730 0.853700 -0.060512
C56   C     C_R   0.093834 0.614761 0.891958 -0.115673
C57   C     C_R   0.253106 0.560006 0.774556 0.017323
C58   C     C_R   0.257084 0.558144 0.734387 -0.136473
C59   C     C_R   0.184913 0.641369 0.712940 0.022684
C60   C     C_R   0.107146 0.727221 0.731912 -0.115573
C61   C     C_R   0.101147 0.729715 0.771705 -0.138230
C62   C     C_R   0.608507 0.590082 0.445564 0.542924
C63   C     C_R   0.173164 0.646988 0.793362 0.034148
C64   C     C_R   0.192326 0.724220 0.652450 -0.116189
C65   C     C_R   0.219666 0.716849 0.613880 -0.123799
C66   C     C_R   0.245295 0.545038 0.610923 -0.126015
C67   C     C_R   0.218617 0.552249 0.649507 -0.118437
C68   C     C_R   0.195630 0.640416 0.670906 0.035216
C69   C     C_R   0.250366 0.625627 0.593164 0.020884
C70   C     C_R   0.693918 0.720730 0.091388 0.024812
C71   C     C_R   0.614529 0.805343 0.110762 -0.124145
C72   C     C_R   0.592810 0.797391 0.148984 -0.121823
C73   C     C_R   0.588333 0.302189 0.443916 0.549167
C74   C     C_R   0.649747 0.704658 0.168358 0.023664
C75   C     C_R   0.723634 0.618228 0.148051 -0.125589
C76   C     C_R   0.745522 0.626203 0.109941 -0.116363
C77   C     C_R   0.646956 0.611219 0.226557 -0.102830
C78   C     C_R   0.647756 0.601704 0.266165 -0.103793
C79   C     C_R   0.639344 0.680730 0.290161 0.040795
C80   C     C_R   0.627800 0.770538 0.274101 -0.084132
C81   C     C_R   0.628600 0.779538 0.234365 -0.081475
C82   C     C_R   0.639065 0.699467 0.210223 0.039460
C83   C     C_R   0.560713 0.740063 0.354853 -0.120644
C84   C     C_R   0.632462 0.621235 0.592332 0.022544
C85   C     C_R   0.553547 0.718325 0.393126 -0.124108
C86   C     C_R   0.713474 0.557777 0.386582 -0.127417
C87   C     C_R   0.719874 0.579027 0.348330 -0.113444
C88   C     C_R   0.641632 0.668350 0.331892 0.031300
C89   C     C_R   0.627825 0.624984 0.408862 0.022273
C90   C     C_R   0.702551 0.093424 0.090001 0.018551
C91   C     C_R   0.781468 0.101017 0.108640 -0.120535
C92   C     C_R   0.772590 0.126970 0.147415 -0.091034
C93   C     C_R   0.684713 0.146140 0.167777 0.006050
C94   C     C_R   0.601968 0.148261 0.148645 -0.143443
C95   C     C_R   0.720687 0.553223 0.612718 -0.127830
C96   C     C_R   0.610629 0.122327 0.109856 -0.128398
C97   C     C_R   0.654094 0.242623 0.228043 -0.122240
C98   C     C_R   0.655346 0.248304 0.267646 -0.115358
C99   C     C_R   0.686798 0.160729 0.289702 0.064530
C100  C     C_R   0.719612 0.064419 0.271862 0.055692
C101  C     C_R   0.720669 0.058367 0.231204 -0.001319
C102  C     C_R   0.685404 0.149019 0.209730 -0.010136
C103  C     C_R   0.743691 0.196279 0.353159 0.041578
C104  C     C_R   0.717132 0.231051 0.391035 -0.157078
C105  C     C_R   0.563996 0.216873 0.386508 -0.125301
C106  C     C_R   0.730522 0.571341 0.651181 -0.122613
C107  C     C_R   0.589249 0.182466 0.348815 -0.125720
C108  C     C_R   0.676472 0.175510 0.331491 0.087979
C109  C     C_R   0.625544 0.245360 0.407425 0.011167
C110  C     C_R   0.070043 0.716822 0.096549 -0.001499
C111  C     C_R   0.110300 0.616105 0.109133 -0.117616
C112  C     C_R   0.132668 0.593593 0.147711 -0.085971
C113  C     C_R   0.112213 0.671997 0.174185 0.037421
C114  C     C_R   0.075040 0.773329 0.161715 0.043349
C115  C     C_R   0.055780 0.794158 0.122700 -0.085493
C116  C     C_R   0.219885 0.641579 0.230099 -0.162466
Cr1   Cr    Cr6+3 0.421670 0.426920 0.499620 1.013435
Cr2   Cr    Cr6+3 0.427030 0.651190 0.500980 1.015098
Cr3   Cr    Cr6+3 0.651280 0.421870 0.499380 1.012628
Cr4   Cr    Cr6+3 0.910810 0.908010 0.001130 1.025854
Cr5   Cr    Cr6+3 0.682800 0.909890 0.998370 1.027043
Cr6   Cr    Cr6+3 0.908370 0.682300 0.002180 1.057769
H1    H     H_    0.779173 0.482396 0.599755 0.131560
H2    H     H_    0.877428 0.044376 0.900660 0.138146
H3    H     H_    0.813768 0.189815 0.655889 0.105885
H4    H     H_    0.725819 0.277732 0.716803 0.120943
H5    H     H_    0.734669 0.258718 0.786552 0.127321
H6    H     H_    0.674499 0.021327 0.705429 0.115766
H7    H     H_    0.683606 0.002718 0.775301 0.131580
H8    H     H_    0.544830 0.157958 0.663126 0.118577
H9    H     H_    0.498664 0.220286 0.597836 0.127793
H10   H     H_    0.863571 0.087813 0.832976 0.114978
H11   H     H_    0.490433 0.766657 0.595146 0.126389
H12   H     H_    0.767996 0.252501 0.590735 0.127178
H13   H     H_    0.138197 0.812865 0.908591 0.136299
H14   H     H_    0.062195 0.571612 0.904967 0.152444
H15   H     H_    0.219973 0.487331 0.663058 0.111640
H16   H     H_    0.319032 0.492868 0.719698 0.100136
H17   H     H_    0.193238 0.776904 0.841664 0.116932
H18   H     H_    0.050714 0.792171 0.715914 0.112818
H19   H     H_    0.039446 0.796476 0.785778 0.113218
H20   H     H_    0.174984 0.792997 0.668422 0.109064
H21   H     H_    0.222601 0.780305 0.600980 0.128688
H22   H     H_    0.117745 0.536496 0.837951 0.138356
H23   H     H_    0.268024 0.473859 0.595727 0.128902
H24   H     H_    0.573347 0.879270 0.097192 0.129613
H25   H     H_    0.806987 0.559664 0.095726 0.141551
H26   H     H_    0.783585 0.523506 0.331044 0.125851
H27   H     H_    0.654612 0.532612 0.278153 0.103831
H28   H     H_    0.653409 0.549103 0.208703 0.102250
H29   H     H_    0.534044 0.864672 0.163770 0.103335
H30   H     H_    0.620939 0.832265 0.292300 0.098945
H31   H     H_    0.796469 0.514829 0.666814 0.128332
H32   H     H_    0.624327 0.847680 0.222605 0.099734
H33   H     H_    0.499736 0.809507 0.342546 0.106286
H34   H     H_    0.486889 0.771705 0.409653 0.124881
H35   H     H_    0.769473 0.545901 0.162265 0.120784
H36   H     H_    0.772264 0.485478 0.397872 0.127833
H37   H     H_    0.853056 0.079560 0.094105 0.139217
H38   H     H_    0.548426 0.117525 0.096261 0.131960
H39   H     H_    0.537499 0.166693 0.332351 0.099663
H40   H     H_    0.629525 0.322055 0.281352 0.105466
H41   H     H_    0.628507 0.311553 0.211537 0.117349
H42   H     H_    0.509695 0.799850 0.662577 0.129240
H43   H     H_    0.836712 0.125543 0.162106 0.175300
H44   H     H_    0.766091 0.251275 0.407225 0.111227
H45   H     H_    0.533747 0.163050 0.164319 0.107876
H46   H     H_    0.493205 0.226747 0.398457 0.133115
H47   H     H_    0.121211 0.555628 0.089353 0.123834
H48   H     H_    0.023052 0.872311 0.113052 0.168529
H49   H     H_    0.186151 0.780781 0.332443 0.126602
H50   H     H_    0.787579 0.530693 0.834210 0.175232
H51   H     H_    0.301836 0.637327 0.280575 0.117870
H52   H     H_    0.275719 0.645009 0.211520 0.119817
H53   H     H_    0.162263 0.515760 0.157239 0.118097
H54   H     H_    0.019633 0.637170 0.298705 0.156083
H55   H     H_    0.165502 0.508288 0.347602 0.110475
H56   H     H_    0.223960 0.496532 0.413728 0.124734
H57   H     H_    0.244112 0.770185 0.398316 0.131738
H58   H     H_    0.576103 0.852353 0.907047 0.182910
H59   H     H_    0.562560 0.114185 0.901308 0.133340
N1    N     N_R   0.696912 0.588055 0.771122 -0.227732
N2    N     N_R   0.697481 0.581651 0.733129 -0.230726
N3    N     N_R   0.613564 0.759884 0.729470 -0.234281
N4    N     N_R   0.614166 0.766094 0.767530 -0.240480
O1    O     O_R   0.502070 0.323090 0.541280 -0.519418
O2    O     O_R   0.520720 0.641670 0.461580 -0.502100
O3    O     O_R   0.674120 0.502090 0.457500 -0.520808
O4    O     O_R   0.640110 0.338380 0.459630 -0.502216
O5    O     O_3   0.499990 0.499990 0.499990 -0.237020
O6    O     O_R   0.017640 0.822070 0.960410 -0.517710
O7    O     O_R   0.822000 0.989470 0.960340 -0.500456
O8    O     O_R   0.666920 0.007430 0.955290 -0.512791
O9    O     O_R   0.694410 0.812480 0.959650 -0.510802
O10   O     O_R   0.831550 0.656950 0.958960 -0.467730
O11   O     O_R   0.998590 0.685540 0.963930 -0.502578
O12   O     O_R   0.338340 0.520690 0.539540 -0.503363
O13   O     O_R   0.008220 0.831200 0.045060 -0.519921
O14   O     O_R   0.813270 0.997930 0.038810 -0.501694
O15   O     O_R   0.657500 0.016560 0.039940 -0.519000
O16   O     O_R   0.685680 0.820940 0.038120 -0.504492
O17   O     O_R   0.822130 0.666070 0.043610 -0.504495
O18   O     O_R   0.989860 0.694000 0.042400 -0.494694
O19   O     O_3   0.833990 0.833400 0.000560 -0.248740
O20   O     O_R   0.324760 0.674070 0.543580 -0.517602
O21   O     O_R   0.522400 0.640310 0.540110 -0.500595
O22   O     O_R   0.675940 0.500630 0.542210 -0.520919
O23   O     O_R   0.641790 0.337020 0.538150 -0.502812
O24   O     O_R   0.500260 0.324550 0.456580 -0.517911
O25   O     O_R   0.336660 0.522040 0.461020 -0.502976
O26   O     O_R   0.322940 0.675540 0.458880 -0.518947
C117  C     C_2   0.517077 0.170986 0.829427 0.257896
H60   H     H_    0.457836 0.164631 0.844770 0.140929
O27   O     O_2   0.496845 0.210314 0.797915 -0.513946
C118  C     C_2   0.336125 0.471483 0.795009 0.236043
H61   H     H_    0.390931 0.404831 0.778699 0.158179
O28   O     O_2   0.346512 0.472050 0.829667 -0.483306
C119  C     C_2   0.843423 0.510723 0.906526 0.589981
O29   O     O_2   0.830694 0.487656 0.938708 -0.491859
O30   O     O_R   0.931945 0.444865 0.885718 -0.715755
H62   H     H_    0.980613 0.381846 0.900679 0.341880
C120  C     C_2   0.748422 0.971918 0.295243 0.264446
H63   H     H_    0.736257 0.911372 0.284203 0.132110
O31   O     O_2   0.787258 0.961485 0.326801 -0.478969
C121  C     C_2   0.761277 0.958583 0.210524 0.202055
H64   H     H_    0.730068 0.954491 0.182967 0.122234
O32   O     O_2   0.833249 0.880724 0.223156 -0.494938
C122  C     C_2   0.840182 0.185916 0.337424 0.234185
H65   H     H_    0.881906 0.214755 0.353848 0.085534
O33   O     O_2   0.875682 0.143576 0.306699 -0.469301
C123  C     C_2   0.962532 0.646678 0.224864 0.614771
O34   O     O_2   0.908723 0.630802 0.246778 -0.526851
O35   O     O_R   0.932413 0.669791 0.186694 -0.674476
H66   H     H_    0.865215 0.672162 0.181080 0.345180
C124  C     C_2   0.051850 0.858424 0.189174 0.264190
H67   H     H_    0.059361 0.845395 0.219783 0.151348
O36   O     O_2   0.023494 0.944839 0.177925 -0.524950
C125  C     C_2   0.501797 0.861225 0.837072 0.243418
H68   H     H_    0.465399 0.849365 0.812277 0.138691
O37   O     O_2   0.461452 0.946281 0.851907 -0.525326

loop_
_geom_bond_atom_site_label_1
_geom_bond_atom_site_label_2
_ccdc_geom_bond_type
C7    C116  A    
C44   C48   A    
C55   C56   A    
C40   O23   A    
C11   H49   S    
C101  C102  A    
C41   C42   A    
C111  C112  A    
Cr3   O5    S    
Cr6   O10   S    
C118  H61   S    
C122  O33   D    
C97   C98   A    
C57   C58   A    
O30   H62   S    
C39   C41   A    
C77   C78   A    
C52   C53   A    
C99   C108  S    
C105  C107  A    
C46   C49   A    
C26   C27   A    
C93   C94   A    
Cr3   O4    S    
C10   H57   S    
C64   C68   A    
C73   O24   A    
Cr1   O25   S    
C36   H2    S    
Cr1   O1    S    
C118  O28   D    
C104  C109  A    
C65   H21   S    
C33   C117  S    
C66   C69   A    
C83   H33   S    
C54   C63   S    
C44   H8    S    
C40   C49   S    
C62   C89   S    
C19   O16   A    
Cr4   O14   S    
N3    N4    A    
C106  H31   S    
C101  C121  S    
C34   C35   A    
C46   C47   A    
Cr5   O8    S    
C61   C63   A    
C2    C13   A    
Cr3   O3    S    
C79   C88   S    
C66   H23   S    
C98   H40   S    
N1    N2    A    
C119  O30   S    
C8    H55   S    
C3    H51   S    
C96   H38   S    
C107  H39   S    
C76   H25   S    
C8    C9    A    
C97   H41   S    
C50   C52   A    
C124  H67   S    
C47   H3    S    
C70   C71   A    
C45   C49   A    
C4    C12   S    
C1    O20   A    
O35   H66   S    
C91   H37   S    
C97   C102  A    
C8    C12   A    
C75   H35   S    
C66   C67   A    
Cr1   O5    S    
C59   C60   A    
C22   C28   S    
C6    C123  S    
C124  O36   D    
C41   H6    S    
C25   C119  S    
C74   C82   S    
C115  H48   S    
C24   H50   S    
C92   H43   S    
C21   H11   S    
C122  H65   S    
C38   H4    S    
C57   C63   A    
Cr6   O19   S    
C38   C39   A    
C125  O37   D    
C81   H32   S    
C45   H9    S    
C87   H26   S    
C67   C68   A    
C18   C90   S    
C47   C48   A    
C57   C118  S    
C32   H59   S    
Cr2   O20   S    
C16   O9    A    
C24   C25   A    
C20   O18   A    
C29   C84   S    
C72   C74   A    
C74   C75   A    
Cr4   O6    S    
C91   C92   A    
C9    C14   A    
C85   C89   A    
C78   C79   A    
C4    C5    A    
C103  C122  S    
C53   C54   A    
C15   C31   S    
C2    C106  A    
C19   O17   A    
C81   C82   A    
C29   O21   A    
C110  C111  A    
C60   C61   A    
C111  H47   S    
C35   C36   A    
Cr6   O18   S    
C93   C102  S    
C17   C50   S    
C94   C96   A    
C75   C76   A    
Cr5   O15   S    
C23   N2    A    
C37   C38   A    
C95   C106  A    
C59   C68   S    
C46   H12   S    
C70   C76   A    
Cr4   O13   S    
C14   C51   S    
C21   C84   A    
C100  C120  S    
C107  C108  A    
C72   H29   S    
C2    C23   S    
C18   O14   A    
C121  H64   S    
C13   C21   A    
C123  O35   S    
C90   C96   A    
C86   H36   S    
C20   O13   A    
C103  C108  A    
C60   H18   S    
C20   C110  S    
C61   H19   S    
C83   C85   A    
C117  O27   D    
C56   H14   S    
C94   H45   S    
C50   C56   A    
C10   C14   A    
Cr4   O19   S    
C5    H54   S    
C37   C43   A    
Cr3   O22   S    
C42   C43   A    
C114  C124  S    
C90   C91   A    
C3    C4    A    
Cr5   O9    S    
C123  O34   D    
Cr2   O2    S    
Cr1   O12   S    
C44   C45   A    
C13   H42   S    
C62   O3    A    
C113  C114  A    
C95   H1    S    
C25   C30   A    
C80   H30   S    
C105  C109  A    
C54   C55   A    
C120  O31   D    
C55   H22   S    
C125  H68   S    
Cr2   O21   S    
C86   C87   A    
C31   C32   A    
C1    O12   A    
C34   C43   S    
C24   C28   A    
Cr5   O19   S    
Cr6   O11   S    
C80   C81   A    
C19   C70   S    
C86   C89   A    
C77   H28   S    
C11   C12   A    
C114  C115  A    
C6    C7    A    
C26   H58   S    
C29   O22   A    
C105  H46   S    
C116  H52   S    
C3    C116  A    
C32   C33   A    
C7    C113  S    
C22   N4    A    
Cr4   O7    S    
C58   C59   A    
Cr5   O16   S    
C71   C72   A    
C22   N1    A    
C16   O10   A    
C99   C100  A    
C64   C65   A    
C18   O15   A    
Cr2   O5    S    
C51   O25   A    
C58   H16   S    
C119  O29   D    
C5    C6    A    
C64   H20   S    
C77   C82   A    
C65   C69   A    
C35   H10   S    
Cr1   O24   S    
C92   C93   A    
C121  O32   D    
C33   C34   A    
C83   C88   A    
C42   H7    S    
C112  C113  A    
C73   C109  S    
C120  H63   S    
C67   H15   S    
C1    C69   S    
C53   H17   S    
C10   C11   A    
C15   O7    A    
C62   O2    A    
C104  H44   S    
C79   C80   A    
C15   O8    A    
C51   O26   A    
Cr6   O17   S    
C23   N3    A    
C112  H53   S    
C40   O1    A    
C117  H60   S    
C78   H27   S    
C87   C88   A    
C98   C99   A    
C84   C95   A    
C103  C104  A    
C52   H13   S    
C31   C36   A    
Cr2   O26   S    
C17   O11   A    
C100  C101  A    
Cr3   O23   S    
C37   H5    S    
C16   C30   S    
C110  C115  A    
C85   H34   S    
C73   O4    A    
C9    H56   S    
C71   H24   S    
C27   C125  S    
C17   O6    A    
C39   C48   S    
C27   C28   A    
C26   C30   A    
