data_mof_unit_64958.cif
_audit_creation_date              2012-10-26T18:11:32-0400
_audit_creation_method            fapswitch 2.2
_symmetry_space_group_name_H-M    P1
_symmetry_Int_Tables_number       1
_space_group_crystal_system       triclinic
_cell_length_a                    18.698689
_cell_length_b                    18.829599
_cell_length_c                    18.778767
_cell_angle_alpha                 109.318624
_cell_angle_beta                  109.674481
_cell_angle_gamma                 109.226986
_cell_volume                      5101.8188506

loop_
_atom_site_label
_atom_site_type_symbol
_atom_type_description
_atom_site_fract_x
_atom_site_fract_y
_atom_site_fract_z
_atom_type_partial_charge
C1    C     C_R   0.617772 0.618448 0.498595 0.551522
C2    C     C_R   0.682890 0.683970 0.495423 0.011952
C3    C     C_R   0.674117 0.494269 0.757845 0.043981
C4    C     C_R   0.380952 0.500137 0.380586 0.568318
C5    C     C_R   0.740145 0.497526 0.825108 0.076264
C6    C     C_R   0.815998 0.503713 0.820983 -0.027493
C7    C     C_R   0.826124 0.508549 0.752041 -0.127294
C8    C     C_R   0.761337 0.506176 0.685681 0.064864
C9    C     C_R   0.685246 0.499142 0.688353 0.044895
C10   C     C_R   0.245691 0.320787 0.502152 -0.135988
C11   C     C_R   0.179911 0.256013 0.499469 0.070180
C12   C     C_3   0.174907 0.434306 0.223287 0.021922
C13   C     C_R   0.187157 0.183792 0.498966 0.029993
C14   C     C_R   0.261838 0.177526 0.502839 0.059378
C15   C     C_R   0.327559 0.243279 0.505250 0.066541
C16   C     C_R   0.382849 0.381325 0.501666 0.534618
C17   C     C_R   0.318269 0.314272 0.503650 -0.010074
C18   C     C_R   0.004348 0.618430 0.123280 0.615971
C19   C     C_R   0.123304 0.499933 0.123080 0.591692
C20   C     C_R   0.004510 0.381470 0.885340 0.568469
C21   C     C_R   0.884026 0.501654 0.885868 0.597820
C22   C     C_R   0.000944 0.881209 0.381952 0.633157
C23   C     C_3   0.235892 0.508795 0.318860 -0.146719
C24   C     C_R   0.880932 0.879536 0.498144 0.575676
C25   C     C_R   0.001365 0.120724 0.618104 0.563728
C26   C     C_R   0.119066 0.118004 0.499372 0.636273
C27   C     C_R   0.009144 0.756962 0.184714 -0.132464
C28   C     C_R   0.618801 0.499320 0.619943 0.569437
C29   C     C_R   0.007136 0.821733 0.245544 0.028529
C30   C     C_R   0.000962 0.813218 0.315775 -0.021291
C31   C     C_R   0.996943 0.739735 0.323848 0.010575
C32   C     C_R   0.998183 0.674472 0.260848 0.021884
C33   C     C_R   0.004947 0.684431 0.191671 -0.026487
C34   C     C_3   0.313003 0.499686 0.312838 0.021655
C35   C     C_R   0.083487 0.316875 0.829983 0.050499
C36   C     C_R   0.084654 0.255672 0.763571 0.081332
C37   C     C_R   0.005084 0.190813 0.685772 -0.049430
C38   C     C_R   0.926821 0.190026 0.673341 -0.159644
C39   C     C_R   0.925095 0.252623 0.737030 0.018437
C40   C     C_3   0.328691 0.564938 0.280992 0.078487
C41   C     C_R   0.003893 0.315768 0.816546 -0.010803
C42   C     C_3   0.252407 0.574885 0.286113 0.047415
C43   C     C_3   0.191108 0.500342 0.191286 -0.014998
C44   C     C_3   0.268521 0.491337 0.185654 -0.124107
C45   C     C_R   0.756488 0.753442 0.573817 -0.143468
C46   C     C_3   0.252073 0.424569 0.218023 -0.137614
C47   C     C_2   0.257117 0.660768 0.326651 0.611401
C48   C     C_2   0.730823 0.499069 0.901167 0.630365
C49   C     C_2   0.271538 0.101839 0.501770 0.626652
C50   C     C_2   0.014576 0.897931 0.233976 0.604734
C51   C     C_2   0.993316 0.731326 0.398872 0.631486
C52   C     C_2   0.991542 0.595912 0.267073 0.642039
C53   C     C_2   0.169872 0.263553 0.774057 0.631730
C54   C     C_2   0.840266 0.251058 0.716372 0.590231
C55   C     C_2   0.088718 0.358575 0.190252 0.600665
C56   C     C_R   0.821677 0.815120 0.573278 -0.153601
C57   C     C_2   0.727128 0.731536 0.328765 0.635703
C58   C     C_R   0.813020 0.809738 0.494439 -0.006104
C59   C     C_R   0.738072 0.740391 0.414106 0.097972
C60   C     C_R   0.673313 0.676670 0.414922 0.075904
Cu1   Cu    Cu3+1 0.500500 0.438200 0.438680 0.984915
Cu2   Cu    Cu3+1 0.499500 0.561800 0.561320 0.984253
Cu3   Cu    Cu3+1 0.942090 0.438180 0.003770 1.118253
Cu4   Cu    Cu3+1 0.065710 0.561750 0.003750 1.008477
Cu5   Cu    Cu3+1 0.062280 0.999890 0.562170 1.082709
Cu6   Cu    Cu3+1 0.937720 0.999930 0.437650 1.084882
H1    H     H_    0.884247 0.513031 0.749015 0.149391
H2    H     H_    0.216445 0.743773 0.309985 0.347049
H3    H     H_    0.541788 0.597626 0.335004 0.268958
H4    H     H_    0.602379 0.548343 0.325080 0.259758
H5    H     H_    0.594930 0.543948 0.771407 0.258298
H6    H     H_    0.541535 0.434874 0.702468 0.236409
H7    H     H_    0.653199 0.449215 0.944772 0.351573
H8    H     H_    0.783239 0.462054 0.585880 0.249319
H9    H     H_    0.830910 0.571114 0.643804 0.233045
H10   H     H_    0.130372 0.322335 0.555806 0.247675
H11   H     H_    0.076107 0.270707 0.445656 0.249394
H12   H     H_    0.239316 0.375847 0.501666 0.141524
H13   H     H_    0.349893 0.058796 0.552756 0.348952
H14   H     H_    0.459619 0.294462 0.560446 0.238525
H15   H     H_    0.402023 0.226344 0.450402 0.259765
H16   H     H_    0.404463 0.672496 0.283282 0.257946
H17   H     H_    0.440144 0.676274 0.380096 0.258467
H18   H     H_    0.989755 0.943129 0.150093 0.348851
H19   H     H_    0.045180 0.711584 0.498721 0.346542
H20   H     H_    0.040997 0.515528 0.267616 0.353461
H21   H     H_    0.180919 0.441605 0.917534 0.255289
H22   H     H_    0.155014 0.378539 0.962380 0.235230
H23   H     H_    0.013969 0.762861 0.130744 0.179990
H24   H     H_    0.247769 0.264848 0.721176 0.346013
H25   H     H_    0.708525 0.179256 0.650337 0.355396
H26   H     H_    0.984712 0.244961 0.088554 0.346135
H27   H     H_    0.646629 0.704370 0.208425 0.347061
H28   H     H_    0.866572 0.140294 0.612845 0.181093
H29   H     H_    0.282270 0.485671 0.131542 0.151107
H30   H     H_    0.252112 0.362470 0.191056 0.157105
H31   H     H_    0.223081 0.515534 0.373685 0.162622
H32   H     H_    0.764253 0.759007 0.635610 0.142722
H33   H     H_    0.878331 0.868477 0.634873 0.143159
N1    N     N_3   0.598953 0.604582 0.333543 -0.551206
N2    N     N_3   0.596516 0.486663 0.761430 -0.555800
N3    N     N_3   0.773765 0.512892 0.616409 -0.592542
N4    N     N_3   0.106693 0.264859 0.499688 -0.578125
N5    N     N_3   0.403068 0.236759 0.509018 -0.552758
N6    N     N_3   0.414269 0.636266 0.313586 -0.611043
N7    N     N_3   0.163885 0.380099 0.910717 -0.569890
O1    O     O_R   0.590610 0.537990 0.448230 -0.508849
O2    O     O_R   0.948100 0.909770 0.357840 -0.468360
O3    O     O_R   0.962410 0.909720 0.552480 -0.502647
O4    O     O_R   0.589770 0.642360 0.551790 -0.501826
O5    O     O_R   0.857220 0.909750 0.447330 -0.504917
O6    O     O_R   0.051900 0.090060 0.641980 -0.499018
O7    O     O_R   0.946710 0.090090 0.536830 -0.516512
O8    O     O_R   0.142780 0.090070 0.552500 -0.497419
O9    O     O_R   0.037590 0.090110 0.447350 -0.460562
O10   O     O_R   0.409550 0.447810 0.357350 -0.510311
O11   O     O_R   0.408710 0.552190 0.460910 -0.500069
O12   O     O_R   0.055400 0.642330 0.093210 -0.501733
O13   O     O_R   0.410230 0.357640 0.448210 -0.519364
O14   O     O_R   0.409390 0.462010 0.551770 -0.513116
O15   O     O_R   0.591290 0.447810 0.539090 -0.476568
O16   O     O_R   0.590450 0.552190 0.642650 -0.528165
O17   O     O_R   0.951000 0.537980 0.093230 -0.469874
O18   O     O_2   0.304968 0.710054 0.405103 -0.491368
O19   O     O_R   0.207987 0.684627 0.274894 -0.654125
O20   O     O_2   0.792175 0.551400 0.975245 -0.515561
O21   O     O_R   0.651466 0.441521 0.888057 -0.633989
O22   O     O_2   0.210441 0.028120 0.449567 -0.489501
O23   O     O_R   0.042570 0.447790 0.094640 -0.480781
O24   O     O_R   0.351229 0.115099 0.559991 -0.642975
O25   O     O_2   0.052897 0.970436 0.296975 -0.480139
O26   O     O_R   0.979968 0.886807 0.149948 -0.688965
O27   O     O_2   0.936914 0.736867 0.415495 -0.474224
O28   O     O_R   0.054400 0.716418 0.449953 -0.656638
O29   O     O_2   0.932706 0.554257 0.275984 -0.465592
O30   O     O_R   0.052387 0.569689 0.262631 -0.658315
O31   O     O_2   0.224485 0.275371 0.841699 -0.461667
O32   O     O_R   0.187849 0.258484 0.706579 -0.694403
O33   O     O_2   0.838305 0.318393 0.745549 -0.515151
O34   O     O_R   0.146970 0.552140 0.094620 -0.498013
O35   O     O_R   0.761895 0.172104 0.660391 -0.687005
O36   O     O_2   0.060029 0.354635 0.239303 -0.515545
O37   O     O_R   0.041916 0.292575 0.103412 -0.677210
O38   O     O_2   0.788306 0.743025 0.315051 -0.473622
O39   O     O_R   0.646106 0.708817 0.263530 -0.651170
O40   O     O_R   0.952400 0.357600 0.914310 -0.481253
O41   O     O_R   0.056800 0.461950 0.914290 -0.532003
O42   O     O_R   0.860830 0.447790 0.912900 -0.465012
O43   O     O_R   0.965230 0.552140 0.912880 -0.521364
O44   O     O_R   0.053290 0.909730 0.462990 -0.481812

loop_
_geom_bond_atom_site_label_1
_geom_bond_atom_site_label_2
_ccdc_geom_bond_type
C19   O23   A    
C22   O44   A    
C13   C26   S    
Cu6   O7    S    
C57   O39   S    
Cu1   O13   S    
C11   C13   A    
Cu5   O8    S    
C35   C36   A    
C20   C41   S    
C10   H12   S    
C7    C8    A    
C39   C41   A    
C27   C33   A    
C12   C23   S    
C29   C30   A    
C23   C42   S    
H14   N5    S    
C34   C40   S    
C36   C37   A    
C12   C43   S    
C45   H32   S    
C16   O14   A    
C30   C31   A    
C51   O28   S    
C28   O16   A    
C57   C59   S    
C39   C54   S    
C27   C29   A    
H6    N2    S    
C10   C17   A    
Cu4   O12   S    
Cu1   O15   S    
C1    C2    S    
H16   N6    S    
Cu5   O44   S    
H26   O37   S    
C26   O9    A    
C32   C52   S    
Cu2   O11   S    
C36   C53   S    
C25   O6    A    
C25   C37   S    
C54   O33   D    
C45   C56   A    
C44   C46   S    
C19   O34   A    
C19   C43   S    
H9    N3    S    
H27   O39   S    
C34   C46   S    
C21   O43   A    
C15   N5    S    
C18   O12   A    
Cu3   O40   S    
Cu2   O14   S    
H19   O28   S    
H8    N3    S    
C3    N2    S    
H10   N4    S    
C40   C42   S    
H5    N2    S    
C59   C60   A    
C55   O36   D    
C13   C14   A    
C24   O5    A    
C35   C41   A    
H24   O32   S    
H4    N1    S    
C47   O19   S    
C29   C50   S    
C2    C45   A    
C38   C39   A    
C5    C48   S    
C4    C34   S    
C55   O37   S    
Cu6   O9    S    
C53   O32   S    
C21   O42   A    
C2    C60   A    
C12   C46   S    
C50   O25   D    
C16   O13   A    
C31   C51   S    
C28   O15   A    
C8    C9    A    
C52   O30   S    
C3    C5    A    
C58   C59   A    
H7    O21   S    
H13   O24   S    
C7    H1    S    
H18   O26   S    
H17   N6    S    
C43   C44   S    
C26   O8    A    
Cu5   O6    S    
C37   C38   A    
C3    C9    A    
C25   O7    A    
C1    O4    A    
H22   N7    S    
C31   C32   A    
Cu2   O4    S    
C23   C34   S    
C38   H28   S    
Cu1   O10   S    
C20   O41   A    
C6    C21   S    
Cu5   O3    S    
C50   O26   S    
C1    O1    A    
H20   O30   S    
C23   H31   S    
Cu4   O41   S    
Cu6   O5    S    
C53   O31   D    
C4    O11   A    
H11   N4    S    
C42   C43   S    
Cu3   O42   S    
Cu2   O16   S    
Cu4   O34   S    
C15   C17   A    
C49   O22   D    
C22   C30   S    
C57   O38   D    
C4    O10   A    
C24   O3    A    
Cu6   O2    S    
C60   N1    S    
Cu3   O17   S    
C6    C7    A    
C49   O24   S    
C18   O17   A    
Cu4   O43   S    
C32   C33   A    
C35   N7    S    
C48   O21   S    
C51   O27   D    
C47   O18   D    
C5    C6    A    
H21   N7    S    
C22   O2    A    
C56   C58   A    
C27   H23   S    
C20   O40   A    
C42   C47   S    
Cu3   O23   S    
Cu1   Cu2   S    
Cu1   O1    S    
C18   C33   S    
C12   C55   S    
C10   C11   A    
C48   O20   D    
Cu3   Cu4   S    
C14   C49   S    
H3    N1    S    
C40   C44   S    
C54   O35   S    
C46   H30   S    
C9    C28   S    
C24   C58   S    
Cu5   Cu6   S    
C44   H29   S    
C52   O29   D    
C14   C15   A    
C11   N4    S    
C56   H33   S    
C8    N3    S    
H2    O19   S    
C16   C17   S    
C40   N6    S    
H25   O35   S    
H15   N5    S    
