data_mof_unit_61779.cif
_audit_creation_date              2013-03-05T15:46:21-0500
_audit_creation_method            fapswitch 2.2
_symmetry_space_group_name_H-M    P1
_symmetry_Int_Tables_number       1
_space_group_crystal_system       triclinic
_cell_length_a                    30.650122
_cell_length_b                    30.600046
_cell_length_c                    24.776852
_cell_angle_alpha                 89.997169
_cell_angle_beta                  128.661516
_cell_angle_gamma                 90.000542
_cell_volume                      18145.4662907

loop_
_atom_site_label
_atom_site_type_symbol
_atom_site_description
_atom_site_fract_x
_atom_site_fract_y
_atom_site_fract_z
_atom_type_partial_charge
O1    O     O_R   0.678340 0.230070 0.500020 -0.604456
O2    O     O_R   0.321660 0.230070 0.499980 -0.604530
O3    O     O_R   0.178340 0.730070 0.500020 -0.604414
O4    O     O_R   0.821660 0.730070 0.499980 -0.604418
O5    O     O_R   0.730080 0.178340 0.500000 -0.611448
O6    O     O_R   0.269920 0.178340 0.500000 -0.611423
O7    O     O_R   0.230080 0.678340 0.500000 -0.611455
O8    O     O_R   0.769920 0.678340 0.500000 -0.611453
C1    C     C_R   0.690381 0.190064 0.500313 0.897422
C2    C     C_R   0.309623 0.190064 0.499693 0.897386
C3    C     C_R   0.190383 0.690064 0.500316 0.897406
C4    C     C_R   0.809617 0.690064 0.499683 0.897410
O9    O     O_R   0.673200 0.275870 0.398140 -0.623517
O10   O     O_R   0.326800 0.275870 0.601860 -0.623487
O11   O     O_R   0.173200 0.775870 0.398140 -0.623476
O12   O     O_R   0.826800 0.775870 0.601860 -0.623487
O13   O     O_R   0.724950 0.224150 0.398130 -0.621098
O14   O     O_R   0.275050 0.224150 0.601870 -0.621105
O15   O     O_R   0.224950 0.724150 0.398130 -0.621107
O16   O     O_R   0.775050 0.724150 0.601870 -0.621106
C5    C     C_R   0.682667 0.250300 0.365243 0.855528
C6    C     C_R   0.317331 0.250300 0.634757 0.855568
C7    C     C_R   0.182667 0.750300 0.365243 0.855519
C8    C     C_R   0.817331 0.750300 0.634757 0.855538
Zn1   Zn    Zn3+2 0.715460 0.284550 0.500010 0.995667
Zn2   Zn    Zn3+2 0.284540 0.284550 0.499990 0.995599
Zn3   Zn    Zn3+2 0.215460 0.784550 0.500010 0.995793
Zn4   Zn    Zn3+2 0.784540 0.784550 0.499990 0.995766
Zn5   Zn    Zn3+2 0.784560 0.215470 0.499990 0.992896
Zn6   Zn    Zn3+2 0.215440 0.215470 0.500010 0.992923
Zn7   Zn    Zn3+2 0.284560 0.715470 0.499990 0.992877
Zn8   Zn    Zn3+2 0.715440 0.715470 0.500010 0.992881
O17   O     O_R   0.769940 0.321680 0.500000 -0.612770
O18   O     O_R   0.230060 0.321680 0.500000 -0.612777
O19   O     O_R   0.269940 0.821680 0.500000 -0.612744
O20   O     O_R   0.730060 0.821680 0.500000 -0.612769
O21   O     O_R   0.821690 0.269960 0.499980 -0.620143
O22   O     O_R   0.178310 0.269960 0.500020 -0.620150
O23   O     O_R   0.321690 0.769960 0.499980 -0.620146
O24   O     O_R   0.678310 0.769960 0.500020 -0.620150
O25   O     O_R   0.775070 0.275880 0.601870 -0.609096
O26   O     O_R   0.224930 0.275880 0.398130 -0.609215
O27   O     O_R   0.275070 0.775880 0.601870 -0.609086
O28   O     O_R   0.724930 0.775880 0.398130 -0.609102
O29   O     O_R   0.826820 0.224150 0.601850 -0.624601
O30   O     O_R   0.173180 0.224150 0.398150 -0.624559
O31   O     O_R   0.326820 0.724150 0.601850 -0.624615
O32   O     O_R   0.673180 0.724150 0.398150 -0.624606
C9    C     C_R   0.809307 0.309985 0.498596 0.847960
C10   C     C_R   0.190694 0.309985 0.501406 0.847967
C11   C     C_R   0.309310 0.809985 0.498603 0.847952
C12   C     C_R   0.690693 0.809985 0.501405 0.847957
C13   C     C_R   0.818341 0.250917 0.634417 0.817051
C14   C     C_R   0.181657 0.250921 0.365582 0.817087
C15   C     C_R   0.318342 0.750917 0.634417 0.817022
C16   C     C_R   0.681658 0.750919 0.365582 0.817042
C17   C     C_R   0.652369 0.222933 0.251896 -0.160533
C18   C     C_R   0.347630 0.222927 0.748105 -0.160525
C19   C     C_R   0.152366 0.722930 0.251896 -0.160538
C20   C     C_R   0.847630 0.722927 0.748106 -0.160536
H1    H     H_    0.684903 0.198341 0.277762 0.167303
H2    H     H_    0.315104 0.198329 0.722241 0.167302
H3    H     H_    0.184897 0.698335 0.277762 0.167298
H4    H     H_    0.815104 0.698330 0.722242 0.167296
C21   C     C_R   0.616869 0.224981 0.180151 -0.181075
C22   C     C_R   0.383125 0.224976 0.819851 -0.181073
C23   C     C_R   0.116867 0.724979 0.180151 -0.181078
C24   C     C_R   0.883126 0.724976 0.819851 -0.181079
H5    H     H_    0.622137 0.201559 0.151811 0.157703
H6    H     H_    0.377862 0.201549 0.848192 0.157710
H7    H     H_    0.122132 0.701554 0.151811 0.157698
H8    H     H_    0.877863 0.701550 0.848193 0.157700
C25   C     C_R   0.573984 0.256126 0.145022 0.065663
C26   C     C_R   0.425999 0.256127 0.854976 0.065658
C27   C     C_R   0.073987 0.756127 0.145022 0.065669
C28   C     C_R   0.926001 0.756127 0.854976 0.065669
C29   C     C_R   0.567727 0.286745 0.182627 0.008833
C30   C     C_R   0.432248 0.286753 0.817368 0.008825
C31   C     C_R   0.067735 0.786750 0.182627 0.008805
C32   C     C_R   0.932250 0.786752 0.817368 0.008809
C33   C     C_R   0.603063 0.283716 0.254638 -0.278836
C34   C     C_R   0.396918 0.283724 0.745359 -0.278805
C35   C     C_R   0.103069 0.783721 0.254638 -0.278800
C36   C     C_R   0.896920 0.783723 0.745358 -0.278798
H9    H     H_    0.598363 0.307020 0.283649 0.156693
H10   H     H_    0.401613 0.307033 0.716345 0.156702
H11   H     H_    0.098372 0.807028 0.283649 0.156722
H12   H     H_    0.901615 0.807031 0.716345 0.156712
C37   C     C_R   0.645356 0.252006 0.289563 -0.031909
C38   C     C_R   0.354637 0.252006 0.710436 -0.031913
C39   C     C_R   0.145357 0.752007 0.289564 -0.031920
C40   C     C_R   0.854638 0.752006 0.710436 -0.031913
N1    N     N_R   0.479539 0.253885 0.034759 -0.122953
N2    N     N_R   0.444498 0.253851 0.966078 -0.145587
N3    N     N_R   0.979541 0.753892 0.034759 -0.122939
N4    N     N_R   0.944500 0.753857 0.966078 -0.145579
C41   C     C_R   0.464452 0.254656 0.930328 0.348158
C42   C     C_R   0.535531 0.254655 0.069671 0.348159
C43   C     C_R   0.964454 0.754656 0.930328 0.348147
C44   C     C_R   0.035534 0.754657 0.069671 0.348153
N5    N     N_R   0.520444 0.253897 0.965240 -0.122949
N6    N     N_R   0.555485 0.253862 0.033921 -0.145586
N7    N     N_R   0.020446 0.753892 0.965240 -0.122941
N8    N     N_R   0.055487 0.753858 0.033921 -0.145582
H13   H     H_    0.627315 0.132618 0.405068 0.177151
H14   H     H_    0.372494 0.132473 0.594763 0.177223
H15   H     H_    0.127294 0.632633 0.405059 0.177141
H16   H     H_    0.872684 0.632611 0.594921 0.177152
C45   C     C_R   0.701449 0.178706 0.622640 -0.125531
C46   C     C_R   0.298793 0.178949 0.377513 -0.125433
C47   C     C_R   0.201463 0.678700 0.622650 -0.125527
C48   C     C_R   0.798558 0.678730 0.377361 -0.125523
H17   H     H_    0.734386 0.196632 0.628018 0.138107
H18   H     H_    0.265876 0.196904 0.372138 0.138285
H19   H     H_    0.234396 0.696627 0.628021 0.138096
H20   H     H_    0.765629 0.696662 0.371992 0.138113
C49   C     C_R   0.700141 0.180075 0.677293 -0.283019
C50   C     C_R   0.300220 0.180452 0.322967 -0.283615
C51   C     C_R   0.200172 0.680061 0.677316 -0.283013
C52   C     C_R   0.799859 0.680105 0.322703 -0.283065
H21   H     H_    0.731326 0.199292 0.722445 0.147346
H22   H     H_    0.269146 0.199799 0.277923 0.147247
H23   H     H_    0.231364 0.699274 0.722470 0.147346
H24   H     H_    0.768677 0.699334 0.277559 0.147335
C53   C     C_R   0.656773 0.160235 0.671903 -0.058287
C54   C     C_R   0.343527 0.160538 0.328301 -0.058030
C55   C     C_R   0.156814 0.660216 0.671944 -0.058279
C56   C     C_R   0.843209 0.660252 0.328070 -0.058251
C57   C     C_R   0.617170 0.134188 0.612956 0.358399
C58   C     C_R   0.382959 0.134303 0.387105 0.358616
C59   C     C_R   0.117199 0.634175 0.612993 0.358382
C60   C     C_R   0.882808 0.634190 0.387007 0.358401
C61   C     C_R   0.622179 0.128281 0.559195 -0.033974
C62   C     C_R   0.377889 0.128345 0.440819 -0.034291
C63   C     C_R   0.122186 0.628280 0.559210 -0.033965
C64   C     C_R   0.877816 0.628287 0.440787 -0.033994
C65   C     C_R   0.661337 0.154853 0.562329 0.070298
C66   C     C_R   0.338766 0.154953 0.437717 0.070423
C67   C     C_R   0.161343 0.654851 0.562338 0.070342
C68   C     C_R   0.838665 0.654864 0.437663 0.070356
C69   C     C_R   0.659967 0.157236 0.504807 -0.129233
C70   C     C_R   0.340027 0.157241 0.495166 -0.129257
C71   C     C_R   0.159966 0.657239 0.504811 -0.129224
C72   C     C_R   0.840032 0.657239 0.495184 -0.129232
C73   C     C_R   0.626557 0.130365 0.448205 -0.247170
C74   C     C_R   0.373326 0.130283 0.551681 -0.247111
C75   C     C_R   0.126543 0.630377 0.448200 -0.247147
C76   C     C_R   0.873442 0.630363 0.551785 -0.247133
C77   C     C_R   0.593657 0.099478 0.447221 0.331644
C78   C     C_R   0.406236 0.099410 0.552664 0.331357
C79   C     C_R   0.093638 0.599494 0.447214 0.331603
C80   C     C_R   0.906346 0.599481 0.552770 0.331573
C81   C     C_R   0.590543 0.097948 0.502082 -0.173730
C82   C     C_R   0.409441 0.097948 0.497876 -0.173866
C83   C     C_R   0.090535 0.597956 0.502084 -0.173860
C84   C     C_R   0.909458 0.597954 0.497907 -0.173882
C85   C     C_R   0.915964 0.249274 0.747073 -0.024014
C86   C     C_R   0.084031 0.249260 0.252928 -0.024025
C87   C     C_R   0.415965 0.749269 0.747073 -0.024010
C88   C     C_R   0.584035 0.749275 0.252928 -0.024010
C89   C     C_R   0.950790 0.247397 0.819315 -0.116272
C90   C     C_R   0.049204 0.247383 0.180686 -0.116294
C91   C     C_R   0.450792 0.747389 0.819314 -0.116280
C92   C     C_R   0.549209 0.747395 0.180686 -0.116282
H25   H     H_    0.995615 0.245509 0.848398 0.193845
H26   H     H_    0.004381 0.245473 0.151605 0.193840
H27   H     H_    0.495617 0.745498 0.848396 0.193843
H28   H     H_    0.504384 0.745502 0.151605 0.193843
C93   C     C_R   0.928427 0.248922 0.854332 0.032166
C94   C     C_R   0.071564 0.248938 0.145666 0.032158
C95   C     C_R   0.428430 0.748917 0.854333 0.032164
C96   C     C_R   0.571570 0.748924 0.145667 0.032166
C97   C     C_R   0.870534 0.252523 0.816653 -0.144038
C98   C     C_R   0.129453 0.252572 0.183341 -0.143954
C99   C     C_R   0.370538 0.752523 0.816655 -0.144038
C100  C     C_R   0.629462 0.752534 0.183344 -0.144030
H29   H     H_    0.852180 0.254127 0.842365 0.156568
H30   H     H_    0.147804 0.254201 0.157626 0.156537
H31   H     H_    0.352184 0.754128 0.842368 0.156573
H32   H     H_    0.647815 0.754142 0.157630 0.156566
C101  C     C_R   0.835449 0.254139 0.745047 -0.185597
C102  C     C_R   0.164538 0.254187 0.254947 -0.185493
C103  C     C_R   0.335453 0.754141 0.745049 -0.185597
C104  C     C_R   0.664547 0.754152 0.254950 -0.185597
H33   H     H_    0.790794 0.256568 0.716997 0.150627
H34   H     H_    0.209191 0.256642 0.282992 0.150472
H35   H     H_    0.290797 0.756574 0.717001 0.150645
H36   H     H_    0.709202 0.756587 0.282998 0.150628
C105  C     C_R   0.857454 0.251771 0.709777 -0.107547
C106  C     C_R   0.142540 0.251784 0.290221 -0.107556
C107  C     C_R   0.357455 0.751771 0.709777 -0.107546
C108  C     C_R   0.642545 0.751778 0.290222 -0.107550
N9    N     N_R   0.944356 0.247745 0.964364 -0.164390
N10   N     N_R   0.055635 0.247777 0.035634 -0.164375
N11   N     N_R   0.444361 0.747747 0.964366 -0.164386
N12   N     N_R   0.555640 0.747752 0.035635 -0.164389
N13   N     N_R   0.978095 0.247731 0.032981 -0.164936
N14   N     N_R   0.021896 0.247755 0.967017 -0.164928
N15   N     N_R   0.478101 0.747731 0.032983 -0.164932
N16   N     N_R   0.521900 0.747732 0.967017 -0.164935
C109  C     C_R   0.034357 0.247884 0.069901 0.304642
C110  C     C_R   0.965633 0.247875 0.930097 0.304629
C111  C     C_R   0.534363 0.747871 0.069902 0.304627
C112  C     C_R   0.465637 0.747866 0.930098 0.304627
H37   H     H_    0.918076 0.320861 0.588142 0.151244
H38   H     H_    0.081923 0.320858 0.411874 0.151236
H39   H     H_    0.418065 0.820908 0.588213 0.151192
H40   H     H_    0.581924 0.820866 0.411863 0.151245
C113  C     C_R   0.755442 0.369212 0.382586 -0.159408
C114  C     C_R   0.244563 0.369213 0.617406 -0.159409
C115  C     C_R   0.255460 0.869158 0.382537 -0.159414
C116  C     C_R   0.744560 0.869204 0.617415 -0.159406
H41   H     H_    0.732639 0.339688 0.374598 0.139038
H42   H     H_    0.267368 0.339690 0.625397 0.139041
H43   H     H_    0.232668 0.839632 0.374569 0.139000
H44   H     H_    0.767363 0.839680 0.625402 0.139034
C117  C     C_R   0.727527 0.401569 0.332484 -0.172768
C118  C     C_R   0.272478 0.401571 0.667501 -0.172769
C119  C     C_R   0.227544 0.901489 0.332388 -0.172722
C120  C     C_R   0.772475 0.901557 0.667518 -0.172755
H45   H     H_    0.684234 0.396948 0.287699 0.161033
H46   H     H_    0.315774 0.396951 0.712283 0.161027
H47   H     H_    0.184261 0.896845 0.287589 0.161058
H48   H     H_    0.815768 0.896933 0.712302 0.161035
C121  C     C_R   0.754054 0.440914 0.342055 -0.094585
C122  C     C_R   0.245949 0.440916 0.657927 -0.094583
C123  C     C_R   0.254054 0.940837 0.341928 -0.094556
C124  C     C_R   0.745948 0.940902 0.657949 -0.094584
H49   H     H_    0.729749 0.466984 0.305273 0.186240
H50   H     H_    0.270253 0.466986 0.694702 0.186237
H51   H     H_    0.229745 0.966886 0.305102 0.186280
H52   H     H_    0.770253 0.966969 0.694731 0.186245
C125  C     C_R   0.810010 0.447621 0.400461 -0.015364
C126  C     C_R   0.189989 0.447621 0.599525 -0.015359
C127  C     C_R   0.309996 0.947575 0.400352 -0.015469
C128  C     C_R   0.689991 0.947613 0.599544 -0.015355
C129  C     C_R   0.841520 0.412113 0.446860 0.005030
C130  C     C_R   0.158480 0.412112 0.553136 0.005023
C131  C     C_R   0.341514 0.912092 0.446812 0.005078
C132  C     C_R   0.658482 0.912108 0.553144 0.005032
C133  C     C_R   0.811995 0.374611 0.441117 0.105028
C134  C     C_R   0.188007 0.374611 0.558880 0.105031
C135  C     C_R   0.312000 0.874587 0.441088 0.105014
C136  C     C_R   0.688006 0.874606 0.558885 0.105027
C137  C     C_R   0.839886 0.343149 0.494236 -0.083369
C138  C     C_R   0.160115 0.343149 0.505768 -0.083372
C139  C     C_R   0.339888 0.843150 0.494243 -0.083316
C140  C     C_R   0.660115 0.843148 0.505766 -0.083368
C141  C     C_R   0.897006 0.345363 0.547694 -0.202100
C142  C     C_R   0.102993 0.345361 0.452317 -0.202103
C143  C     C_R   0.396998 0.845391 0.547735 -0.202121
C144  C     C_R   0.602995 0.845365 0.452311 -0.202097
H53   H     H_    0.972399 0.378902 0.589691 0.172832
H54   H     H_    0.027599 0.378897 0.410327 0.172821
H55   H     H_    0.472382 0.878951 0.589758 0.172861
H56   H     H_    0.527602 0.878905 0.410316 0.172838
C145  C     C_R   0.927460 0.379053 0.549458 -0.146758
C146  C     C_R   0.072539 0.379048 0.450554 -0.146775
C147  C     C_R   0.427447 0.879082 0.549495 -0.146674
C148  C     C_R   0.572541 0.879053 0.450548 -0.146739
C149  C     C_R   0.900837 0.411975 0.499333 -0.106757
C150  C     C_R   0.099163 0.411972 0.500671 -0.106761
C151  C     C_R   0.400827 0.911980 0.499326 -0.106703
C152  C     C_R   0.599164 0.911973 0.500672 -0.106749
O33   O     O_R   0.017100 0.454190 0.442490 -0.597858
O34   O     O_R   0.982900 0.454190 0.557510 -0.597855
O35   O     O_R   0.517100 0.954190 0.442490 -0.597832
O36   O     O_R   0.482900 0.954190 0.557510 -0.597811
O37   O     O_R   0.074600 0.454200 0.557500 -0.627824
O38   O     O_R   0.925400 0.454200 0.442500 -0.627828
O39   O     O_R   0.574600 0.954200 0.557500 -0.627855
O40   O     O_R   0.425400 0.954200 0.442500 -0.627885
C153  C     C_R   0.062556 0.442092 0.500283 0.831781
C154  C     C_R   0.937444 0.442093 0.499719 0.831795
C155  C     C_R   0.562557 0.942092 0.500283 0.831767
C156  C     C_R   0.437440 0.942096 0.499718 0.831865
O41   O     O_R   0.517070 0.045810 0.442480 -0.530484
O42   O     O_R   0.482930 0.045810 0.557520 -0.530502
O43   O     O_R   0.017070 0.545810 0.442480 -0.530565
O44   O     O_R   0.982930 0.545810 0.557520 -0.530559
O45   O     O_R   0.574570 0.045820 0.557490 -0.602656
O46   O     O_R   0.425430 0.045820 0.442510 -0.602444
O47   O     O_R   0.074570 0.545820 0.557490 -0.602592
O48   O     O_R   0.925430 0.545820 0.442510 -0.602575
C157  C     C_R   0.558030 0.062663 0.500501 0.915383
C158  C     C_R   0.441976 0.062672 0.499489 0.915486
C159  C     C_R   0.058025 0.562667 0.500502 0.915440
C160  C     C_R   0.941973 0.562667 0.499495 0.915450
Zn9   Zn    Zn3+2 0.961620 0.500000 0.423200 1.132700
Zn10  Zn    Zn3+2 0.038380 0.500000 0.576800 1.132663
Zn11  Zn    Zn3+2 0.461620 1.000000 0.423200 1.133042
Zn12  Zn    Zn3+2 0.538380 0.000000 0.576800 1.132620
N17   N     N_R   0.565018 0.069125 0.390634 0.232216
O49   O     O_R   0.580071 0.028271 0.401658 -0.411245
O50   O     O_R   0.532703 0.083700 0.327460 -0.313892
N18   N     N_R   0.434803 0.069004 0.609189 0.232142
O51   O     O_R   0.419735 0.028154 0.598059 -0.411436
O52   O     O_R   0.467067 0.083523 0.672395 -0.314233
N19   N     N_R   0.064989 0.569148 0.390617 0.232213
O53   O     O_R   0.080051 0.528296 0.401622 -0.411211
O54   O     O_R   0.032657 0.583731 0.327448 -0.314015
N20   N     N_R   0.934985 0.569125 0.609359 0.232206
O55   O     O_R   0.919924 0.528274 0.598340 -0.411235
O56   O     O_R   0.967309 0.583697 0.672532 -0.314056
C161  C     C_2   0.941609 0.250992 0.712236 0.416389
H57   H     H_    0.917182 0.260505 0.658482 0.071433
O57   O     O_2   0.990952 0.242373 0.743658 -0.552372
C162  C     C_2   0.058386 0.250952 0.287766 0.416426
H58   H     H_    0.082803 0.260476 0.341513 0.071440
O58   O     O_2   0.009054 0.242297 0.256352 -0.552372
C163  C     C_2   0.441610 0.750985 0.712234 0.416378
H59   H     H_    0.417184 0.760499 0.658481 0.071441
O59   O     O_2   0.490951 0.742361 0.743656 -0.552379
C164  C     C_2   0.558391 0.750990 0.287766 0.416406
H60   H     H_    0.582816 0.760506 0.341517 0.071430
O60   O     O_2   0.509051 0.742363 0.256348 -0.552381
C165  C     C_2   0.830438 0.493226 0.417355 0.451733
H61   H     H_    0.864166 0.502129 0.470237 0.066372
O61   O     O_2   0.808610 0.521605 0.372941 -0.567242
C166  C     C_2   0.169556 0.493226 0.582622 0.451707
H62   H     H_    0.135825 0.502127 0.529740 0.066355
O62   O     O_2   0.191384 0.521605 0.627030 -0.567267
C167  C     C_2   0.330393 0.993189 0.417185 0.451950
H63   H     H_    0.364097 0.002124 0.470057 0.066506
O63   O     O_2   0.308569 0.021539 0.372726 -0.566980
C168  C     C_2   0.669564 0.993219 0.582650 0.451721
H64   H     H_    0.635838 0.002126 0.529768 0.066352
O64   O     O_2   0.691391 0.021594 0.627065 -0.567263
C169  C     C_2   0.527115 0.323454 0.150161 0.412218
H65   H     H_    0.515719 0.339649 0.178756 0.067200
O65   O     O_2   0.507961 0.337424 0.093085 -0.514905
C170  C     C_2   0.472847 0.323469 0.849830 0.412245
H66   H     H_    0.484240 0.339671 0.821235 0.067244
O66   O     O_2   0.491993 0.337437 0.906902 -0.514905
C171  C     C_2   0.027128 0.823463 0.150162 0.412267
H67   H     H_    0.015734 0.839661 0.178757 0.067262
O67   O     O_2   0.007976 0.837431 0.093085 -0.514889
C172  C     C_2   0.972851 0.823467 0.849829 0.412274
H68   H     H_    0.984242 0.839669 0.821233 0.067264
O68   O     O_2   0.992001 0.837434 0.906903 -0.514886
C173  C     C_2   0.653737 0.169539 0.728392 0.497189
H69   H     H_    0.691157 0.179778 0.778626 0.043118
O69   O     O_2   0.609764 0.168182 0.719278 -0.466232
C174  C     C_2   0.346632 0.169962 0.271877 0.496648
H70   H     H_    0.309444 0.181005 0.222008 0.042859
O70   O     O_2   0.390429 0.167755 0.280624 -0.465498
C175  C     C_2   0.153806 0.669504 0.728459 0.497218
H71   H     H_    0.191233 0.679747 0.778684 0.043099
O71   O     O_2   0.109846 0.668125 0.719379 -0.466121
C176  C     C_2   0.846223 0.669552 0.271559 0.497163
H72   H     H_    0.808813 0.679869 0.221363 0.043071
O72   O     O_2   0.890169 0.668098 0.280608 -0.466044
N21   N     N_R   0.569767 0.118605 0.605621 0.214545
O73   O     O_R   0.523762 0.141088 0.568132 -0.363953
O74   O     O_R   0.577525 0.091801 0.651754 -0.309571
N22   N     N_R   0.430268 0.118568 0.394358 0.214577
O75   O     O_R   0.476262 0.141080 0.431512 -0.363748
O76   O     O_R   0.422349 0.091624 0.348274 -0.308599
N23   N     N_R   0.069813 0.618582 0.605690 0.214580
O77   O     O_R   0.023823 0.641087 0.568288 -0.363546
O78   O     O_R   0.077598 0.591751 0.651812 -0.309516
N24   N     N_R   0.930185 0.618582 0.394302 0.214581
O79   O     O_R   0.976174 0.641087 0.431670 -0.363524
O80   O     O_R   0.922383 0.591740 0.348185 -0.309429

loop_
_geom_bond_atom_site_label_1
_geom_bond_atom_site_label_2
_geom_bond_distance
_ccdc_geom_bond_type
C43   N7    1.356182 A    
C61   C65   1.411095 A    
C70   C74   1.377370 A    
C148  C152  1.398895 A    
C46   C50   1.379987 A    
O44   Zn10  2.016744 S    
C47   C67   1.407807 A    
C72   C76   1.377403 A    
C63   C67   1.411125 A    
O35   C155  1.279021 A    
C31   C171  1.485669 S    
C147  C151  1.398910 A    
N4    C43   1.355014 A    
C132  C136  1.412521 A    
Zn6   O22   2.018843 S    
C56   C176  1.487119 S    
O38   C154  1.276513 A    
C74   C78   1.371075 A    
C80   C84   1.421642 A    
O43   Zn9   2.016754 S    
C168  H64   1.080417 S    
C79   C83   1.421633 A    
O36   Zn12  2.017324 S    
C64   C68   1.411147 A    
C173  O69   1.220250 D    
C85   C161  1.487747 S    
O33   Zn9   2.017315 S    
C58   C62   1.444635 A    
C12   C140  1.430544 S    
N21   O74   1.302349 A    
C117  H45   1.082767 S    
C167  H63   1.080381 S    
C125  C165  1.478945 S    
C92   H28   1.083164 S    
C79   N19   1.435757 S    
C114  C134  1.412157 A    
Zn1   O25   2.004153 S    
C48   C52   1.380134 A    
C116  C120  1.387914 A    
N2    C41   1.355013 A    
Zn3   O19   2.019817 S    
C164  H60   1.083145 S    
C42   N6    1.355014 A    
N10   C109  1.355696 A    
Zn4   O28   2.004182 S    
O13   C5    1.290108 A    
Zn5   O29   2.008330 S    
C15   C107  1.458582 S    
C96   C111  1.466545 S    
C11   C139  1.430519 S    
C30   C34   1.396618 A    
O11   Zn3   2.008542 S    
C24   H8    1.083743 S    
C104  H36   1.083232 S    
O9    C5    1.286985 A    
O2    Zn2   2.018420 S    
C19   C39   1.399790 A    
O10   Zn2   2.008512 S    
C57   C61   1.444325 A    
N18   O51   1.301069 A    
O6    Zn6   2.019841 S    
C71   C75   1.377410 A    
C81   C157  1.453140 S    
C133  C137  1.408528 A    
C144  C148  1.372926 A    
C99   C103  1.386642 A    
C94   C98   1.400891 A    
C100  C104  1.386642 A    
C1    C69   1.421324 S    
C60   N24   1.428795 S    
C36   H12   1.084144 S    
C17   H1    1.082992 S    
C51   H23   1.083972 S    
C35   C39   1.403257 A    
C19   H3    1.082991 S    
C20   H4    1.082991 S    
C20   C24   1.389655 A    
C113  C117  1.387915 A    
C145  C149  1.398894 A    
O24   C12   1.276343 A    
C22   H6    1.083749 S    
C77   C81   1.421621 A    
C176  H72   1.085994 S    
H38   C142  1.083916 S    
C55   C59   1.423695 A    
O3    C3    1.277304 A    
C171  H67   1.085717 S    
C53   C57   1.423690 A    
N23   O77   1.299155 A    
C25   C29   1.416362 A    
C131  C135  1.412535 A    
C102  C106  1.400051 A    
C10   C138  1.430551 S    
O17   C9    1.279694 A    
C118  C122  1.387772 A    
C89   H25   1.083164 S    
C140  C144  1.388063 A    
O43   C159  1.286020 A    
H16   C76   1.085634 S    
C123  H51   1.083312 S    
C48   C68   1.407802 A    
C126  C166  1.478944 S    
C80   N20   1.435762 S    
C98   C102  1.386634 A    
O38   Zn9   2.021990 S    
C4    C72   1.421364 S    
C86   C106  1.416095 A    
C102  H34   1.083220 S    
N24   O79   1.299160 A    
C22   C26   1.401450 A    
C47   C51   1.380149 A    
H40   C144  1.083913 S    
C95   C112  1.466547 S    
C125  C129  1.430951 A    
C19   C23   1.389650 A    
C93   C110  1.466541 S    
C67   C71   1.401271 A    
C161  O57   1.221372 D    
N14   C110  1.356324 A    
C28   C32   1.416357 A    
C46   H18   1.081513 S    
O20   C12   1.279686 A    
O8    C4    1.273232 A    
C89   C93   1.402776 A    
C59   N23   1.428806 S    
O29   C13   1.285152 A    
C169  O65   1.220619 D    
C131  C151  1.429163 A    
C146  C150  1.398897 A    
C132  C152  1.429125 A    
C8    C40   1.465362 S    
C162  O58   1.221373 D    
N11   N15   1.327836 A    
C20   C40   1.399789 A    
O47   Zn10  2.021914 S    
C25   C42   1.458575 S    
N20   O56   1.301103 A    
C129  C149  1.429121 A    
C170  H66   1.085714 S    
C113  C133  1.412158 A    
C149  C154  1.447388 S    
C122  H50   1.083310 S    
O41   C157  1.286007 A    
C167  O63   1.221758 D    
C166  O62   1.221756 D    
C75   C79   1.371130 A    
O5    C1    1.273219 A    
N17   O49   1.301068 A    
C60   C64   1.444397 A    
C17   C21   1.389649 A    
O36   C156  1.279057 A    
N22   O76   1.302391 A    
O34   Zn10  2.017324 S    
O25   C13   1.287024 A    
O33   C153  1.279015 A    
C172  O68   1.220609 D    
C163  O59   1.221373 D    
C92   C96   1.402777 A    
C23   C27   1.401447 A    
C48   H20   1.081527 S    
Zn2   O26   2.004182 S    
O16   Zn8   2.004222 S    
O27   C15   1.287032 A    
C137  C141  1.388064 A    
C86   C162  1.487745 S    
C14   C106  1.458601 S    
O14   C6    1.290103 A    
Zn6   O30   2.008300 S    
C76   C80   1.371128 A    
O41   Zn11  2.016754 S    
C69   C73   1.377428 A    
C24   C28   1.401448 A    
C115  C119  1.387906 A    
C122  C126  1.405984 A    
C129  C133  1.412518 A    
O10   C6    1.286974 A    
O3    Zn3   2.018404 S    
N10   N14   1.327837 A    
C3    C71   1.421339 S    
H56   C148  1.084148 S    
C82   C158  1.453098 S    
C87   C91   1.399758 A    
H53   C145  1.084146 S    
C100  H32   1.082846 S    
C174  H70   1.086447 S    
C93   C97   1.400894 A    
C168  O64   1.221756 D    
C36   C40   1.403256 A    
H39   C143  1.083912 S    
C9    C137  1.430537 S    
C96   C100  1.400895 A    
C117  C121  1.387766 A    
C51   C55   1.389771 A    
C18   H2    1.082994 S    
C35   H11   1.084148 S    
C16   C108  1.458581 S    
N5    N6    1.328817 A    
O13   Zn5   2.004193 S    
O23   C11   1.276347 A    
C84   C160  1.453148 S    
C32   C36   1.396618 A    
O15   Zn7   2.004193 S    
N21   O73   1.299157 A    
C45   C49   1.380160 A    
C5    C37   1.465363 S    
C134  C138  1.408530 A    
C17   C37   1.399792 A    
C88   C92   1.399756 A    
O40   Zn11  2.021990 S    
C54   C58   1.423997 A    
C164  O60   1.221371 D    
C77   N17   1.435761 S    
C120  C124  1.387769 A    
C2    C70   1.421427 S    
C165  O61   1.221753 D    
C143  C147  1.372914 A    
C90   H26   1.083164 S    
C101  C105  1.400051 A    
C104  C108  1.400050 A    
C85   C105  1.416083 A    
C91   C95   1.402775 A    
O4    C4    1.277298 A    
C98   H30   1.082842 S    
C88   C164  1.487748 S    
C33   C37   1.403259 A    
N18   O52   1.301109 A    
C97   C101  1.386640 A    
Zn7   O31   2.008330 S    
N15   C111  1.356326 A    
Zn8   O32   2.008300 S    
C172  H68   1.085700 S    
C128  C168  1.478945 S    
O47   C159  1.273564 A    
C87   C107  1.416089 A    
O48   C160  1.273561 A    
O1    C1    1.277313 A    
C88   C108  1.416088 A    
C66   C70   1.401331 A    
C175  H71   1.085916 S    
N3    C44   1.356184 A    
N11   C112  1.355703 A    
C34   H10   1.084150 S    
C53   C173  1.487066 S    
C121  H49   1.083310 S    
N9    C110  1.355701 A    
C136  C140  1.408530 A    
C29   C169  1.485670 S    
O7    C3    1.273235 A    
N19   O53   1.301072 A    
O44   C160  1.286025 A    
C103  H35   1.083235 S    
O21   C9    1.276347 A    
O28   C16   1.287024 A    
C90   C94   1.402772 A    
C46   C66   1.407772 A    
O40   C156  1.276502 A    
H13   C73   1.085633 S    
O30   C14   1.285145 A    
C127  C167  1.478951 S    
C6    C38   1.465361 S    
C58   N22   1.428682 S    
N12   C111  1.355701 A    
C176  O72   1.220335 D    
C18   C38   1.399790 A    
O48   Zn9   2.021961 S    
C139  C143  1.388046 A    
C130  C150  1.429118 A    
C85   C89   1.399757 A    
O39   Zn12  2.022037 S    
C124  H52   1.083308 S    
O42   Zn12  2.016744 S    
C171  O67   1.220618 D    
C150  C153  1.447393 S    
C65   C69   1.401258 A    
O42   C158  1.286127 A    
C127  C131  1.430985 A    
C68   C72   1.401283 A    
C141  C145  1.372926 A    
C114  C118  1.387916 A    
O6    C2    1.273259 A    
C52   C56   1.389773 A    
C34   C38   1.403258 A    
O37   C153  1.276522 A    
C121  C125  1.405984 A    
O35   Zn11  2.017315 S    
C55   C175  1.487076 S    
O26   C14   1.287028 A    
C31   C35   1.396622 A    
C62   C82   1.445917 A    
N24   O80   1.302359 A    
O34   C154  1.279023 A    
C21   H5    1.083748 S    
C23   H7    1.083750 S    
C113  H41   1.082122 S    
H37   C141  1.083911 S    
O45   Zn12  2.021914 S    
C119  H47   1.082769 S    
Zn3   O27   2.004153 S    
O46   Zn11  2.021961 S    
Zn4   O20   2.019839 S    
C116  C136  1.412157 A    
C161  H57   1.083142 S    
C26   C30   1.416363 A    
Zn5   O21   2.018823 S    
N7    N8    1.328819 A    
C119  C123  1.387757 A    
C73   C77   1.371145 A    
O12   Zn4   2.008512 S    
C115  H43   1.082120 S    
C163  H59   1.083141 S    
N1    N2    1.328819 A    
C169  H65   1.085718 S    
O15   C7    1.290108 A    
N3    N4    1.328819 A    
N12   N16   1.327838 A    
C21   C25   1.401449 A    
C173  H69   1.085899 S    
C28   C43   1.458574 S    
O39   C155  1.276518 A    
C54   C174  1.487571 S    
C61   C81   1.445659 A    
C170  O66   1.220616 D    
C59   C63   1.444370 A    
C50   H22   1.083990 S    
C64   C84   1.445704 A    
H54   C146  1.084149 S    
C63   C83   1.445686 A    
C45   C65   1.407806 A    
C49   H21   1.083971 S    
C27   C44   1.458575 S    
C94   C109  1.466541 S    
C87   C163  1.487746 S    
Zn2   O18   2.019839 S    
C44   N8    1.355008 A    
O16   C8    1.290103 A    
C30   C170  1.485669 S    
N13   C109  1.356327 A    
O14   Zn6   2.004222 S    
C29   C33   1.396620 A    
C45   H17   1.081528 S    
O11   C7    1.286985 A    
O12   C8    1.286974 A    
O1    Zn1   2.018404 S    
O9    Zn1   2.008542 S    
C56   C60   1.423723 A    
O4    Zn4   2.018420 S    
C18   C22   1.389654 A    
C118  H46   1.082767 S    
C26   C41   1.458574 S    
O5    Zn5   2.019825 S    
H55   C147  1.084146 S    
O18   C10   1.279685 A    
C152  C155  1.447401 S    
O7    Zn7   2.019825 S    
O8    Zn8   2.019841 S    
C116  H44   1.082121 S    
C101  H33   1.083235 S    
C99   H31   1.082843 S    
H15   C75   1.085634 S    
C114  H42   1.082119 S    
C95   C99   1.400895 A    
C128  C132  1.430951 A    
C91   H27   1.083163 S    
N16   C112  1.356325 A    
C175  O71   1.220267 D    
C97   H29   1.082840 S    
C115  C135  1.412158 A    
N23   O78   1.302354 A    
N19   O54   1.301099 A    
C174  O70   1.220664 D    
O46   C158  1.273449 A    
C7    C39   1.465363 S    
C27   C31   1.416364 A    
C83   C159  1.453146 S    
O2    C2    1.277297 A    
C120  H48   1.082766 S    
C162  H58   1.083146 S    
O31   C15   1.285148 A    
C138  C142  1.388066 A    
C57   N21   1.428785 S    
O32   C16   1.285141 A    
N20   O55   1.301071 A    
C103  C107  1.400049 A    
C62   C66   1.411217 A    
O22   C10   1.276344 A    
C123  C127  1.405988 A    
C130  C134  1.412522 A    
C135  C139  1.408522 A    
H14   C74   1.085641 S    
C78   N18   1.435796 S    
C166  H62   1.080423 S    
O37   Zn10  2.022037 S    
N17   O50   1.301103 A    
O19   C11   1.279681 A    
C13   C105  1.458575 S    
N9    N13   1.327839 A    
N22   O75   1.299191 A    
Zn7   O23   2.018823 S    
Zn8   O24   2.018843 S    
C126  C130  1.430948 A    
C165  H61   1.080419 S    
C33   H9    1.084148 S    
C124  C128  1.405983 A    
C86   C90   1.399762 A    
C32   C172  1.485670 S    
C151  C156  1.447417 S    
C78   C82   1.421640 A    
Zn1   O17   2.019817 S    
C47   H19   1.081527 S    
C50   C54   1.389772 A    
C49   C53   1.389777 A    
N1    C42   1.356185 A    
C142  C146  1.372925 A    
C41   N5    1.356183 A    
C52   H24   1.083974 S    
O45   C157  1.273563 A    
