data_mof_unit_44175.cif
_audit_creation_date              2012-12-11T14:41:08-0500
_audit_creation_method            fapswitch 2.2
_symmetry_space_group_name_H-M    P1
_symmetry_Int_Tables_number       1
_space_group_crystal_system       triclinic
_cell_length_a                    24.665529
_cell_length_b                    17.491916
_cell_length_c                    15.555512
_cell_angle_alpha                 90.311408
_cell_angle_beta                  129.419157
_cell_angle_gamma                 89.561974
_cell_volume                      5184.53462885

loop_
_atom_site_label
_atom_site_type_symbol
_atom_type_description
_atom_site_fract_x
_atom_site_fract_y
_atom_site_fract_z
_atom_type_partial_charge
C1    C     C_R   0.334724 0.390176 0.199847 -0.126497
C2    C     C_R   0.678617 0.625809 0.497180 0.036231
C3    C     C_3   0.142762 0.598933 0.220008 -0.971887
C4    C     C_3   0.686351 0.898908 0.408255 0.320023
C5    C     C_3   0.639738 0.958580 0.404527 -0.901054
C6    C     C_3   0.655621 0.149918 0.310951 0.303687
C7    C     C_3   0.642699 0.098690 0.220191 -0.971866
C8    C     C_R   0.182884 0.881948 0.499109 0.032762
C9    C     C_R   0.178735 0.125575 0.497211 0.036057
C10   C     C_R   0.345789 0.330561 0.497511 0.040462
C11   C     C_R   0.355727 0.680190 0.499949 0.008505
C12   C     C_R   0.845621 0.830783 0.497503 0.040434
C13   C     C_R   0.855725 0.180189 0.499944 0.008578
C14   C     C_3   0.347349 0.203717 0.567814 -0.474457
C15   C     C_3   0.355737 0.787616 0.604611 -0.491888
C16   C     C_3   0.847027 0.703666 0.566900 -0.474375
C17   C     C_R   0.334314 0.608953 0.198874 -0.143841
C18   C     C_3   0.855737 0.287634 0.604581 -0.491936
C19   C     C_3   0.800657 0.646671 0.569671 -0.410896
C20   C     C_3   0.808102 0.343961 0.605259 -0.414247
C21   C     C_3   0.300957 0.146728 0.570545 -0.410748
C22   C     C_3   0.308104 0.843946 0.605290 -0.414265
C23   C     C_3   0.271154 0.310662 0.548801 0.473367
C24   C     C_3   0.255195 0.692431 0.495114 0.479911
C25   C     C_3   0.771542 0.810675 0.549832 0.472983
C26   C     C_3   0.755213 0.192425 0.495158 0.479473
C27   C     C_3   0.244471 0.243459 0.376103 -0.420154
C28   C     C_R   0.834729 0.890157 0.199863 -0.126380
C29   C     C_3   0.275325 0.792126 0.397215 -0.410259
C30   C     C_3   0.743863 0.744323 0.375912 -0.420429
C31   C     C_3   0.775300 0.292103 0.397184 -0.410267
C32   C     C_3   0.302291 0.274259 0.495978 0.209495
C33   C     C_3   0.311081 0.736890 0.497954 0.248014
C34   C     C_3   0.802112 0.774537 0.495977 0.209679
C35   C     C_3   0.811079 0.236887 0.497949 0.248273
C36   C     C_3   0.724013 0.677326 0.496410 0.349542
C37   C     C_3   0.730687 0.332348 0.499200 0.371155
C38   C     C_3   0.224177 0.177050 0.496445 0.349499
C39   C     C_R   0.834315 0.108955 0.198876 -0.143787
C40   C     C_3   0.230692 0.832354 0.499210 0.371086
C41   C     C_3   0.721401 0.754926 0.542694 -0.539580
C42   C     C_3   0.707912 0.249416 0.496769 -0.589269
C43   C     C_3   0.221071 0.254860 0.541755 -0.539804
C44   C     C_3   0.207903 0.749422 0.496747 -0.589285
C45   C     C_R   0.652595 0.363278 0.761069 -0.124404
C46   C     C_R   0.653348 0.635252 0.763683 -0.124270
C47   C     C_R   0.152585 0.863267 0.761045 -0.124398
C48   C     C_R   0.153345 0.135256 0.763672 -0.124302
C49   C     C_3   0.697051 0.688779 0.376021 -0.417414
C50   C     C_R   0.622329 0.323307 0.797717 0.150830
C51   C     C_3   0.726194 0.347328 0.396366 -0.416088
C52   C     C_3   0.197625 0.187927 0.376201 -0.417379
C53   C     C_3   0.226225 0.847358 0.396405 -0.416067
C54   C     C_2   0.648610 0.252238 0.861088 -0.224864
C55   C     C_2   0.650480 0.745155 0.867108 -0.226339
C56   C     C_2   0.148585 0.752211 0.861031 -0.224880
C57   C     C_2   0.150477 0.245162 0.867095 -0.226299
C58   C     C_2   0.698247 0.211372 0.870848 -0.110490
C59   C     C_2   0.698505 0.786417 0.873958 -0.109306
C60   C     C_2   0.198241 0.711359 0.870827 -0.110449
C61   C     C_R   0.623763 0.674626 0.802425 0.149444
C62   C     C_2   0.198504 0.286422 0.873950 -0.109305
C63   C     C_2   0.309471 0.657727 0.023327 -0.222229
C64   C     C_2   0.309760 0.340253 0.024508 -0.219698
C65   C     C_2   0.809475 0.157733 0.023334 -0.222164
C66   C     C_2   0.809765 0.840230 0.024527 -0.219587
C67   C     C_2   0.239783 0.657795 0.962495 -0.107088
C68   C     C_2   0.240114 0.340599 0.964552 -0.107831
C69   C     C_2   0.739788 0.157799 0.962501 -0.107095
C70   C     C_2   0.740119 0.840589 0.964565 -0.107828
C71   C     C_R   0.614366 0.396199 0.406987 -0.143942
C72   C     C_R   0.122308 0.823284 0.797668 0.150851
C73   C     C_R   0.611862 0.606577 0.405536 -0.146582
C74   C     C_R   0.114368 0.896200 0.406990 -0.143933
C75   C     C_R   0.111930 0.106463 0.405566 -0.146393
C76   C     C_R   0.401002 0.368583 0.591636 -0.095115
C77   C     C_R   0.405799 0.636494 0.592393 -0.132584
C78   C     C_R   0.900934 0.868685 0.591645 -0.094646
C79   C     C_R   0.905799 0.136496 0.592391 -0.132535
C80   C     C_R   0.689293 0.398412 0.591747 -0.147231
C81   C     C_R   0.687866 0.605365 0.591017 -0.148382
C82   C     C_R   0.189294 0.898416 0.591749 -0.147218
C83   C     C_R   0.123760 0.174631 0.802415 0.149447
C84   C     C_R   0.187902 0.105273 0.591026 -0.148304
C85   C     C_R   0.329672 0.365960 0.405141 -0.128973
C86   C     C_R   0.336240 0.641011 0.407069 -0.013488
C87   C     C_R   0.829560 0.866095 0.405127 -0.130199
C88   C     C_R   0.836234 0.141006 0.407064 -0.013688
C89   C     C_R   0.563860 0.364020 0.766874 -0.155061
C90   C     C_R   0.565262 0.634430 0.770844 -0.151046
C91   C     C_R   0.063839 0.863999 0.766828 -0.155107
C92   C     C_R   0.065262 0.134433 0.770839 -0.151034
C93   C     C_R   0.425519 0.388448 0.199816 -0.153308
C94   C     C_R   0.682881 0.381943 0.499104 0.032732
C95   C     C_R   0.425328 0.610753 0.199589 -0.150323
C96   C     C_R   0.925521 0.888438 0.199823 -0.153271
C97   C     C_R   0.925331 0.110756 0.199593 -0.150283
C98   C     C_R   0.355508 0.369198 0.138543 0.151625
C99   C     C_R   0.355074 0.629533 0.137690 0.158711
C100  C     C_R   0.855513 0.869177 0.138559 0.151533
C101  C     C_R   0.855077 0.129537 0.137694 0.158695
C102  C     C_3   0.185691 0.398091 0.405937 0.320627
C103  C     C_3   0.138557 0.457504 0.401282 -0.902926
C104  C     C_3   0.155613 0.650013 0.310841 0.303513
H1    H     H_    0.281961 0.392279 0.171826 0.078628
H2    H     H_    0.824695 0.403735 0.609092 0.163187
H3    H     H_    0.150400 0.538000 0.244799 0.266404
H4    H     H_    0.088166 0.607161 0.141758 0.212156
H5    H     H_    0.179284 0.613642 0.204011 0.240481
H6    H     H_    0.653944 0.847329 0.365651 0.066150
H7    H     H_    0.702768 0.920798 0.361094 0.105258
H8    H     H_    0.669679 0.011906 0.446099 0.294387
H9    H     H_    0.593778 0.971478 0.316803 0.202225
H10   H     H_    0.620721 0.936667 0.448028 0.245918
H11   H     H_    0.650725 0.209848 0.284523 0.084316
H12   H     H_    0.614024 0.137869 0.317134 0.101530
H13   H     H_    0.302782 0.089792 0.540138 0.163127
H14   H     H_    0.650111 0.037775 0.244976 0.265851
H15   H     H_    0.588157 0.107066 0.141870 0.212086
H16   H     H_    0.679339 0.113115 0.204329 0.240757
H17   H     H_    0.324712 0.903718 0.609155 0.163155
H18   H     H_    0.322186 0.139644 0.658007 0.149067
H19   H     H_    0.314785 0.833286 0.681894 0.150272
H20   H     H_    0.822155 0.639196 0.657219 0.149138
H21   H     H_    0.814797 0.333315 0.681878 0.150272
H22   H     H_    0.316227 0.315118 0.639530 0.055827
H23   H     H_    0.285211 0.661781 0.576218 0.060469
H24   H     H_    0.816843 0.814624 0.640509 0.055770
H25   H     H_    0.281406 0.606464 0.170207 0.081156
H26   H     H_    0.785244 0.161801 0.576284 0.060389
H27   H     H_    0.738143 0.747472 0.627660 0.138955
H28   H     H_    0.713820 0.239006 0.573012 0.151527
H29   H     H_    0.237582 0.247776 0.626627 0.139108
H30   H     H_    0.213813 0.739001 0.572988 0.151553
H31   H     H_    0.710630 0.790371 0.315394 0.127308
H32   H     H_    0.744786 0.261356 0.316651 0.152451
H33   H     H_    0.211179 0.289200 0.314997 0.127280
H34   H     H_    0.244812 0.761393 0.316671 0.152472
H35   H     H_    0.269314 0.213595 0.345380 0.173488
H36   H     H_    0.781967 0.892244 0.171851 0.078639
H37   H     H_    0.316003 0.825298 0.403362 0.166567
H38   H     H_    0.768307 0.714609 0.344423 0.173455
H39   H     H_    0.815965 0.325282 0.403302 0.166577
H40   H     H_    0.696219 0.633113 0.340095 0.158946
H41   H     H_    0.741177 0.407428 0.397561 0.158633
H42   H     H_    0.197142 0.132080 0.340985 0.158979
H43   H     H_    0.241235 0.907455 0.397651 0.158625
H44   H     H_    0.642760 0.712588 0.321472 0.147362
H45   H     H_    0.672009 0.339301 0.317420 0.140267
H46   H     H_    0.143258 0.211512 0.321023 0.147164
H47   H     H_    0.781408 0.106469 0.170209 0.081108
H48   H     H_    0.172043 0.839367 0.317440 0.140265
H49   H     H_    0.700244 0.349743 0.774580 0.087002
H50   H     H_    0.701260 0.647942 0.778081 0.086794
H51   H     H_    0.200232 0.849730 0.774554 0.086995
H52   H     H_    0.201252 0.147950 0.778056 0.086786
H53   H     H_    0.666756 0.777081 0.491074 0.177039
H54   H     H_    0.651135 0.242320 0.427029 0.153688
H55   H     H_    0.166328 0.276767 0.489619 0.177066
H56   H     H_    0.151124 0.742326 0.427011 0.153718
H57   H     H_    0.214832 0.630090 0.991482 0.125154
H58   H     H_    0.370034 0.175275 0.532720 0.187065
H59   H     H_    0.215298 0.369281 0.993642 0.123894
H60   H     H_    0.714837 0.130087 0.991484 0.125149
H61   H     H_    0.715305 0.869279 0.993652 0.123894
H62   H     H_    0.716402 0.226506 0.825321 0.125871
H63   H     H_    0.715298 0.771637 0.826152 0.127861
H64   H     H_    0.216408 0.726502 0.825321 0.125866
H65   H     H_    0.215301 0.271639 0.826151 0.127804
H66   H     H_    0.333631 0.686290 0.993332 0.126590
H67   H     H_    0.333744 0.310783 0.994289 0.127101
H68   H     H_    0.833635 0.186303 0.993342 0.126600
H69   H     H_    0.396004 0.819525 0.608175 0.187405
H70   H     H_    0.833748 0.810754 0.994310 0.127143
H71   H     H_    0.631410 0.236863 0.908032 0.127735
H72   H     H_    0.634571 0.760256 0.916168 0.127167
H73   H     H_    0.131371 0.736827 0.907954 0.127736
H74   H     H_    0.134563 0.260266 0.916148 0.127139
H75   H     H_    0.590921 0.393248 0.320239 0.083405
H76   H     H_    0.588024 0.608070 0.318522 0.087116
H77   H     H_    0.090924 0.893245 0.320243 0.083404
H78   H     H_    0.088112 0.107908 0.318561 0.087073
H79   H     H_    0.420366 0.361250 0.675684 0.071688
H80   H     H_    0.869291 0.675386 0.531040 0.187099
H81   H     H_    0.424048 0.642777 0.675813 0.081509
H82   H     H_    0.920326 0.861360 0.675710 0.071835
H83   H     H_    0.924048 0.142783 0.675810 0.081520
H84   H     H_    0.736427 0.399175 0.677695 0.083261
H85   H     H_    0.735667 0.607341 0.676478 0.082678
H86   H     H_    0.236428 0.899185 0.677698 0.083254
H87   H     H_    0.235685 0.107243 0.676502 0.082653
H88   H     H_    0.287167 0.355606 0.318216 0.082888
H89   H     H_    0.294948 0.654624 0.320934 0.081587
H90   H     H_    0.787026 0.855785 0.318196 0.083340
H91   H     H_    0.895988 0.319547 0.608109 0.187406
H92   H     H_    0.794929 0.154606 0.320927 0.081552
H93   H     H_    0.532295 0.350564 0.790275 0.090204
H94   H     H_    0.535022 0.646846 0.797257 0.090054
H95   H     H_    0.032257 0.850525 0.790190 0.090200
H96   H     H_    0.035022 0.146850 0.797254 0.090056
H97   H     H_    0.455068 0.388651 0.170195 0.091029
H98   H     H_    0.455020 0.610082 0.170221 0.090101
H99   H     H_    0.955068 0.888641 0.170199 0.091057
H100  H     H_    0.955026 0.110088 0.170230 0.090117
H101  H     H_    0.392203 0.221083 0.654394 0.149545
H102  H     H_    0.802115 0.589870 0.538565 0.163170
H103  H     H_    0.384069 0.752816 0.681601 0.150775
H104  H     H_    0.892166 0.720634 0.653511 0.149634
H105  H     H_    0.884089 0.252850 0.681589 0.150786
H106  H     H_    0.153669 0.346228 0.363729 0.066116
H107  H     H_    0.202125 0.419934 0.358779 0.104519
H108  H     H_    0.168123 0.511081 0.442474 0.294588
H109  H     H_    0.092656 0.469964 0.313350 0.202342
H110  H     H_    0.119474 0.435585 0.444685 0.246237
H111  H     H_    0.150714 0.709980 0.284546 0.084325
H112  H     H_    0.113982 0.637872 0.316914 0.101553
N1    N     N_R   0.389430 0.421450 0.294590 -0.045144
N2    N     N_R   0.581780 0.577610 0.443390 -0.033027
N3    N     N_R   0.081780 0.922390 0.443390 -0.033351
N4    N     N_R   0.081780 0.077610 0.443390 -0.033046
N5    N     N_R   0.419850 0.423100 0.556610 -0.036241
N6    N     N_R   0.419850 0.576900 0.556610 -0.036633
N7    N     N_R   0.919850 0.923100 0.556610 -0.036277
N8    N     N_R   0.919850 0.076900 0.556610 -0.036623
N9    N     N_R   0.627410 0.423100 0.556610 -0.033879
N10   N     N_R   0.627410 0.576900 0.556610 -0.033039
N11   N     N_R   0.127410 0.923100 0.556610 -0.033872
N12   N     N_R   0.389430 0.578550 0.294590 -0.049137
N13   N     N_R   0.127410 0.076900 0.556610 -0.033052
N14   N     N_R   0.374220 0.422390 0.443390 -0.036710
N15   N     N_R   0.374220 0.577610 0.443390 -0.043850
N16   N     N_R   0.874220 0.922390 0.443390 -0.036675
N17   N     N_R   0.874220 0.077610 0.443390 -0.043877
N18   N     N_R   0.555000 0.424040 0.705410 -0.043169
N19   N     N_R   0.555000 0.575960 0.705410 -0.042439
N20   N     N_R   0.055000 0.924040 0.705410 -0.043173
N21   N     N_R   0.055000 0.075960 0.705410 -0.042433
N22   N     N_R   0.446630 0.421450 0.294590 -0.041532
N23   N     N_R   0.889430 0.921450 0.294590 -0.045101
N24   N     N_R   0.446630 0.578550 0.294590 -0.041491
N25   N     N_R   0.946630 0.921450 0.294590 -0.041534
N26   N     N_R   0.946630 0.078550 0.294590 -0.041500
N27   N     N_R   0.889430 0.078550 0.294590 -0.049128
N28   N     N_R   0.612200 0.424040 0.705410 -0.046133
N29   N     N_R   0.612200 0.575960 0.705410 -0.046075
N30   N     N_R   0.112200 0.924040 0.705410 -0.046134
N31   N     N_R   0.112200 0.075960 0.705410 -0.046080
N32   N     N_R   0.581780 0.422390 0.443390 -0.033356
Ni1   Ni    Ni4+2 0.382890 0.500000 0.370170 0.216061
Ni2   Ni    Ni4+2 0.882890 0.000000 0.370170 0.215949
Ni3   Ni    Ni4+2 0.618740 0.500000 0.629830 0.204446
Ni4   Ni    Ni4+2 0.118740 1.000000 0.629830 0.204443
Ni5   Ni    Ni4+2 0.514090 0.500000 0.370170 0.203994
Ni6   Ni    Ni4+2 0.014090 0.000000 0.370170 0.204015
Ni7   Ni    Ni4+2 0.487550 0.500000 0.629830 0.220678
Ni8   Ni    Ni4+2 0.987550 1.000000 0.629830 0.220743
O1    O     O_3   0.245984 0.387403 0.518254 -0.625083
O2    O     O_3   0.221881 0.632449 0.413723 -0.632591
O3    O     O_3   0.746702 0.887579 0.520347 -0.625437
O4    O     O_3   0.721918 0.132414 0.413812 -0.632867

loop_
_geom_bond_atom_site_label_1
_geom_bond_atom_site_label_2
_ccdc_geom_bond_type
C3    C104  S    
C89   N18   A    
C13   C79   A    
C10   C85   A    
N28   Ni3   S    
C55   C59   D    
C5    H10   S    
C77   H81   S    
C9    C84   A    
C88   H92   S    
N21   Ni8   S    
C28   H36   S    
C69   H60   S    
C65   C101  S    
C51   H45   S    
N5    Ni7   S    
C79   N8    A    
C74   H77   S    
N30   Ni4   S    
N31   Ni4   S    
C61   C90   A    
C85   H88   S    
C88   N17   A    
N8    Ni8   S    
N24   Ni5   S    
C60   H64   S    
C79   H83   S    
N4    N13   A    
C22   H17   S    
C8    C82   A    
C86   N15   A    
C64   C68   D    
C14   C21   S    
N3    Ni6   S    
C25   H24   S    
C1    N1    A    
C13   C35   S    
C48   N31   A    
C43   H55   S    
C19   C36   S    
C28   N23   A    
C57   H74   S    
C37   C51   S    
C17   N12   A    
C95   C99   A    
C102  H107  S    
C38   C52   S    
C51   H41   S    
C11   C86   A    
C66   C100  S    
C87   N16   A    
C49   H40   S    
C29   C33   S    
C53   H43   S    
C23   C43   S    
N21   N31   A    
C84   H87   S    
C6    O4    S    
C15   C33   S    
C71   H75   S    
C21   H18   S    
C43   H29   S    
C63   C99   S    
C11   C77   A    
C16   C34   S    
C97   N26   A    
C73   H76   S    
C10   C76   A    
N7    Ni8   S    
C15   C22   S    
C21   C38   S    
C60   C67   S    
C86   H89   S    
C56   C72   S    
N4    Ni6   S    
C74   N3    A    
C37   C94   S    
C24   H23   S    
C21   H13   S    
C27   C52   S    
C57   C83   S    
C78   H82   S    
C9    C75   A    
C80   N9    A    
C76   H79   S    
C93   H97   S    
C18   C35   S    
C103  H109  S    
C39   N27   A    
C26   H26   S    
C25   C34   S    
C91   H95   S    
C28   C100  A    
N9    N32   A    
C64   C98   S    
N29   Ni3   S    
C22   C40   S    
N9    Ni3   S    
N27   Ni2   S    
C82   H86   S    
N23   Ni2   S    
C77   N6    A    
C7    H14   S    
C36   C41   S    
C42   H54   S    
N1    Ni1   S    
C71   N32   A    
C19   H102  S    
C46   H50   S    
C104  H111  S    
N17   Ni2   S    
C39   C101  A    
N16   Ni2   S    
C20   H2    S    
C56   H73   S    
C44   H30   S    
N10   Ni3   S    
C19   H20   S    
C63   C67   D    
C92   N21   A    
C81   N10   A    
C30   C34   S    
C46   C61   A    
C17   H25   S    
N13   Ni4   S    
C7    H15   S    
C57   C62   D    
C18   H105  S    
C104  H112  S    
C6    H11   S    
C27   H33   S    
C70   H61   S    
C25   C41   S    
C41   H27   S    
C72   C91   A    
C15   H69   S    
N32   Ni5   S    
C102  H106  S    
C63   H66   S    
C65   H68   S    
C3    H3    S    
N6    Ni7   S    
C91   N20   A    
C27   H35   S    
C56   C60   D    
C49   H44   S    
C12   C78   A    
C95   H98   S    
C54   H71   S    
C14   H58   S    
N8    N17   A    
C83   C92   A    
N20   N30   A    
C53   H48   S    
C67   H57   S    
C50   C89   A    
C45   N28   A    
C102  O1    S    
C11   C33   S    
C93   N22   A    
C29   H37   S    
C37   C42   S    
C8    C74   A    
N26   N27   A    
C80   H84   S    
N23   N25   A    
C104  O2    S    
N20   Ni8   S    
C12   C34   S    
C84   N13   A    
C17   C99   A    
C103  H110  S    
C6    H12   S    
C2    C73   A    
C23   H22   S    
C41   H53   S    
C4    H7    S    
N6    N15   A    
C30   H31   S    
C4    O3    S    
C24   O2    S    
N22   Ni5   S    
C24   C44   S    
C31   C35   S    
C45   H49   S    
C55   C61   S    
C97   H100  S    
C80   C94   A    
N14   Ni1   S    
C20   H21   S    
N5    N14   A    
C59   H63   S    
N7    N16   A    
C26   C42   S    
C96   H99   S    
C22   H19   S    
N12   Ni1   S    
C54   C58   D    
C68   H59   S    
C2    C36   S    
C65   C69   D    
C62   H65   S    
C4    H6    S    
C52   H42   S    
C12   C87   A    
C5    H9    S    
C18   H91   S    
C7    H16   S    
C30   C49   S    
C85   N14   A    
C46   N29   A    
C31   C51   S    
C31   H32   S    
C16   H104  S    
C29   H34   S    
C103  H108  S    
C42   H28   S    
C16   H80   S    
C58   C69   S    
N12   N24   A    
C6    C7    S    
C90   H94   S    
C5    H8    S    
C3    H4    S    
C87   H90   S    
C89   H93   S    
C82   N11   A    
C78   N7    A    
C24   C33   S    
C30   H38   S    
C48   C83   A    
C62   C68   S    
C23   C32   S    
C93   C98   A    
C64   H67   S    
C1    C98   A    
N19   Ni7   S    
C38   C43   S    
C50   C54   S    
C45   C50   A    
C20   C37   S    
C66   C70   D    
C29   C53   S    
C75   N4    A    
C3    H5    S    
C16   C19   S    
C44   H56   S    
C4    C5    S    
N1    N22   A    
C13   C88   A    
C96   N25   A    
C9    C38   S    
N2    Ni5   S    
N19   N29   A    
C73   N2    A    
C18   C20   S    
C95   N24   A    
C31   H39   S    
C102  C103  S    
C58   H62   S    
C39   H47   S    
C97   C101  A    
C55   H72   S    
C76   N5    A    
N26   Ni6   S    
C27   C32   S    
C59   C70   S    
C90   N19   A    
C25   O3    S    
C81   H85   S    
C10   C32   S    
C26   C35   S    
C40   C44   S    
C96   C100  A    
C26   O4    S    
C47   C72   A    
C23   O1    S    
C52   H46   S    
C40   C53   S    
C14   H101  S    
C1    H1    S    
C48   H52   S    
C66   H70   S    
C2    C81   A    
C71   C94   A    
N25   Ni6   S    
C8    C40   S    
N3    N11   A    
C92   H96   S    
C75   H78   S    
C14   C32   S    
N18   Ni7   S    
N2    N10   A    
C47   N30   A    
C15   H103  S    
C36   C49   S    
N18   N28   A    
N11   Ni4   S    
C47   H51   S    
N15   Ni1   S    
