data_mof_unit_52560.cif
_audit_creation_date              2013-03-05T15:43:48-0500
_audit_creation_method            fapswitch 2.2
_symmetry_space_group_name_H-M    P1
_symmetry_Int_Tables_number       1
_space_group_crystal_system       triclinic
_cell_length_a                    22.08894
_cell_length_b                    21.922821
_cell_length_c                    23.232409
_cell_angle_alpha                 90.097459
_cell_angle_beta                  90.390679
_cell_angle_gamma                 89.935602
_cell_volume                      11250.0529118

loop_
_atom_site_label
_atom_site_type_symbol
_atom_site_description
_atom_site_fract_x
_atom_site_fract_y
_atom_site_fract_z
_atom_type_partial_charge
C1    C     C_R   0.914497 0.158342 0.074609 0.539145
C2    C     C_R   0.080744 0.847913 0.908547 0.551883
C3    C     C_R   0.139239 0.072442 0.107479 0.486207
C4    C     C_R   0.841386 0.912749 0.931271 0.510550
C5    C     C_R   0.086258 0.841216 0.074988 0.462451
C6    C     C_R   0.927172 0.147581 0.900987 0.504719
C7    C     C_R   0.845662 0.920612 0.087611 0.511489
C8    C     C_R   0.151267 0.080448 0.909450 0.575569
C9    C     C_R   0.912440 0.841365 0.925848 0.464023
C10   C     C_R   0.070513 0.146045 0.101004 0.501611
C11   C     C_R   0.155109 0.918863 0.914855 0.512958
C12   C     C_R   0.847161 0.082718 0.087255 0.592750
C13   C     C_R   0.084533 0.157274 0.921873 0.558081
C14   C     C_R   0.919911 0.849073 0.093407 0.556342
C15   C     C_R   0.856423 0.075437 0.896502 0.519707
C16   C     C_R   0.158334 0.911702 0.070102 0.525272
C17   C     C_R   0.414314 0.657989 0.575706 0.532840
C18   C     C_R   0.565348 0.366815 0.389046 0.572089
C19   C     C_R   0.645032 0.577792 0.601400 0.473618
C20   C     C_R   0.341523 0.412279 0.428732 0.472419
C21   C     C_R   0.586607 0.342464 0.579115 0.482830
C22   C     C_R   0.424691 0.650628 0.405320 0.526332
C23   C     C_R   0.347132 0.420800 0.589802 0.527702
C24   C     C_R   0.653900 0.585197 0.415291 0.509864
C25   C     C_R   0.412989 0.342260 0.421693 0.547669
C26   C     C_R   0.575476 0.650725 0.594854 0.522834
C27   C     C_R   0.649316 0.423166 0.403657 0.497335
C28   C     C_R   0.347519 0.581864 0.588400 0.541979
C29   C     C_R   0.584912 0.659092 0.426875 0.531780
C30   C     C_R   0.423537 0.351459 0.597275 0.551311
C31   C     C_R   0.355164 0.577677 0.398453 0.468297
C32   C     C_R   0.658037 0.413345 0.572944 0.511497
N1    N     N_R   0.940200 0.105310 0.059970 -0.133089
N2    N     N_R   0.059800 0.894690 0.940030 -0.129544
N3    N     N_R   0.105310 0.059800 0.059970 -0.128539
N4    N     N_R   0.894690 0.940200 0.940030 -0.138544
N5    N     N_R   0.059800 0.894690 0.059970 -0.123756
N6    N     N_R   0.940200 0.105310 0.940030 -0.123729
N7    N     N_R   0.894690 0.940200 0.059970 -0.143824
N8    N     N_R   0.105310 0.059800 0.940030 -0.143125
N9    N     N_R   0.940200 0.894690 0.940030 -0.122981
N10   N     N_R   0.059800 0.105310 0.059970 -0.123471
N11   N     N_R   0.105310 0.940200 0.940030 -0.143811
N12   N     N_R   0.894690 0.059800 0.059970 -0.145121
N13   N     N_R   0.059800 0.105310 0.940030 -0.131515
N14   N     N_R   0.940200 0.894690 0.059970 -0.127644
N15   N     N_R   0.894690 0.059800 0.940030 -0.132857
N16   N     N_R   0.105310 0.940200 0.059970 -0.136933
N17   N     N_R   0.440200 0.605310 0.559970 -0.127648
N18   N     N_R   0.559800 0.394690 0.440030 -0.117223
N19   N     N_R   0.605310 0.559800 0.559970 -0.136376
N20   N     N_R   0.394690 0.440200 0.440030 -0.143918
N21   N     N_R   0.559800 0.394690 0.559970 -0.118669
N22   N     N_R   0.440200 0.605310 0.440030 -0.119406
N23   N     N_R   0.394690 0.440200 0.559970 -0.144403
N24   N     N_R   0.605310 0.559800 0.440030 -0.149885
N25   N     N_R   0.440200 0.394690 0.440030 -0.118346
N26   N     N_R   0.559800 0.605310 0.559970 -0.119109
N27   N     N_R   0.605310 0.440200 0.440030 -0.139570
N28   N     N_R   0.394690 0.559800 0.559970 -0.142272
N29   N     N_R   0.559800 0.605310 0.440030 -0.125842
N30   N     N_R   0.440200 0.394690 0.559970 -0.132205
N31   N     N_R   0.394690 0.559800 0.440030 -0.135011
N32   N     N_R   0.605310 0.440200 0.559970 -0.143182
C33   C     C_R   0.126011 0.217669 0.322197 0.393463
C34   C     C_R   0.799516 0.828816 0.718697 0.364152
C35   C     C_R   0.195653 0.825236 0.285103 0.344276
C36   C     C_R   0.865943 0.212617 0.679167 0.394651
C37   C     C_R   0.820789 0.837386 0.311825 0.404140
C38   C     C_R   0.166509 0.198545 0.704612 0.382642
C39   C     C_R   0.822214 0.216302 0.283724 0.417266
C40   C     C_R   0.182605 0.834928 0.693323 0.421417
C41   C     C_R   0.633567 0.708069 0.817531 0.401789
C42   C     C_R   0.299936 0.318584 0.215407 0.372719
C43   C     C_R   0.702832 0.328295 0.787532 0.375976
C44   C     C_R   0.367179 0.712663 0.184637 0.381504
C45   C     C_R   0.318494 0.330381 0.812865 0.418057
C46   C     C_R   0.651262 0.720648 0.216354 0.411762
C47   C     C_R   0.345990 0.711070 0.789808 0.427851
C48   C     C_R   0.666183 0.331009 0.166916 0.391090
C49   C     C_R   0.786398 0.815436 0.776833 -0.010038
C50   C     C_R   0.150352 0.211541 0.266484 -0.017276
C51   C     C_R   0.844452 0.210604 0.736096 -0.024889
C52   C     C_R   0.209180 0.813068 0.226667 -0.008800
C53   C     C_R   0.181157 0.208963 0.762672 0.007508
C54   C     C_R   0.803022 0.827236 0.254338 -0.006784
C55   C     C_R   0.198698 0.823249 0.750842 -0.004092
C56   C     C_R   0.808194 0.220416 0.225109 -0.011228
C57   C     C_R   0.284880 0.311981 0.273871 -0.006965
C58   C     C_R   0.657238 0.708893 0.761699 -0.017799
C59   C     C_R   0.342746 0.711424 0.240323 0.011194
C60   C     C_R   0.713708 0.315658 0.729200 0.014448
C61   C     C_R   0.673644 0.724140 0.272758 -0.010089
C62   C     C_R   0.304016 0.321058 0.754455 -0.002164
C63   C     C_R   0.678617 0.325171 0.226203 0.000352
C64   C     C_R   0.324153 0.715502 0.733251 -0.012926
C65   C     C_R   0.736602 0.778351 0.791147 -0.046575
C66   C     C_R   0.200549 0.246807 0.249290 -0.072373
C67   C     C_R   0.797023 0.249511 0.753641 -0.071346
C68   C     C_R   0.260774 0.778441 0.212070 -0.044987
C69   C     C_R   0.231206 0.244771 0.779007 -0.056750
C70   C     C_R   0.756500 0.785874 0.241039 -0.063488
C71   C     C_R   0.242957 0.779586 0.764366 -0.068596
C72   C     C_R   0.755820 0.251005 0.206198 -0.057002
C73   C     C_R   0.232139 0.280534 0.290210 -0.062464
C74   C     C_R   0.706064 0.747341 0.747582 -0.075972
C75   C     C_R   0.292121 0.747517 0.255026 -0.075461
C76   C     C_R   0.765597 0.283033 0.712558 -0.058957
C77   C     C_R   0.726851 0.756529 0.285351 -0.068121
C78   C     C_R   0.261986 0.276237 0.737386 -0.071143
C79   C     C_R   0.721138 0.282097 0.245865 -0.046982
C80   C     C_R   0.271696 0.749040 0.720306 -0.055542
H1    H     H_    0.858165 0.870383 0.811888 0.149430
H2    H     H_    0.084488 0.145517 0.237452 0.181195
H3    H     H_    0.908678 0.143304 0.765496 0.185532
H4    H     H_    0.134991 0.864966 0.191638 0.141471
H5    H     H_    0.104588 0.161297 0.795978 0.183053
H6    H     H_    0.861689 0.894217 0.217674 0.166629
H7    H     H_    0.142016 0.892235 0.787096 0.169795
H8    H     H_    0.887353 0.172699 0.197153 0.185646
H9    H     H_    0.359737 0.364405 0.305215 0.154021
H10   H     H_    0.592390 0.644777 0.727572 0.189117
H11   H     H_    0.409271 0.648594 0.273554 0.191266
H12   H     H_    0.633658 0.360876 0.698463 0.156179
H13   H     H_    0.601455 0.672344 0.308747 0.187368
H14   H     H_    0.359302 0.393564 0.722929 0.177415
H15   H     H_    0.625712 0.401843 0.253204 0.179210
H16   H     H_    0.397444 0.665815 0.696823 0.189687
C81   C     C_R   0.660969 0.744332 0.860464 0.166757
C82   C     C_R   0.264549 0.288825 0.173329 0.198738
C83   C     C_R   0.740521 0.300872 0.829605 0.168415
C84   C     C_R   0.338333 0.749134 0.142578 0.152065
C85   C     C_R   0.299238 0.286759 0.853108 0.161288
C86   C     C_R   0.689302 0.736401 0.170753 0.146895
C87   C     C_R   0.308234 0.728433 0.835066 0.154569
C88   C     C_R   0.690818 0.288143 0.128253 0.185006
C89   C     C_R   0.154282 0.258196 0.361728 0.166148
C90   C     C_R   0.766536 0.799537 0.674728 0.203714
C91   C     C_R   0.229612 0.796191 0.328548 0.208213
C92   C     C_R   0.840342 0.254981 0.640458 0.186535
C93   C     C_R   0.799122 0.798538 0.355151 0.187047
C94   C     C_R   0.204727 0.222148 0.661979 0.206206
C95   C     C_R   0.777745 0.232509 0.323650 0.211724
C96   C     C_R   0.202985 0.795471 0.649831 0.166118
Ni1   Ni    Ni4+2 0.000000 0.104370 0.000000 0.249056
Ni2   Ni    Ni4+2 0.000000 0.895630 0.000000 0.281639
Ni3   Ni    Ni4+2 0.104370 0.000000 0.000000 0.217893
Ni4   Ni    Ni4+2 0.895630 0.000000 0.000000 0.227648
Ni5   Ni    Ni4+2 0.500000 0.604370 0.500000 0.257753
Ni6   Ni    Ni4+2 0.500000 0.395630 0.500000 0.254379
Ni7   Ni    Ni4+2 0.604370 0.500000 0.500000 0.194732
Ni8   Ni    Ni4+2 0.395630 0.500000 0.500000 0.196053
C97   C     C_R   0.856198 0.144778 0.092761 -0.247020
C98   C     C_R   0.141297 0.860719 0.894643 -0.237347
C99   C     C_R   0.119549 0.126742 0.131712 -0.248576
C100  C     C_R   0.849859 0.851813 0.920372 -0.235119
C101  C     C_R   0.148391 0.851180 0.081949 -0.234052
C102  C     C_R   0.875636 0.129979 0.872692 -0.251722
C103  C     C_R   0.859882 0.863117 0.109401 -0.247724
C104  C     C_R   0.141506 0.142002 0.900967 -0.256304
C105  C     C_R   0.356190 0.644126 0.594624 -0.223459
C106  C     C_R   0.621599 0.381419 0.366885 -0.238501
C107  C     C_R   0.628232 0.634649 0.621727 -0.240114
C108  C     C_R   0.351181 0.352433 0.415344 -0.211341
C109  C     C_R   0.647789 0.354941 0.588219 -0.251868
C110  C     C_R   0.372347 0.634396 0.378246 -0.250440
C111  C     C_R   0.364508 0.365660 0.614568 -0.259259
C112  C     C_R   0.643782 0.647663 0.409537 -0.199166
C113  C     C_R   0.821334 0.839353 0.821060 -0.276181
C114  C     C_R   0.124477 0.171708 0.226798 -0.230394
C115  C     C_R   0.869969 0.171441 0.776372 -0.258506
C116  C     C_R   0.173541 0.836152 0.182360 -0.266808
C117  C     C_R   0.147804 0.182521 0.805576 -0.310294
C118  C     C_R   0.831290 0.856543 0.209340 -0.317155
C119  C     C_R   0.171385 0.853773 0.795625 -0.323681
C120  C     C_R   0.844234 0.192571 0.184823 -0.339119
C121  C     C_R   0.321546 0.336290 0.316499 -0.248071
C122  C     C_R   0.631672 0.672902 0.718951 -0.236579
C123  C     C_R   0.369110 0.675458 0.282467 -0.238073
C124  C     C_R   0.674665 0.336615 0.686917 -0.264069
C125  C     C_R   0.644609 0.694521 0.316687 -0.311969
C126  C     C_R   0.331898 0.354293 0.712046 -0.309519
C127  C     C_R   0.650475 0.361791 0.266769 -0.305849
C128  C     C_R   0.353860 0.687126 0.689157 -0.336451
C129  C     C_R   0.810707 0.822905 0.877973 -0.066202
C130  C     C_R   0.150812 0.163914 0.173116 -0.040999
C131  C     C_R   0.844708 0.166968 0.830904 -0.036424
C132  C     C_R   0.186274 0.821874 0.125100 -0.058025
C133  C     C_R   0.173746 0.176435 0.859847 -0.038795
C134  C     C_R   0.824319 0.834158 0.153328 -0.047117
C135  C     C_R   0.177103 0.831163 0.851548 -0.046584
C136  C     C_R   0.821206 0.182406 0.129982 -0.018132
C137  C     C_R   0.311006 0.322963 0.374160 -0.056731
C138  C     C_R   0.658011 0.670585 0.665011 -0.052939
C139  C     C_R   0.342327 0.671028 0.336094 -0.048495
C140  C     C_R   0.688005 0.326979 0.629167 -0.062854
C141  C     C_R   0.673874 0.686990 0.369542 -0.063842
C142  C     C_R   0.328952 0.333702 0.655374 -0.027770
C143  C     C_R   0.652239 0.344640 0.324578 -0.005948
C144  C     C_R   0.324925 0.680071 0.636310 -0.015635
C145  C     C_R   0.759656 0.787834 0.892920 0.546958
C146  C     C_R   0.200361 0.199070 0.155465 0.541847
C147  C     C_R   0.796618 0.204385 0.848160 0.582004
C148  C     C_R   0.239034 0.789429 0.110404 0.547983
C149  C     C_R   0.230461 0.200479 0.873243 0.584142
C150  C     C_R   0.785651 0.784944 0.141432 0.632055
C151  C     C_R   0.213717 0.780516 0.863748 0.631647
C152  C     C_R   0.764194 0.203932 0.113294 0.611928
C153  C     C_R   0.256314 0.295134 0.390778 0.605078
C154  C     C_R   0.706719 0.708257 0.650465 0.565171
C155  C     C_R   0.292814 0.707016 0.351693 0.562362
C156  C     C_R   0.743958 0.302573 0.611947 0.599935
C157  C     C_R   0.731223 0.712289 0.380246 0.594930
C158  C     C_R   0.296716 0.281296 0.640048 0.597660
C159  C     C_R   0.684993 0.293273 0.342530 0.596164
C160  C     C_R   0.268401 0.706577 0.624523 0.592657
C161  C     C_R   0.718399 0.770909 0.849114 -0.235706
C162  C     C_R   0.221392 0.245516 0.191792 -0.229497
C163  C     C_R   0.778135 0.251881 0.811611 -0.235276
C164  C     C_R   0.280064 0.773300 0.154323 -0.221991
C165  C     C_R   0.253729 0.244724 0.836284 -0.270620
C166  C     C_R   0.742653 0.769913 0.183314 -0.278258
C167  C     C_R   0.256118 0.763562 0.822106 -0.278951
C168  C     C_R   0.736800 0.248312 0.148146 -0.281624
C169  C     C_R   0.213209 0.279869 0.348147 -0.209963
C170  C     C_R   0.726145 0.752355 0.690097 -0.240769
C171  C     C_R   0.271443 0.750568 0.312511 -0.238525
C172  C     C_R   0.784331 0.281925 0.654583 -0.215112
C173  C     C_R   0.752353 0.756599 0.341410 -0.274816
C174  C     C_R   0.253328 0.260421 0.678801 -0.273473
C175  C     C_R   0.727792 0.268372 0.304989 -0.311626
C176  C     C_R   0.247156 0.750666 0.663790 -0.273386
O1    O     O_3   0.931878 0.211623 0.046436 -0.639594
C177  C     C_3   0.915902 0.266174 0.075299 0.136750
H17   H     H_    0.954244 0.298130 0.071575 0.127911
H18   H     H_    0.909539 0.260694 0.122186 0.115634
C178  C     C_3   0.862925 0.298154 0.045222 -0.232123
H19   H     H_    0.877964 0.315552 0.002892 0.202683
H20   H     H_    0.825691 0.265628 0.036967 0.266873
C179  C     C_3   0.840397 0.352265 0.080609 -0.960483
H21   H     H_    0.824993 0.337004 0.123595 0.253527
H22   H     H_    0.801991 0.374643 0.057931 0.301084
H23   H     H_    0.877221 0.386246 0.086368 0.252640
O2    O     O_3   0.048743 0.793933 0.901689 -0.622092
C180  C     C_3   0.055791 0.766546 0.846756 0.202851
H24   H     H_    0.032468 0.722091 0.847486 0.127991
H25   H     H_    0.102192 0.752787 0.837518 0.110574
C181  C     C_3   0.028612 0.804077 0.797443 -0.396784
H26   H     H_    0.980968 0.815261 0.806910 0.178517
H27   H     H_    0.052135 0.848139 0.793207 0.202878
C182  C     C_3   0.033106 0.768673 0.740803 -0.924411
H28   H     H_    0.080479 0.753805 0.733218 0.265271
H29   H     H_    0.019054 0.797651 0.704109 0.281335
H30   H     H_    0.003347 0.727889 0.742020 0.245250
O3    O     O_3   0.186899 0.038694 0.128372 -0.637004
C183  C     C_3   0.176005 0.019075 0.185816 0.293741
H31   H     H_    0.168494 0.969123 0.184997 0.156275
H32   H     H_    0.134936 0.038877 0.206457 0.023885
C184  C     C_3   0.231323 0.032903 0.223877 -0.391473
H33   H     H_    0.273615 0.023896 0.199729 0.215165
H34   H     H_    0.230581 0.081774 0.236601 0.185528
C185  C     C_3   0.232502 0.993853 0.278024 -0.872152
H35   H     H_    0.187672 0.994471 0.299051 0.280204
H36   H     H_    0.267030 0.011700 0.308646 0.257036
H37   H     H_    0.244609 0.946207 0.266702 0.286770
O4    O     O_3   0.789213 0.945131 0.919660 -0.634518
C186  C     C_3   0.738739 0.926577 0.951794 0.273206
H38   H     H_    0.729977 0.962595 0.984193 0.151236
H39   H     H_    0.744789 0.882543 0.974733 0.151055
C187  C     C_3   0.683545 0.924429 0.911686 -0.369431
H40   H     H_    0.677768 0.969452 0.890619 0.215342
H41   H     H_    0.690588 0.890135 0.877327 0.220299
C188  C     C_3   0.625670 0.909727 0.944021 -0.856358
H42   H     H_    0.631477 0.867939 0.970379 0.319390
H43   H     H_    0.588018 0.902960 0.912787 0.289673
H44   H     H_    0.613463 0.948218 0.972457 0.228713
O5    O     O_3   0.062148 0.785936 0.056523 -0.589466
C189  C     C_3   0.077443 0.737729 0.094466 0.303383
H45   H     H_    0.062996 0.747584 0.138785 0.081277
H46   H     H_    0.126147 0.730126 0.097355 0.048150
C190  C     C_3   0.049165 0.678202 0.072951 -0.260513
H47   H     H_    0.000552 0.685069 0.062991 0.228556
H48   H     H_    0.071485 0.664216 0.032500 0.181019
C191  C     C_3   0.056164 0.627090 0.117180 -1.068117
H49   H     H_    0.104189 0.621917 0.130567 0.280827
H50   H     H_    0.040406 0.583387 0.098128 0.282851
H51   H     H_    0.028904 0.636886 0.156040 0.268073
O6    O     O_3   0.962151 0.198045 0.889379 -0.653491
C192  C     C_3   0.932618 0.251984 0.907590 0.251225
H52   H     H_    0.955998 0.268517 0.946976 0.151988
H53   H     H_    0.884301 0.246088 0.919583 0.131366
C193  C     C_3   0.936985 0.300228 0.860095 -0.342902
H54   H     H_    0.982909 0.299581 0.840914 0.208747
H55   H     H_    0.904142 0.289515 0.825248 0.220080
C194  C     C_3   0.924212 0.364251 0.882905 -0.964663
H56   H     H_    0.878063 0.366914 0.901160 0.312845
H57   H     H_    0.927474 0.397619 0.847164 0.275221
H58   H     H_    0.957804 0.376786 0.916691 0.247907
O7    O     O_3   0.788453 0.941996 0.071797 -0.663374
C195  C     C_3   0.744536 0.942424 0.116108 0.198534
H59   H     H_    0.727224 0.989458 0.121422 0.169167
H60   H     H_    0.761207 0.929201 0.159010 0.103054
C196  C     C_3   0.689795 0.905270 0.097805 -0.317788
H61   H     H_    0.667288 0.927947 0.060854 0.201555
H62   H     H_    0.705464 0.860193 0.083555 0.266415
C197  C     C_3   0.644028 0.899311 0.146332 -0.974771
H63   H     H_    0.662693 0.870947 0.181756 0.263274
H64   H     H_    0.602229 0.877844 0.129171 0.285001
H65   H     H_    0.631946 0.944850 0.163774 0.253658
O8    O     O_3   0.183929 0.042877 0.873419 -0.685254
C198  C     C_3   0.157435 0.035575 0.817497 0.139793
H66   H     H_    0.178115 0.994542 0.798017 0.109974
H67   H     H_    0.171968 0.072677 0.788734 0.150765
C199  C     C_3   0.087891 0.026501 0.814996 -0.357082
H68   H     H_    0.074446 0.987976 0.842855 0.188230
H69   H     H_    0.064140 0.068161 0.829720 0.189682
C200  C     C_3   0.065735 0.013171 0.753954 -1.014740
H70   H     H_    0.081139 0.049096 0.723925 0.304187
H71   H     H_    0.015487 0.012096 0.753170 0.256866
H72   H     H_    0.082692 0.968260 0.739237 0.290288
O9    O     O_3   0.936444 0.785800 0.943476 -0.590440
C201  C     C_3   0.920715 0.738133 0.904939 0.296645
H73   H     H_    0.936252 0.747870 0.860957 0.082639
H74   H     H_    0.871873 0.731413 0.900986 0.051116
C202  C     C_3   0.947325 0.677952 0.926603 -0.263693
H75   H     H_    0.995957 0.683662 0.937037 0.229107
H76   H     H_    0.924223 0.664605 0.966895 0.180219
C203  C     C_3   0.939771 0.627162 0.881971 -1.064268
H77   H     H_    0.891821 0.623289 0.867905 0.280791
H78   H     H_    0.954196 0.582989 0.900926 0.283677
H79   H     H_    0.967859 0.636462 0.843569 0.268317
O10   O     O_3   0.037326 0.198288 0.110338 -0.660444
C204  C     C_3   0.068520 0.249693 0.088784 0.242239
H80   H     H_    0.046382 0.263348 0.047856 0.158761
H81   H     H_    0.117070 0.241694 0.078515 0.137253
C205  C     C_3   0.064300 0.301721 0.132688 -0.339461
H82   H     H_    0.018550 0.302142 0.152153 0.212779
H83   H     H_    0.097791 0.294032 0.167771 0.217660
C206  C     C_3   0.075556 0.363995 0.105523 -0.981255
H84   H     H_    0.121495 0.366241 0.086887 0.310148
H85   H     H_    0.071672 0.400002 0.138968 0.273124
H86   H     H_    0.041566 0.373240 0.071173 0.249717
O11   O     O_3   0.211890 0.938745 0.933066 -0.669133
C207  C     C_3   0.256437 0.940483 0.889474 0.203239
H87   H     H_    0.274607 0.987526 0.887162 0.158839
H88   H     H_    0.239914 0.929460 0.845822 0.108183
C208  C     C_3   0.309852 0.900605 0.906243 -0.316110
H89   H     H_    0.333409 0.921537 0.943473 0.201749
H90   H     H_    0.292777 0.855678 0.919421 0.268772
C209  C     C_3   0.354850 0.894049 0.857117 -0.980977
H91   H     H_    0.334128 0.868886 0.820478 0.264771
H92   H     H_    0.395100 0.868654 0.872752 0.287569
H93   H     H_    0.369867 0.939611 0.842079 0.254505
O12   O     O_3   0.814327 0.048254 0.125542 -0.679241
C210  C     C_3   0.841747 0.043104 0.181330 0.141209
H94   H     H_    0.822083 0.002228 0.201988 0.112958
H95   H     H_    0.827081 0.081238 0.209092 0.143362
C211  C     C_3   0.911522 0.035577 0.183574 -0.373734
H96   H     H_    0.925897 0.997738 0.155070 0.193072
H97   H     H_    0.934003 0.078190 0.169770 0.192510
C212  C     C_3   0.934200 0.021953 0.244242 -1.002360
H98   H     H_    0.917796 0.057127 0.274893 0.299250
H99   H     H_    0.984493 0.021975 0.244965 0.257256
H100  H     H_    0.918537 0.976241 0.257743 0.273857
O13   O     O_3   0.067805 0.212183 0.947802 -0.641557
C213  C     C_3   0.086775 0.265505 0.918843 0.136908
H101  H     H_    0.049355 0.298907 0.921038 0.129315
H102  H     H_    0.094504 0.259242 0.872250 0.118666
C214  C     C_3   0.139877 0.295665 0.950329 -0.242141
H103  H     H_    0.125268 0.309875 0.993842 0.204364
H104  H     H_    0.177497 0.262916 0.955968 0.268054
C215  C     C_3   0.161442 0.352359 0.918390 -0.952392
H105  H     H_    0.177247 0.340225 0.874606 0.253825
H106  H     H_    0.199266 0.373846 0.942640 0.299457
H107  H     H_    0.124073 0.386102 0.914637 0.251326
O14   O     O_3   0.951882 0.795060 0.100592 -0.624634
C216  C     C_3   0.943876 0.767107 0.155007 0.197078
H108  H     H_    0.966427 0.722235 0.153702 0.128416
H109  H     H_    0.897297 0.753954 0.163699 0.113739
C217  C     C_3   0.971628 0.803131 0.205055 -0.386966
H110  H     H_    0.019614 0.812359 0.195853 0.176646
H111  H     H_    0.950061 0.848202 0.209746 0.203101
C218  C     C_3   0.965253 0.767008 0.261053 -0.929751
H112  H     H_    0.917472 0.752995 0.267494 0.264727
H113  H     H_    0.978932 0.794961 0.298606 0.281966
H114  H     H_    0.994229 0.725595 0.259688 0.243293
O15   O     O_3   0.803158 0.046713 0.881913 -0.622047
C219  C     C_3   0.804356 0.027198 0.823377 0.294202
H115  H     H_    0.810470 0.977001 0.822447 0.161714
H116  H     H_    0.842513 0.045450 0.797414 0.015271
C220  C     C_3   0.744530 0.043884 0.793444 -0.358265
H117  H     H_    0.706938 0.043668 0.824858 0.208366
H118  H     H_    0.748008 0.090629 0.775365 0.178520
C221  C     C_3   0.728803 0.999308 0.745081 -0.923908
H119  H     H_    0.766006 0.997157 0.713457 0.285120
H120  H     H_    0.686901 0.014623 0.722705 0.263425
H121  H     H_    0.721018 0.952962 0.762861 0.272294
O16   O     O_3   0.209718 0.942182 0.087661 -0.630130
C222  C     C_3   0.260287 0.930707 0.052849 0.249626
H122  H     H_    0.263509 0.968259 0.021077 0.153740
H123  H     H_    0.258421 0.886207 0.029855 0.155108
C223  C     C_3   0.316896 0.933507 0.091124 -0.330717
H124  H     H_    0.316936 0.977101 0.115580 0.213576
H125  H     H_    0.316180 0.895468 0.122576 0.224273
C224  C     C_3   0.374981 0.930245 0.056282 -0.886406
H126  H     H_    0.376370 0.887412 0.030797 0.314681
H127  H     H_    0.414650 0.931192 0.085882 0.286328
H128  H     H_    0.377975 0.970037 0.026992 0.235871
O17   O     O_3   0.430386 0.711860 0.547951 -0.638495
C225  C     C_3   0.417945 0.765575 0.579776 0.150505
H129  H     H_    0.456850 0.796468 0.574983 0.129554
H130  H     H_    0.414262 0.758387 0.626723 0.115075
C226  C     C_3   0.364634 0.801104 0.554167 -0.249558
H131  H     H_    0.376955 0.818882 0.511238 0.198533
H132  H     H_    0.325209 0.770971 0.547866 0.273172
C227  C     C_3   0.348317 0.855503 0.592228 -0.962796
H133  H     H_    0.333872 0.839888 0.635409 0.255021
H134  H     H_    0.310951 0.881904 0.572037 0.299709
H135  H     H_    0.387981 0.886206 0.597315 0.251278
O18   O     O_3   0.516130 0.350641 0.355924 -0.703814
C228  C     C_3   0.503843 0.392453 0.310466 0.124525
H136  H     H_    0.457889 0.382112 0.294542 0.121049
H137  H     H_    0.533191 0.383091 0.273402 0.138420
C229  C     C_3   0.503942 0.460903 0.326976 -0.366540
H138  H     H_    0.471988 0.469627 0.362394 0.205672
H139  H     H_    0.549289 0.476040 0.341198 0.183976
C230  C     C_3   0.485261 0.500349 0.276076 -1.024151
H140  H     H_    0.517560 0.494379 0.240047 0.280818
H141  H     H_    0.484824 0.549127 0.289100 0.273757
H142  H     H_    0.439154 0.487277 0.261612 0.265381
O19   O     O_3   0.693884 0.545460 0.621710 -0.650077
C231  C     C_3   0.684227 0.526419 0.679543 0.309153
H143  H     H_    0.671012 0.477608 0.679433 0.155888
H144  H     H_    0.646963 0.550406 0.702373 0.021555
C232  C     C_3   0.742844 0.534433 0.714464 -0.397127
H145  H     H_    0.782694 0.524776 0.686952 0.222513
H146  H     H_    0.745918 0.582377 0.729855 0.181369
C233  C     C_3   0.745573 0.491798 0.766162 -0.835312
H147  H     H_    0.703132 0.494554 0.791142 0.279259
H148  H     H_    0.784164 0.504631 0.794548 0.256920
H149  H     H_    0.752412 0.444190 0.751280 0.286110
O20   O     O_3   0.290601 0.442112 0.409433 -0.648957
C234  C     C_3   0.247118 0.448252 0.452857 0.294886
H150  H     H_    0.262083 0.484251 0.483478 0.143819
H151  H     H_    0.239081 0.404203 0.475386 0.168202
C235  C     C_3   0.187999 0.469692 0.424362 -0.292310
H152  H     H_    0.195665 0.514386 0.403281 0.212587
H153  H     H_    0.174041 0.436572 0.390551 0.230438
C236  C     C_3   0.136580 0.477329 0.467114 -0.968884
H154  H     H_    0.121726 0.432568 0.483741 0.316612
H155  H     H_    0.097201 0.498982 0.445319 0.277107
H156  H     H_    0.151187 0.506673 0.503382 0.258806
O21   O     O_3   0.564244 0.284456 0.566206 -0.614602
C237  C     C_3   0.585525 0.239837 0.606031 0.257203
H157  H     H_    0.576320 0.253949 0.650970 0.092653
H158  H     H_    0.634452 0.231576 0.602940 0.069168
C238  C     C_3   0.556434 0.177995 0.593704 -0.294241
H159  H     H_    0.507184 0.182933 0.590687 0.234310
H160  H     H_    0.571558 0.160320 0.551712 0.203829
C239  C     C_3   0.572238 0.131475 0.640311 -1.060395
H161  H     H_    0.622083 0.125302 0.643429 0.276419
H162  H     H_    0.551292 0.086867 0.629433 0.286169
H163  H     H_    0.554775 0.146788 0.682672 0.266398
O22   O     O_3   0.458519 0.702480 0.396242 -0.662285
C240  C     C_3   0.427087 0.754906 0.415684 0.239002
H164  H     H_    0.448747 0.769780 0.456339 0.157148
H165  H     H_    0.378468 0.747794 0.425921 0.141391
C241  C     C_3   0.432493 0.805679 0.370835 -0.354639
H166  H     H_    0.478541 0.804887 0.352303 0.213826
H167  H     H_    0.399436 0.797751 0.335399 0.225006
C242  C     C_3   0.422239 0.868877 0.396708 -0.972491
H168  H     H_    0.376824 0.872239 0.416255 0.312671
H169  H     H_    0.425716 0.903849 0.362381 0.270834
H170  H     H_    0.457045 0.878735 0.430174 0.248550
O23   O     O_3   0.288738 0.438978 0.574542 -0.673690
C243  C     C_3   0.245697 0.437741 0.619440 0.183544
H171  H     H_    0.224489 0.483258 0.622269 0.165943
H172  H     H_    0.264513 0.429363 0.662610 0.104041
C244  C     C_3   0.195065 0.393320 0.604792 -0.271321
H173  H     H_    0.168275 0.411243 0.568208 0.213915
H174  H     H_    0.215346 0.349982 0.590983 0.266007
C245  C     C_3   0.152943 0.383117 0.655709 -0.980500
H175  H     H_    0.178653 0.366268 0.693669 0.262476
H176  H     H_    0.118094 0.348752 0.643930 0.289882
H177  H     H_    0.129920 0.426382 0.667435 0.261281
O24   O     O_3   0.701982 0.551551 0.394445 -0.689198
C246  C     C_3   0.710546 0.558980 0.334007 0.137313
H178  H     H_    0.749641 0.530669 0.320957 0.099191
H179  H     H_    0.726515 0.604678 0.322141 0.109549
C247  C     C_3   0.655933 0.539061 0.297350 -0.342903
H180  H     H_    0.647187 0.490200 0.304868 0.183949
H181  H     H_    0.614716 0.565048 0.309047 0.201636
C248  C     C_3   0.668224 0.548434 0.233567 -0.924717
H182  H     H_    0.676768 0.597219 0.224368 0.283156
H183  H     H_    0.628276 0.533452 0.208137 0.273845
H184  H     H_    0.708481 0.521618 0.220443 0.238348
O25   O     O_3   0.438679 0.284478 0.426549 -0.647452
C249  C     C_3   0.440665 0.254609 0.371923 0.290724
H185  H     H_    0.488247 0.241746 0.363487 0.155328
H186  H     H_    0.426844 0.283531 0.334934 0.082334
C250  C     C_3   0.403302 0.196061 0.370542 -0.382105
H187  H     H_    0.414968 0.167139 0.408234 0.222682
H188  H     H_    0.354902 0.207869 0.371382 0.200251
C251  C     C_3   0.413380 0.160282 0.314929 -1.007017
H189  H     H_    0.399318 0.188071 0.277143 0.257995
H190  H     H_    0.385692 0.118035 0.315517 0.280395
H191  H     H_    0.461686 0.147405 0.310303 0.263980
O26   O     O_3   0.540527 0.701563 0.605573 -0.659693
C252  C     C_3   0.571350 0.755372 0.589255 0.245482
H192  H     H_    0.549131 0.772641 0.549730 0.150272
H193  H     H_    0.619948 0.749266 0.578262 0.133197
C253  C     C_3   0.565781 0.803177 0.637077 -0.357735
H194  H     H_    0.519672 0.801367 0.655393 0.214747
H195  H     H_    0.598574 0.792967 0.672135 0.225209
C254  C     C_3   0.576498 0.867785 0.615035 -0.977925
H196  H     H_    0.622127 0.871958 0.596055 0.312160
H197  H     H_    0.572926 0.900593 0.651320 0.271240
H198  H     H_    0.541986 0.879908 0.581971 0.250830
O27   O     O_3   0.707253 0.412535 0.424802 -0.672011
C255  C     C_3   0.753165 0.428458 0.385601 0.152553
H199  H     H_    0.771192 0.473158 0.399020 0.178339
H200  H     H_    0.737912 0.429713 0.339871 0.092666
C256  C     C_3   0.806557 0.384579 0.390878 -0.232340
H201  H     H_    0.815203 0.373062 0.436667 0.254921
H202  H     H_    0.795575 0.342323 0.367828 0.209473
C257  C     C_3   0.863962 0.411146 0.364535 -1.057415
H203  H     H_    0.857886 0.416950 0.317352 0.264371
H204  H     H_    0.902533 0.379828 0.372637 0.297379
H205  H     H_    0.875203 0.455943 0.384223 0.274094
O28   O     O_3   0.315384 0.545973 0.626169 -0.678053
C258  C     C_3   0.343297 0.540150 0.681685 0.150396
H206  H     H_    0.323536 0.499350 0.701938 0.108672
H207  H     H_    0.328955 0.577828 0.710092 0.137870
C259  C     C_3   0.413007 0.531349 0.683564 -0.386165
H208  H     H_    0.426421 0.492237 0.656263 0.192466
H209  H     H_    0.436322 0.572687 0.667906 0.194082
C260  C     C_3   0.436325 0.519714 0.744584 -0.967008
H210  H     H_    0.420791 0.556262 0.774208 0.304449
H211  H     H_    0.486619 0.519264 0.744679 0.259136
H212  H     H_    0.420603 0.474760 0.760315 0.269422
O29   O     O_3   0.567318 0.711348 0.456902 -0.637117
C261  C     C_3   0.579286 0.766833 0.427780 0.158198
H213  H     H_    0.540716 0.797708 0.435184 0.123953
H214  H     H_    0.581239 0.762061 0.380414 0.117676
C262  C     C_3   0.633686 0.800883 0.453531 -0.261562
H215  H     H_    0.622032 0.819029 0.496549 0.198515
H216  H     H_    0.672648 0.769961 0.459726 0.268332
C263  C     C_3   0.651035 0.855088 0.415868 -0.949221
H217  H     H_    0.663129 0.839655 0.371931 0.255345
H218  H     H_    0.690300 0.879346 0.435176 0.302504
H219  H     H_    0.612564 0.887616 0.412645 0.250310
O30   O     O_3   0.458593 0.300126 0.608522 -0.628484
C264  C     C_3   0.452806 0.276240 0.664969 0.227140
H220  H     H_    0.477763 0.232791 0.667350 0.119284
H221  H     H_    0.407153 0.261186 0.674859 0.095652
C265  C     C_3   0.478444 0.317351 0.712496 -0.404527
H222  H     H_    0.527275 0.325981 0.705439 0.182444
H223  H     H_    0.455580 0.362251 0.712423 0.202980
C266  C     C_3   0.469845 0.286203 0.770811 -0.882508
H224  H     H_    0.424404 0.264950 0.774069 0.259681
H225  H     H_    0.473224 0.319874 0.805866 0.301744
H226  H     H_    0.504706 0.250238 0.777128 0.236785
O31   O     O_3   0.306498 0.545315 0.377579 -0.649729
C267  C     C_3   0.318787 0.525101 0.320616 0.277249
H227  H     H_    0.349850 0.485170 0.322089 0.116450
H228  H     H_    0.340578 0.560288 0.293680 0.074328
C268  C     C_3   0.259727 0.506150 0.290623 -0.296779
H229  H     H_    0.243509 0.462379 0.308838 0.232545
H230  H     H_    0.224467 0.541491 0.297766 0.187752
C269  C     C_3   0.268268 0.498114 0.225923 -0.978713
H231  H     H_    0.277850 0.542871 0.205545 0.261038
H232  H     H_    0.226282 0.479150 0.206383 0.279464
H233  H     H_    0.306309 0.466391 0.217286 0.310194
O32   O     O_3   0.710681 0.443295 0.587530 -0.643138
C270  C     C_3   0.747866 0.451458 0.539482 0.306119
H234  H     H_    0.726376 0.484181 0.508962 0.134267
H235  H     H_    0.757146 0.407067 0.518378 0.178881
C271  C     C_3   0.808270 0.477863 0.560455 -0.273647
H236  H     H_    0.800546 0.523288 0.580026 0.206689
H237  H     H_    0.827908 0.447680 0.594160 0.242953
C272  C     C_3   0.853737 0.484662 0.511887 -0.995659
H238  H     H_    0.867933 0.439162 0.496094 0.309969
H239  H     H_    0.894648 0.508677 0.528105 0.278683
H240  H     H_    0.833847 0.511570 0.476045 0.258421
N33   N     N_R   0.626084 0.761091 0.910169 0.250712
O33   O     O_R   0.572219 0.783761 0.902462 -0.418903
O34   O     O_R   0.639486 0.739409 0.960644 -0.330746
N34   N     N_R   0.269099 0.305317 0.113276 0.282945
O35   O     O_R   0.220437 0.308569 0.081630 -0.380989
O36   O     O_R   0.319729 0.324082 0.091348 -0.359706
N35   N     N_R   0.748430 0.329568 0.885471 0.251856
O37   O     O_R   0.733764 0.386601 0.892517 -0.391714
O38   O     O_R   0.782007 0.304682 0.925077 -0.374690
N36   N     N_R   0.371302 0.767901 0.092581 0.251439
O39   O     O_R   0.419411 0.801290 0.099493 -0.428225
O40   O     O_R   0.363668 0.739789 0.043810 -0.337938
N37   N     N_R   0.325625 0.286541 0.909885 0.256142
O41   O     O_R   0.384146 0.289432 0.916036 -0.390089
O42   O     O_R   0.291677 0.292129 0.955106 -0.331831
N38   N     N_R   0.671263 0.720409 0.113039 0.247662
O43   O     O_R   0.644980 0.668366 0.102903 -0.402616
O44   O     O_R   0.674310 0.759987 0.071765 -0.357409
N39   N     N_R   0.325785 0.713449 0.893017 0.243998
O45   O     O_R   0.348382 0.659962 0.904565 -0.396375
O46   O     O_R   0.328006 0.755542 0.932265 -0.359202
N40   N     N_R   0.672160 0.288832 0.068897 0.246705
O47   O     O_R   0.614950 0.290367 0.055396 -0.414095
O48   O     O_R   0.712050 0.295133 0.028504 -0.363753
N41   N     N_R   0.121813 0.282094 0.411060 0.268349
O49   O     O_R   0.141175 0.330952 0.436931 -0.370067
O50   O     O_R   0.066644 0.265185 0.421942 -0.396778
N42   N     N_R   0.771086 0.819831 0.615727 0.283002
O51   O     O_R   0.723101 0.821371 0.583029 -0.373760
O52   O     O_R   0.821134 0.842305 0.595710 -0.366860
N43   N     N_R   0.226389 0.817045 0.387463 0.283156
O53   O     O_R   0.275610 0.822301 0.418059 -0.372909
O54   O     O_R   0.175827 0.835875 0.409561 -0.375879
N44   N     N_R   0.872324 0.273368 0.589569 0.281488
O55   O     O_R   0.878497 0.331121 0.578218 -0.363643
O56   O     O_R   0.896876 0.233651 0.555355 -0.404995
N45   N     N_R   0.823238 0.804270 0.412586 0.258354
O57   O     O_R   0.881308 0.809980 0.420714 -0.391235
O58   O     O_R   0.787196 0.810728 0.456204 -0.330549
N46   N     N_R   0.192064 0.209483 0.602367 0.234866
O59   O     O_R   0.186707 0.153475 0.584721 -0.466199
O60   O     O_R   0.174890 0.253168 0.568244 -0.397805
N47   N     N_R   0.785551 0.213628 0.382076 0.251307
O61   O     O_R   0.775040 0.156811 0.394085 -0.438677
O62   O     O_R   0.822470 0.243772 0.415353 -0.419018
N48   N     N_R   0.179958 0.803504 0.592277 0.252010
O63   O     O_R   0.121903 0.808211 0.583429 -0.403647
O64   O     O_R   0.216591 0.812331 0.549555 -0.339203
O65   O     O_3   0.748544 0.772784 0.949705 -0.624564
C273  C     C_3   0.772932 0.714833 0.965234 0.344803
H241  H     H_    0.750024 0.701164 0.005385 0.220401
H242  H     H_    0.821133 0.719902 0.977082 0.095078
C274  C     C_3   0.762201 0.661731 0.922185 -0.495361
H243  H     H_    0.713153 0.656945 0.914412 0.240812
H244  H     H_    0.785144 0.670422 0.880648 0.196296
C275  C     C_3   0.784252 0.600404 0.945157 -0.969420
H245  H     H_    0.833996 0.600450 0.950953 0.274848
H246  H     H_    0.772761 0.563965 0.913681 0.294944
H247  H     H_    0.762058 0.589645 0.986686 0.273700
O66   O     O_3   0.226743 0.189054 0.102152 -0.625979
C276  C     C_3   0.271138 0.142429 0.106360 0.242300
H248  H     H_    0.266338 0.112587 0.067981 0.148781
H249  H     H_    0.266259 0.113169 0.144781 0.099364
C277  C     C_3   0.334964 0.168868 0.108114 -0.308849
H250  H     H_    0.341927 0.199614 0.070819 0.265533
H251  H     H_    0.340307 0.195015 0.148520 0.169224
C278  C     C_3   0.382815 0.118515 0.108215 -1.039893
H252  H     H_    0.378912 0.090420 0.147776 0.270642
H253  H     H_    0.428640 0.139250 0.107304 0.284157
H254  H     H_    0.377385 0.088435 0.070113 0.275410
O67   O     O_3   0.767260 0.192692 0.899591 -0.605878
C279  C     C_3   0.709881 0.165765 0.888468 0.188850
H255  H     H_    0.710412 0.118905 0.906489 0.149629
H256  H     H_    0.697755 0.161725 0.841827 0.043425
C280  C     C_3   0.660135 0.202157 0.918510 -0.187916
H257  H     H_    0.669154 0.203808 0.965437 0.274277
H258  H     H_    0.660077 0.249489 0.902640 0.192732
C281  C     C_3   0.597603 0.174884 0.907130 -1.071039
H259  H     H_    0.586392 0.177356 0.860497 0.264327
H260  H     H_    0.563041 0.201127 0.931312 0.308014
H261  H     H_    0.596001 0.126529 0.921171 0.273210
O68   O     O_3   0.251256 0.774293 0.053774 -0.626903
C282  C     C_3   0.228049 0.715802 0.038115 0.339261
H262  H     H_    0.253296 0.701110 0.999535 0.225126
H263  H     H_    0.180636 0.720721 0.023601 0.104059
C283  C     C_3   0.235615 0.663565 0.082732 -0.499263
H264  H     H_    0.283463 0.659762 0.095234 0.229000
H265  H     H_    0.208829 0.672484 0.122095 0.196070
C284  C     C_3   0.217570 0.601287 0.058774 -0.950946
H266  H     H_    0.167947 0.598557 0.052484 0.270394
H267  H     H_    0.230852 0.565265 0.089986 0.281753
H268  H     H_    0.240873 0.592102 0.017418 0.277325
O69   O     O_3   0.262076 0.179410 0.920857 -0.623935
C285  C     C_3   0.308530 0.140245 0.901006 0.225503
H269  H     H_    0.341501 0.165782 0.874143 0.105985
H270  H     H_    0.289336 0.102075 0.874946 0.096552
C286  C     C_3   0.342527 0.113270 0.952287 -0.238960
H271  H     H_    0.360070 0.151001 0.979578 0.242504
H272  H     H_    0.311037 0.084907 0.977961 0.185572
C287  C     C_3   0.395665 0.073868 0.932911 -1.045410
H273  H     H_    0.379198 0.034652 0.906922 0.265629
H274  H     H_    0.420326 0.056132 0.971154 0.278154
H275  H     H_    0.427705 0.101229 0.906886 0.284737
O70   O     O_3   0.797541 0.746969 0.094832 -0.648393
C288  C     C_3   0.809440 0.686269 0.114423 0.152441
H276  H     H_    0.768811 0.657430 0.107447 0.144165
H277  H     H_    0.821066 0.683507 0.161251 0.083073
C289  C     C_3   0.861458 0.657907 0.080586 -0.343376
H278  H     H_    0.844221 0.641639 0.038870 0.194683
H279  H     H_    0.896641 0.692439 0.071943 0.240102
C290  C     C_3   0.889419 0.603530 0.111958 -1.008299
H280  H     H_    0.910323 0.618397 0.153259 0.263998
H281  H     H_    0.924994 0.582705 0.084693 0.279354
H282  H     H_    0.854285 0.568586 0.120696 0.271539
O71   O     O_3   0.200643 0.743561 0.910602 -0.653726
C291  C     C_3   0.186974 0.683010 0.891545 0.146511
H283  H     H_    0.226590 0.652923 0.899188 0.150075
H284  H     H_    0.175625 0.679829 0.844686 0.086901
C292  C     C_3   0.133912 0.657125 0.925375 -0.340874
H285  H     H_    0.150572 0.640791 0.967260 0.195186
H286  H     H_    0.100039 0.693210 0.933482 0.245231
C293  C     C_3   0.103905 0.603483 0.894524 -1.010413
H287  H     H_    0.084358 0.618305 0.852665 0.266039
H288  H     H_    0.067054 0.585085 0.921672 0.278771
H289  H     H_    0.137337 0.566592 0.886975 0.278321
O72   O     O_3   0.734288 0.176622 0.067359 -0.634571
C294  C     C_3   0.685501 0.141985 0.089593 0.216213
H290  H     H_    0.645745 0.172268 0.096190 0.135092
H291  H     H_    0.697052 0.119663 0.131545 0.080458
C295  C     C_3   0.667767 0.091234 0.047744 -0.269266
H292  H     H_    0.659433 0.110083 0.004401 0.211111
H293  H     H_    0.705296 0.057723 0.044433 0.212196
C296  C     C_3   0.610302 0.059386 0.067975 -1.033273
H294  H     H_    0.617431 0.039420 0.111348 0.266800
H295  H     H_    0.597877 0.022493 0.037648 0.272806
H296  H     H_    0.572068 0.092300 0.069686 0.281617
O73   O     O_3   0.245554 0.280213 0.447624 -0.611552
C297  C     C_3   0.273620 0.223950 0.461323 0.251322
H297  H     H_    0.263907 0.215098 0.506781 0.243120
H298  H     H_    0.323389 0.227852 0.457871 0.090897
C298  C     C_3   0.247736 0.168461 0.428438 -0.448828
H299  H     H_    0.198582 0.166308 0.436383 0.237924
H300  H     H_    0.255422 0.172362 0.381477 0.189658
C299  C     C_3   0.275791 0.108464 0.448503 -0.940211
H301  H     H_    0.325062 0.107879 0.439648 0.260145
H302  H     H_    0.254738 0.069994 0.424573 0.282583
H303  H     H_    0.267968 0.101600 0.495225 0.289198
O74   O     O_3   0.735655 0.701038 0.598161 -0.615272
C300  C     C_3   0.782253 0.656873 0.603922 0.234878
H304  H     H_    0.781286 0.628434 0.564554 0.141018
H305  H     H_    0.775907 0.625108 0.640552 0.086601
C301  C     C_3   0.844527 0.687030 0.610154 -0.297817
H306  H     H_    0.852776 0.717491 0.572929 0.256084
H307  H     H_    0.846088 0.714699 0.650064 0.174798
C302  C     C_3   0.895051 0.639647 0.614491 -1.043844
H308  H     H_    0.888409 0.610405 0.652942 0.270121
H309  H     H_    0.939389 0.663125 0.618689 0.287130
H310  H     H_    0.896011 0.610391 0.575595 0.275771
O75   O     O_3   0.267514 0.701029 0.405876 -0.624461
C303  C     C_3   0.221560 0.655934 0.404872 0.224081
H311  H     H_    0.229327 0.625449 0.442397 0.153512
H312  H     H_    0.221583 0.626485 0.365640 0.077443
C304  C     C_3   0.159211 0.685693 0.410616 -0.249844
H313  H     H_    0.159425 0.717647 0.447774 0.272333
H314  H     H_    0.148596 0.711787 0.370923 0.172164
C305  C     C_3   0.109773 0.638155 0.419309 -1.063527
H315  H     H_    0.108545 0.605769 0.382492 0.273607
H316  H     H_    0.065130 0.661218 0.422329 0.292086
H317  H     H_    0.118050 0.612547 0.459750 0.276758
O76   O     O_3   0.760127 0.299874 0.554329 -0.643681
C306  C     C_3   0.728668 0.252798 0.525167 0.242211
H318  H     H_    0.737648 0.258666 0.479070 0.239422
H319  H     H_    0.679493 0.258515 0.528212 0.084228
C307  C     C_3   0.750682 0.188750 0.542712 -0.347894
H320  H     H_    0.797539 0.182824 0.526883 0.276227
H321  H     H_    0.749986 0.183793 0.590161 0.158067
C308  C     C_3   0.712199 0.137210 0.518096 -0.928801
H322  H     H_    0.669024 0.134106 0.541579 0.252436
H323  H     H_    0.736491 0.093205 0.523587 0.270223
H324  H     H_    0.702698 0.143963 0.471836 0.306690
O77   O     O_3   0.765445 0.692958 0.427125 -0.614934
C309  C     C_3   0.816520 0.660000 0.406879 0.202648
H325  H     H_    0.839409 0.682798 0.370146 0.084233
H326  H     H_    0.802574 0.613757 0.392867 0.103104
C310  C     C_3   0.862963 0.652779 0.455182 -0.206507
H327  H     H_    0.874205 0.698139 0.473604 0.254585
H328  H     H_    0.843224 0.623868 0.489112 0.186443
C311  C     C_3   0.920971 0.622609 0.433825 -1.037554
H329  H     H_    0.910890 0.577036 0.415127 0.267529
H330  H     H_    0.953068 0.616736 0.470401 0.282630
H331  H     H_    0.942800 0.651524 0.400691 0.281133
O78   O     O_3   0.312621 0.249114 0.590916 -0.661643
C312  C     C_3   0.332262 0.189067 0.605709 0.155039
H332  H     H_    0.294397 0.156484 0.602114 0.160341
H333  H     H_    0.349985 0.185099 0.650561 0.070442
C313  C     C_3   0.381090 0.167651 0.564153 -0.291606
H334  H     H_    0.361553 0.160875 0.520934 0.196270
H335  H     H_    0.416207 0.203201 0.560242 0.249563
C314  C     C_3   0.408738 0.107063 0.583330 -1.047292
H336  H     H_    0.429590 0.111604 0.626764 0.274375
H337  H     H_    0.444199 0.092886 0.552387 0.279075
H338  H     H_    0.373347 0.071122 0.584537 0.278986
O79   O     O_3   0.671328 0.266220 0.394435 -0.670675
C315  C     C_3   0.631800 0.216513 0.383268 0.134674
H339  H     H_    0.659112 0.174626 0.376219 0.161466
H340  H     H_    0.602193 0.223367 0.344517 0.081153
C316  C     C_3   0.589877 0.207064 0.434438 -0.251999
H341  H     H_    0.616491 0.206161 0.474541 0.211570
H342  H     H_    0.557958 0.245940 0.437811 0.239895
C317  C     C_3   0.554947 0.147203 0.429252 -1.038568
H343  H     H_    0.533806 0.142779 0.386075 0.270027
H344  H     H_    0.518700 0.145674 0.462079 0.279523
H345  H     H_    0.586027 0.107996 0.436199 0.275065
O80   O     O_3   0.238817 0.692458 0.573247 -0.638747
C318  C     C_3   0.180430 0.668023 0.583930 0.267122
H346  H     H_    0.152592 0.675147 0.544605 0.159135
H347  H     H_    0.155850 0.690967 0.619519 0.095461
C319  C     C_3   0.183361 0.599859 0.596619 -0.396906
H348  H     H_    0.207275 0.576214 0.561070 0.226492
H349  H     H_    0.208777 0.592629 0.637435 0.224869
C320  C     C_3   0.119821 0.573424 0.603366 -1.015886
H350  H     H_    0.096731 0.594921 0.640589 0.276015
H351  H     H_    0.122645 0.523590 0.610987 0.276080
H352  H     H_    0.092397 0.581363 0.563835 0.276931
O81   O     O_3   0.071483 0.188830 0.334109 -0.654150
C321  C     C_3   0.078504 0.143838 0.377400 0.278398
H353  H     H_    0.032365 0.130318 0.391200 0.140713
H354  H     H_    0.101293 0.161565 0.416551 0.124587
C322  C     C_3   0.111224 0.086605 0.355813 -0.451193
H355  H     H_    0.085333 0.066127 0.319449 0.211199
H356  H     H_    0.157233 0.098663 0.340559 0.215703
C323  C     C_3   0.117252 0.040063 0.404369 -0.946781
H357  H     H_    0.143644 0.059628 0.440768 0.275936
H358  H     H_    0.141019 0.998684 0.388880 0.297845
H359  H     H_    0.071823 0.026845 0.420170 0.264126
O82   O     O_3   0.839362 0.875199 0.705075 -0.636815
C324  C     C_3   0.898850 0.851532 0.701871 0.265202
H360  H     H_    0.903841 0.820648 0.664176 0.145335
H361  H     H_    0.910008 0.823557 0.740164 0.029744
C325  C     C_3   0.943928 0.904831 0.698581 -0.360304
H362  H     H_    0.922097 0.947614 0.713543 0.214241
H363  H     H_    0.982724 0.896852 0.728032 0.182393
C326  C     C_3   0.968498 0.913832 0.637888 -0.809249
H364  H     H_    0.998390 0.875099 0.626027 0.275783
H365  H     H_    0.995247 0.956628 0.636226 0.236654
H366  H     H_    0.930951 0.916732 0.606072 0.289127
O83   O     O_3   0.156230 0.871822 0.299678 -0.632982
C327  C     C_3   0.097381 0.847941 0.306192 0.282668
H367  H     H_    0.096076 0.810605 0.338585 0.124357
H368  H     H_    0.081936 0.827561 0.265356 0.032454
C328  C     C_3   0.053689 0.899707 0.322681 -0.357340
H369  H     H_    0.073293 0.944693 0.311094 0.216254
H370  H     H_    0.010697 0.895366 0.297984 0.184644
C329  C     C_3   0.038983 0.899051 0.386814 -0.754974
H371  H     H_    0.016029 0.855769 0.398434 0.270302
H372  H     H_    0.008396 0.937517 0.397233 0.224367
H373  H     H_    0.080832 0.904101 0.412987 0.297036
O84   O     O_3   0.911516 0.173262 0.661845 -0.664193
C330  C     C_3   0.886528 0.126930 0.626037 0.278548
H374  H     H_    0.918295 0.117992 0.590276 0.151404
H375  H     H_    0.843072 0.139631 0.605226 0.084657
C331  C     C_3   0.877035 0.067769 0.659176 -0.460048
H376  H     H_    0.921226 0.051003 0.675895 0.210707
H377  H     H_    0.846409 0.076255 0.695964 0.216054
C332  C     C_3   0.848318 0.019675 0.619956 -0.884136
H378  H     H_    0.802865 0.035021 0.605158 0.261048
H379  H     H_    0.842813 0.976319 0.643663 0.317508
H380  H     H_    0.877250 0.011314 0.581827 0.262678
O85   O     O_3   0.863424 0.881397 0.325319 -0.631970
C333  C     C_3   0.833091 0.934115 0.345395 0.230148
H381  H     H_    0.792264 0.923424 0.371676 0.096621
H382  H     H_    0.818567 0.962054 0.307820 0.081723
C334  C     C_3   0.876369 0.971093 0.383349 -0.330902
H383  H     H_    0.887550 0.944557 0.422747 0.244596
H384  H     H_    0.918980 0.979874 0.359866 0.210998
C335  C     C_3   0.848649 0.032071 0.400664 -0.854987
H385  H     H_    0.839025 0.059800 0.361687 0.292363
H386  H     H_    0.880946 0.057505 0.428564 0.268764
H387  H     H_    0.806042 0.024813 0.424838 0.269886
O86   O     O_3   0.123515 0.154753 0.691093 -0.672917
C336  C     C_3   0.073885 0.180286 0.660899 0.283051
H388  H     H_    0.083792 0.225046 0.640245 0.118299
H389  H     H_    0.036797 0.188954 0.691975 0.108704
C337  C     C_3   0.052025 0.133668 0.615867 -0.300615
H390  H     H_    0.087696 0.099274 0.607333 0.248538
H391  H     H_    0.013030 0.108051 0.633262 0.172783
C338  C     C_3   0.035028 0.163551 0.558683 -0.773742
H392  H     H_    0.003639 0.202098 0.566016 0.305397
H393  H     H_    0.013039 0.129576 0.529883 0.222683
H394  H     H_    0.076089 0.181081 0.536999 0.304476
O87   O     O_3   0.876389 0.190433 0.301808 -0.658730
C339  C     C_3   0.916954 0.237447 0.318683 0.302518
H395  H     H_    0.946903 0.218911 0.353056 0.187070
H396  H     H_    0.893837 0.277846 0.337671 0.112870
C340  C     C_3   0.956540 0.258081 0.268306 -0.392855
H397  H     H_    0.985229 0.219408 0.253791 0.247439
H398  H     H_    0.927659 0.272877 0.231658 0.191595
C341  C     C_3   0.996628 0.311878 0.285683 -0.893298
H399  H     H_    0.968716 0.353635 0.290826 0.253182
H400  H     H_    0.030963 0.320489 0.252158 0.254570
H401  H     H_    0.020615 0.302529 0.326695 0.314588
O88   O     O_3   0.144629 0.883043 0.679562 -0.640872
C342  C     C_3   0.179835 0.931399 0.657135 0.208735
H402  H     H_    0.223678 0.916287 0.637951 0.095254
H403  H     H_    0.190687 0.963926 0.692474 0.083736
C343  C     C_3   0.143586 0.964566 0.610462 -0.248335
H404  H     H_    0.124497 0.931009 0.579426 0.259826
H405  H     H_    0.105435 0.989634 0.630486 0.180202
C344  C     C_3   0.183483 0.009180 0.577695 -0.938314
H406  H     H_    0.205853 0.041131 0.608221 0.287725
H407  H     H_    0.155442 0.035498 0.546646 0.282377
H408  H     H_    0.218781 0.984097 0.553339 0.273249
O89   O     O_3   0.579986 0.676512 0.826907 -0.667792
C345  C     C_3   0.586170 0.631513 0.870221 0.241209
H409  H     H_    0.540317 0.612807 0.878447 0.148318
H410  H     H_    0.601407 0.650622 0.911782 0.161459
C346  C     C_3   0.627084 0.578377 0.852171 -0.449544
H411  H     H_    0.605572 0.553488 0.815735 0.207237
H412  H     H_    0.671754 0.595383 0.837631 0.214417
C347  C     C_3   0.637305 0.535229 0.902912 -0.941163
H413  H     H_    0.659000 0.559903 0.939268 0.281184
H414  H     H_    0.667387 0.497095 0.890074 0.309669
H415  H     H_    0.593516 0.516452 0.917887 0.270778
O90   O     O_3   0.346766 0.356828 0.199559 -0.643970
C348  C     C_3   0.399762 0.321764 0.191095 0.246424
H416  H     H_    0.390447 0.279373 0.166484 0.106569
H417  H     H_    0.420067 0.308333 0.233014 0.044303
C349  C     C_3   0.445145 0.359612 0.157092 -0.321897
H418  H     H_    0.421644 0.382332 0.120497 0.257145
H419  H     H_    0.464839 0.395572 0.185174 0.178384
C350  C     C_3   0.495754 0.319980 0.133124 -0.805849
H420  H     H_    0.524001 0.301347 0.168739 0.255813
H421  H     H_    0.524070 0.348203 0.104420 0.311268
H422  H     H_    0.476987 0.281751 0.107132 0.260734
O91   O     O_3   0.663092 0.375203 0.800872 -0.646246
C351  C     C_3   0.614488 0.353543 0.834205 0.228451
H423  H     H_    0.629883 0.344847 0.878952 0.168091
H424  H     H_    0.594906 0.310805 0.815926 0.063904
C352  C     C_3   0.565247 0.402738 0.835493 -0.340555
H425  H     H_    0.586398 0.448367 0.835420 0.235936
H426  H     H_    0.537308 0.400199 0.795727 0.193925
C353  C     C_3   0.525343 0.397536 0.888791 -0.878749
H427  H     H_    0.507674 0.350497 0.893769 0.287334
H428  H     H_    0.486635 0.429676 0.885024 0.269659
H429  H     H_    0.551910 0.409330 0.928017 0.266094
O92   O     O_3   0.422016 0.682592 0.175592 -0.669780
C354  C     C_3   0.425094 0.651065 0.122394 0.294163
H430  H     H_    0.454215 0.677505 0.092716 0.148967
H431  H     H_    0.380636 0.643807 0.101149 0.101978
C355  C     C_3   0.454482 0.588612 0.131172 -0.325976
H432  H     H_    0.471817 0.571712 0.089242 0.178519
H433  H     H_    0.493503 0.592389 0.161476 0.241015
C356  C     C_3   0.408852 0.542604 0.153944 -0.909228
H434  H     H_    0.391424 0.557915 0.196252 0.271103
H435  H     H_    0.431063 0.497558 0.158751 0.257642
H436  H     H_    0.370283 0.537405 0.123390 0.268040
O93   O     O_3   0.358142 0.376716 0.828636 -0.651387
C357  C     C_3   0.328464 0.419877 0.864270 0.270243
H437  H     H_    0.363871 0.444544 0.889228 0.144239
H438  H     H_    0.298101 0.398734 0.896539 0.124523
C358  C     C_3   0.292907 0.466486 0.828394 -0.419717
H439  H     H_    0.324590 0.491509 0.800439 0.219963
H440  H     H_    0.258908 0.442844 0.800856 0.202121
C359  C     C_3   0.260546 0.512622 0.866620 -0.948779
H441  H     H_    0.226743 0.489247 0.894026 0.265533
H442  H     H_    0.236810 0.546629 0.839188 0.260139
H443  H     H_    0.293622 0.537040 0.894525 0.293327
O94   O     O_3   0.593457 0.698792 0.205767 -0.646058
C360  C     C_3   0.555848 0.748302 0.189344 0.333586
H444  H     H_    0.518805 0.730173 0.162387 0.193886
H445  H     H_    0.578979 0.782014 0.161412 0.091348
C361  C     C_3   0.529413 0.780177 0.242299 -0.422207
H446  H     H_    0.504097 0.746370 0.268352 0.238456
H447  H     H_    0.566783 0.799078 0.269117 0.193957
C362  C     C_3   0.487210 0.832432 0.225231 -0.890312
H448  H     H_    0.508995 0.862632 0.193144 0.268828
H449  H     H_    0.476143 0.860382 0.263567 0.252186
H450  H     H_    0.444400 0.814144 0.207163 0.296346
O95   O     O_3   0.403338 0.687995 0.800664 -0.652854
C363  C     C_3   0.442003 0.736648 0.817255 0.332251
H451  H     H_    0.480492 0.716997 0.841385 0.211209
H452  H     H_    0.420402 0.768903 0.847877 0.103463
C364  C     C_3   0.465536 0.771297 0.764567 -0.432806
H453  H     H_    0.489268 0.738928 0.735545 0.235834
H454  H     H_    0.426803 0.791652 0.740638 0.194431
C365  C     C_3   0.508580 0.822782 0.781823 -0.874447
H455  H     H_    0.489824 0.849974 0.817900 0.269011
H456  H     H_    0.515414 0.853962 0.744906 0.248461
H457  H     H_    0.553214 0.803940 0.794522 0.293829
O96   O     O_3   0.625180 0.374254 0.147755 -0.653217
C366  C     C_3   0.657030 0.422187 0.121104 0.216458
H458  H     H_    0.687140 0.405256 0.086293 0.137708
H459  H     H_    0.685191 0.446571 0.153537 0.083632
C367  C     C_3   0.611557 0.466540 0.094270 -0.290889
H460  H     H_    0.584698 0.442399 0.060624 0.221341
H461  H     H_    0.579820 0.483211 0.127731 0.197642
C368  C     C_3   0.643596 0.520777 0.066971 -0.931678
H462  H     H_    0.670253 0.546037 0.099935 0.286458
H463  H     H_    0.609548 0.552153 0.047768 0.290039
H464  H     H_    0.674531 0.504890 0.032554 0.266124

loop_
_geom_bond_atom_site_label_1
_geom_bond_atom_site_label_2
_geom_bond_distance
_ccdc_geom_bond_type
C220  C221  1.526385 S    
C293  H288  1.109818 S    
C98   C135  1.433601 S    
C4    N4    1.337098 A    
C5    N5    1.354495 A    
C352  H426  1.108880 S    
C154  C170  1.399627 A    
C238  H159  1.094901 S    
C201  H74   1.092272 S    
C258  H206  1.103204 S    
C101  C132  1.451739 S    
C230  H140  1.110989 S    
C27   O27   1.387305 S    
C301  H306  1.109700 S    
C336  C337  1.537132 S    
C358  H439  1.104875 S    
C243  H172  1.098703 S    
C336  H388  1.115590 S    
C291  H284  1.117562 S    
C84   N36   1.436199 S    
C292  H285  1.098434 S    
C196  H62   1.098021 S    
C123  C139  1.386448 A    
C298  H299  1.103651 S    
C251  H189  1.111721 S    
C260  H212  1.108674 S    
C368  H464  1.110645 S    
C305  H317  1.109310 S    
C18   N18   1.338212 A    
C317  H343  1.107749 S    
N17   N28   1.417123 A    
C295  H293  1.110027 S    
C361  C362  1.527333 S    
N18   N27   1.417123 A    
C148  O68   1.384579 S    
C191  H49   1.109185 S    
C280  H258  1.101788 S    
C104  C133  1.415105 S    
C313  H334  1.100092 S    
C348  H417  1.109519 S    
C27   C106  1.390592 A    
C261  H213  1.101757 S    
N21   N32   1.417123 A    
C333  H382  1.112524 S    
C277  C278  1.527447 S    
C360  H445  1.111481 S    
C293  H289  1.109126 S    
C7    C103  1.393834 A    
N22   N31   1.417123 A    
C25   C108  1.390021 A    
C269  H232  1.110632 S    
C306  H318  1.098272 S    
C183  C184  1.533641 S    
C26   C107  1.364510 A    
C188  H44   1.105107 S    
C154  O74   1.385606 S    
O2    C180  1.418933 S    
C130  C146  1.403256 A    
C211  C212  1.522565 S    
C222  H123  1.112124 S    
C319  H348  1.110714 S    
C264  H220  1.101301 S    
C90   C170  1.414589 A    
N3    N10   1.415531 A    
C216  C217  1.529597 S    
C29   O29   1.396451 S    
C60   C124  1.381650 A    
C283  C284  1.525892 S    
C6    C102  1.366313 A    
C61   C125  1.373560 A    
C211  H96   1.108117 S    
C134  C150  1.402791 A    
C323  H359  1.109831 S    
C244  H173  1.104838 S    
C9    C100  1.405872 A    
C1    O1    1.395429 S    
O22   C240  1.416942 S    
C236  H155  1.110074 S    
C281  H261  1.110325 S    
C51   C115  1.387387 A    
C153  O73   1.383316 S    
C299  H303  1.110825 S    
C241  H167  1.110279 S    
C49   C113  1.383645 A    
C194  H58   1.110855 S    
C13   C104  1.392342 A    
C145  O65   1.384063 S    
C124  C140  1.391334 A    
C267  C268  1.532285 S    
C214  C215  1.526946 S    
C33   C89   1.418952 A    
C2    N2    1.342236 A    
C269  H233  1.109286 S    
C324  H361  1.107641 S    
C145  C161  1.410942 A    
C364  H453  1.111449 S    
C226  H132  1.102449 S    
C180  H24   1.103098 S    
C102  C131  1.434989 S    
C282  C283  1.554046 S    
C283  H265  1.109563 S    
C50   C66   1.412698 A    
C177  H18   1.106039 S    
C363  C364  1.535678 S    
C332  H379  1.106580 S    
C265  H223  1.105816 S    
C284  H266  1.106507 S    
C29   N29   1.340248 A    
C368  H463  1.110460 S    
C212  H100  1.107113 S    
C92   C172  1.410867 A    
C112  C141  1.435593 S    
C328  H369  1.111789 S    
C52   C68   1.411572 A    
C327  C328  1.538568 S    
C59   C75   1.412655 A    
C350  H422  1.111082 S    
C15   O15   1.375221 S    
O90   C348  1.414411 S    
C347  H414  1.109039 S    
C40   O88   1.383473 S    
C300  C301  1.532727 S    
C252  H193  1.113017 S    
O96   C366  1.411518 S    
C205  H82   1.109953 S    
C76   C172  1.411908 A    
C69   C78   1.373124 A    
C100  C129  1.451668 S    
C333  C334  1.528507 S    
C71   C80   1.380137 A    
C190  C191  1.528636 S    
C177  C178  1.528994 S    
C62   C126  1.375740 A    
C200  H72   1.107411 S    
C345  H410  1.102532 S    
C330  H374  1.108199 S    
C362  H449  1.108706 S    
C309  H325  1.114288 S    
C240  H165  1.112738 S    
N39   O46   1.296924 A    
C212  H99   1.110923 S    
C318  H346  1.108956 S    
C315  C316  1.526435 S    
C278  H252  1.111154 S    
C358  C359  1.525345 S    
C253  H194  1.107273 S    
C303  H312  1.116052 S    
C249  H185  1.106585 S    
C318  C319  1.524874 S    
C340  H398  1.109126 S    
N33   O33   1.300306 A    
C247  C248  1.522637 S    
C299  H301  1.109055 S    
N24   Ni7   1.914921 S    
C92   N44   1.439785 S    
C46   C86   1.400603 A    
C357  C358  1.532257 S    
O65   C273  1.425406 S    
C121  C137  1.392791 A    
C23   C111  1.392105 A    
C349  H419  1.109749 S    
C231  H143  1.109489 S    
C136  C152  1.396974 A    
C351  H424  1.114605 S    
C245  H176  1.110303 S    
C66   C162  1.416134 A    
C274  H243  1.102235 S    
C264  C265  1.530187 S    
C187  H41   1.107261 S    
C36   C92   1.409196 A    
C345  C346  1.533208 S    
C321  H353  1.111196 S    
C343  H405  1.109977 S    
O15   C219  1.425357 S    
C245  H177  1.110127 S    
C301  C302  1.526734 S    
H16   C128  1.083412 S    
N39   O45   1.301546 A    
C284  H268  1.111086 S    
C47   O95   1.385220 S    
C195  H59   1.106354 S    
C70   C166  1.416893 A    
C39   C95   1.400718 A    
C204  C205  1.532047 S    
H5    C117  1.084072 S    
C40   C96   1.405086 A    
C305  H315  1.110905 S    
O18   C228  1.424112 S    
C281  H260  1.110507 S    
C235  H153  1.111115 S    
N30   Ni6   1.926563 S    
N8    Ni3   1.914921 S    
C354  H431  1.107589 S    
C36   C51   1.409023 A    
C10   O10   1.376794 S    
C359  H441  1.110829 S    
C191  H51   1.109157 S    
C279  H255  1.110019 S    
C184  H34   1.111079 S    
C80   C176  1.417566 A    
C89   N41   1.452834 S    
C342  H402  1.118444 S    
C23   N23   1.332938 A    
C42   C57   1.408329 A    
C24   N24   1.342809 A    
C367  C368  1.525609 S    
C87   C167  1.415278 A    
C342  H403  1.111629 S    
C12   O12   1.378530 S    
C215  H107  1.110861 S    
N35   O38   1.298432 A    
C152  O72   1.386678 S    
C227  H133  1.109577 S    
O75   C303  1.417792 S    
C343  C344  1.525259 S    
C193  H55   1.108422 S    
C260  H210  1.110902 S    
C292  C293  1.525899 S    
C83   N35   1.450935 S    
C47   C64   1.400108 A    
C12   N12   1.327898 A    
O13   C213  1.415035 S    
C44   C84   1.411754 A    
C13   N13   1.334300 A    
N2    Ni2   1.926481 S    
C331  C332  1.527962 S    
C63   C127  1.386870 A    
C33   C50   1.411094 A    
N14   Ni2   1.926563 S    
C147  O67   1.387776 S    
N36   O40   1.298986 A    
C263  H218  1.109584 S    
C335  H385  1.110694 S    
C278  H254  1.108867 S    
C111  C142  1.421300 S    
C325  H363  1.106901 S    
C316  H342  1.108517 S    
C272  H238  1.107945 S    
C349  H418  1.111421 S    
N31   Ni8   1.914683 S    
C234  H151  1.114163 S    
C93   N45   1.438732 S    
C221  H119  1.106954 S    
C34   C90   1.405316 A    
O83   C327  1.411108 S    
C140  C156  1.406563 A    
C250  H188  1.100013 S    
C244  H174  1.098312 S    
N38   O43   1.301126 A    
C255  H200  1.112737 S    
O9    C201  1.416918 S    
N44   O55   1.301231 A    
C180  C181  1.530581 S    
C8    O8    1.379927 S    
C282  H262  1.106131 S    
C344  H407  1.109683 S    
C7    N7    1.334581 A    
C259  H208  1.107002 S    
C70   C77   1.383821 A    
C201  C202  1.528379 S    
C8    N8    1.323675 A    
C84   C164  1.419327 A    
O17   C225  1.417022 S    
N45   O57   1.301400 A    
N10   Ni1   1.913439 S    
C42   O90   1.384441 S    
C115  C131  1.391469 A    
C314  H336  1.110730 S    
C217  H110  1.101755 S    
C232  H146  1.111642 S    
C271  H237  1.111606 S    
N23   N30   1.415531 A    
C151  C167  1.400592 A    
O69   C285  1.416330 S    
C315  H339  1.110677 S    
C79   C175  1.413304 A    
C350  H420  1.111003 S    
C254  H198  1.110905 S    
C125  C141  1.393794 A    
C275  H245  1.106108 S    
C240  C241  1.531293 S    
C341  H399  1.109843 S    
C37   O85   1.383143 S    
C194  H57   1.110306 S    
N37   O41   1.301187 A    
C215  H105  1.109536 S    
C67   C76   1.387487 A    
C230  H141  1.110888 S    
C300  H304  1.106137 S    
C159  O79   1.380142 S    
C143  C159  1.400420 A    
C90   N42   1.446029 S    
C29   C112  1.386391 A    
C91   C171  1.412192 A    
C258  H207  1.103922 S    
N34   O36   1.299639 A    
C41   C58   1.401974 A    
O28   C258  1.431615 S    
C314  H338  1.111072 S    
C14   O14   1.387774 S    
C290  H281  1.110037 S    
C323  H357  1.109757 S    
O77   C309  1.421405 S    
C256  C257  1.528106 S    
C94   C174  1.415788 A    
C271  C272  1.523276 S    
C208  H90   1.099781 S    
C222  H122  1.109307 S    
C223  C224  1.523254 S    
C253  C254  1.526210 S    
C45   C62   1.406689 A    
C361  H447  1.110921 S    
C310  H327  1.109676 S    
C4    O4    1.378204 S    
C202  H76   1.109084 S    
C357  H437  1.110863 S    
C89   C169  1.423759 A    
C233  H147  1.107466 S    
C60   C76   1.406406 A    
C231  C232  1.533377 S    
N9    Ni2   1.913442 S    
C33   O81   1.390660 S    
C219  H115  1.108766 S    
C306  H319  1.096049 S    
C259  C260  1.526791 S    
C75   C171  1.415871 A    
C276  C277  1.525195 S    
C156  O76   1.388938 S    
O91   C351  1.411235 S    
C351  C352  1.531260 S    
C237  H157  1.108474 S    
C160  O80   1.389433 S    
C298  C299  1.525674 S    
C35   C91   1.406291 A    
C312  H332  1.103189 S    
C67   C163  1.413509 A    
C235  C236  1.522802 S    
C195  C196  1.516696 S    
C87   N39   1.436987 S    
C323  H358  1.108336 S    
C2    C98   1.406874 A    
C178  H19   1.108594 S    
N25   Ni6   1.913442 S    
C285  H270  1.114507 S    
C286  H272  1.110902 S    
C103  C134  1.440788 S    
C209  H91   1.109975 S    
C25   N25   1.363931 A    
C205  C206  1.526352 S    
C181  H26   1.103826 S    
C179  H22   1.109871 S    
N46   O59   1.299077 A    
C56   C72   1.404790 A    
N4    Ni4   1.911468 S    
C28   C105  1.385722 A    
C255  H199  1.101921 S    
C266  H226  1.110696 S    
C23   O23   1.393317 S    
C28   N28   1.327814 A    
C95   N47   1.429019 S    
C308  H323  1.110491 S    
C365  H455  1.109967 S    
C263  H219  1.110946 S    
C227  H135  1.110976 S    
C31   N31   1.355702 A    
C82   N34   1.446040 S    
O10   C204  1.415605 S    
C32   N32   1.337247 A    
C15   C102  1.386513 A    
C363  H452  1.111745 S    
C224  H128  1.109606 S    
C17   N17   1.339508 A    
C331  H376  1.110541 S    
C182  H30   1.110831 S    
H9    C121  1.079356 S    
C326  H366  1.109014 S    
C107  C138  1.433177 S    
C358  H440  1.111369 S    
C295  C296  1.526704 S    
C335  H387  1.111009 S    
C39   C56   1.397522 A    
C291  H283  1.108741 S    
C328  H370  1.110264 S    
C327  H368  1.100254 S    
C272  H240  1.109279 S    
O29   C261  1.418874 S    
C322  H356  1.110918 S    
C276  H249  1.106026 S    
C138  C154  1.400633 A    
C336  H389  1.111644 S    
C44   O92   1.395421 S    
O19   C231  1.425150 S    
C88   C168  1.414472 A    
C3    N3    1.358273 A    
C213  H102  1.105289 S    
C304  H313  1.110801 S    
C288  C289  1.527699 S    
C17   O17   1.394004 S    
C237  C238  1.526803 S    
N42   O52   1.300067 A    
O73   C297  1.415614 S    
N6    N15   1.417123 A    
N43   O54   1.299010 A    
C135  C151  1.401114 A    
C349  C350  1.522936 S    
C239  H161  1.111035 S    
C48   C63   1.408665 A    
C211  H97   1.107430 S    
C330  H375  1.107350 S    
C213  C214  1.528574 S    
C225  H129  1.101114 S    
C17   C105  1.393897 A    
C217  C218  1.531562 S    
C238  C239  1.527158 S    
C229  H138  1.104072 S    
C210  H95   1.104637 S    
C315  H340  1.119356 S    
C288  H276  1.109200 S    
C228  C229  1.548229 S    
C297  H298  1.106237 S    
O24   C246  1.427682 S    
C198  H67   1.102965 S    
C355  H432  1.111918 S    
C304  C305  1.525043 S    
C257  H204  1.108896 S    
C268  C269  1.526081 S    
H3    C115  1.084750 S    
C273  H242  1.103572 S    
C254  H196  1.106826 S    
C54   C70   1.403764 A    
C275  H247  1.111004 S    
C338  H392  1.106193 S    
C40   C55   1.404327 A    
C74   C170  1.414612 A    
O82   C324  1.414583 S    
C294  H291  1.119122 S    
O92   C354  1.417032 S    
C342  C343  1.528102 S    
C220  H118  1.111114 S    
C307  H320  1.108190 S    
O30   C264  1.419529 S    
C320  H351  1.108675 S    
C261  C262  1.532876 S    
C279  C280  1.528960 S    
C187  H40   1.109307 S    
N1    N12   1.417123 A    
C149  C165  1.397224 A    
N2    N11   1.417123 A    
C43   O91   1.387332 S    
C203  H77   1.109587 S    
C52   C116  1.387519 A    
C301  H307  1.107481 S    
C10   C99   1.360418 A    
C256  H201  1.109005 S    
C305  H316  1.110259 S    
C16   O16   1.376838 S    
C185  H35   1.107222 S    
C9    N9    1.359691 A    
C152  C168  1.403937 A    
C297  C298  1.543623 S    
C55   C119  1.378228 A    
C346  H412  1.110187 S    
N34   O35   1.300072 A    
C317  H344  1.110094 S    
C262  C263  1.527660 S    
C56   C120  1.374593 A    
C14   C103  1.412981 A    
C310  C311  1.526799 S    
C31   O31   1.373887 S    
C146  C162  1.399153 A    
C273  C274  1.550845 S    
C191  H50   1.110049 S    
C218  H114  1.110774 S    
C348  H416  1.109026 S    
C208  C209  1.525067 S    
C261  H214  1.106344 S    
C274  H244  1.109909 S    
C360  H444  1.101170 S    
C285  H269  1.114288 S    
C2    O2    1.387512 S    
C150  C166  1.404225 A    
C219  C220  1.533306 S    
C179  H21   1.109541 S    
C144  C160  1.402072 A    
C215  H106  1.109473 S    
C293  H287  1.110312 S    
C338  H394  1.109846 S    
C319  H349  1.110212 S    
C312  C313  1.525558 S    
C216  H109  1.089144 S    
H14   C126  1.081612 S    
C44   C59   1.405496 A    
O95   C363  1.418377 S    
C326  H364  1.110564 S    
C206  H86   1.110713 S    
C86   N38   1.439089 S    
C241  H166  1.107327 S    
H6    C118  1.081416 S    
C355  C356  1.524624 S    
C236  H154  1.106138 S    
C250  C251  1.527816 S    
C57   C73   1.409003 A    
C246  H178  1.106616 S    
C189  H45   1.101005 S    
C278  H253  1.110415 S    
C95   C175  1.419959 A    
O20   C234  1.403873 S    
C32   C109  1.349019 A    
C38   C53   1.403372 A    
C36   O84   1.386393 S    
C72   C168  1.411017 A    
O3    C183  1.424964 S    
C61   C77   1.402695 A    
O26   C252  1.416235 S    
C214  H104  1.104812 S    
C307  C308  1.523028 S    
C298  H300  1.108750 S    
C38   O86   1.385344 S    
C58   C122  1.385102 A    
C226  H131  1.107228 S    
C71   C167  1.415438 A    
C35   O83   1.384519 S    
C10   N10   1.325444 A    
C319  C320  1.528205 S    
C356  H435  1.107680 S    
C356  H434  1.109397 S    
C28   O28   1.380219 S    
O79   C315  1.419591 S    
C198  H66   1.105995 S    
C85   N37   1.438470 S    
C43   C83   1.414094 A    
C185  H37   1.109575 S    
C332  H378  1.110999 S    
C244  C245  1.526907 S    
O85   C333  1.415225 S    
C182  H28   1.110788 S    
C14   N14   1.346410 A    
C368  H462  1.110409 S    
C287  H273  1.109942 S    
C122  C138  1.386052 A    
C228  H136  1.101701 S    
C247  H181  1.108609 S    
C148  C164  1.405509 A    
C291  C292  1.526133 S    
C204  H80   1.107771 S    
C265  H222  1.108625 S    
C350  H421  1.107568 S    
C128  C144  1.388768 A    
C223  H124  1.111012 S    
C320  H352  1.110613 S    
C311  H331  1.110992 S    
C252  H192  1.105442 S    
C302  H309  1.110529 S    
C7    O7    1.394473 S    
C324  C325  1.538386 S    
N26   Ni5   1.913439 S    
C93   C173  1.418144 A    
O67   C279  1.420692 S    
C20   C108  1.364732 A    
N16   Ni3   1.914682 S    
C131  C147  1.401685 A    
C192  C193  1.533334 S    
C21   C109  1.393807 A    
O94   C360  1.417351 S    
H4    C116  1.082310 S    
C314  H337  1.110540 S    
N28   Ni8   1.911639 S    
C326  H365  1.110199 S    
C129  C145  1.411226 A    
C200  H71   1.110231 S    
C213  H101  1.105043 S    
C53   C69   1.406295 A    
C81   C161  1.423031 A    
C353  H429  1.110838 S    
H7    C119  1.081059 S    
C77   C173  1.415449 A    
H8    C120  1.083882 S    
C229  C230  1.520693 S    
C73   C169  1.412281 A    
C340  H397  1.111242 S    
C289  H279  1.105158 S    
N47   O62   1.300120 A    
C189  C190  1.529182 S    
C253  H195  1.109219 S    
N7    Ni4   1.914920 S    
C366  C367  1.527858 S    
C197  H64   1.108251 S    
C316  H341  1.098452 S    
C318  H347  1.111540 S    
C329  H371  1.110909 S    
C146  O66   1.389445 S    
N5    Ni2   1.913458 S    
C334  H384  1.108341 S    
N7    N14   1.415531 A    
C250  H187  1.110714 S    
C105  C144  1.428690 S    
C287  H275  1.110962 S    
C11   O11   1.391201 S    
C199  C200  1.524956 S    
C231  H144  1.113289 S    
C201  H73   1.101438 S    
C270  C271  1.531234 S    
N19   Ni7   1.911465 S    
C294  H290  1.111580 S    
C51   C67   1.412056 A    
C248  H182  1.107668 S    
C352  C353  1.529305 S    
C353  H428  1.110411 S    
C264  H221  1.087565 S    
C187  C188  1.522297 S    
N4    N9    1.415531 A    
C248  H184  1.109612 S    
C296  H295  1.105369 S    
C321  H354  1.106687 S    
O21   C237  1.424763 S    
C203  H79   1.109475 S    
C256  H202  1.095823 S    
C243  H171  1.103919 S    
C284  H267  1.110879 S    
C359  H442  1.110434 S    
N41   O49   1.298749 A    
C196  C197  1.525278 S    
C41   C81   1.408326 A    
C204  H81   1.113848 S    
N8    N13   1.415531 A    
C9    O9    1.389263 S    
C197  H65   1.109788 S    
C295  H292  1.103339 S    
N33   O34   1.298294 A    
N32   Ni7   1.914682 S    
C149  O69   1.383887 S    
C362  H448  1.110360 S    
C249  C250  1.526930 S    
N23   Ni8   1.914920 S    
C280  C281  1.526949 S    
C270  H235  1.108492 S    
C58   C74   1.410332 A    
C22   N22   1.323966 A    
O84   C330  1.421454 S    
C348  C349  1.527178 S    
C194  H56   1.108198 S    
C333  H381  1.117797 S    
C363  H451  1.102811 S    
C360  C361  1.532574 S    
H1    C113  1.083584 S    
C209  H93   1.110531 S    
C269  H231  1.111352 S    
C19   C107  1.383395 A    
H13   C125  1.085053 S    
C106  C143  1.442015 S    
C62   C78   1.407260 A    
C179  H23   1.110864 S    
O31   C267  1.422701 S    
C267  H228  1.106773 S    
C233  H149  1.109423 S    
C227  H134  1.109438 S    
C353  H427  1.109544 S    
C48   O96   1.382496 S    
C242  H168  1.106324 S    
C292  H286  1.105084 S    
O93   C357  1.419064 S    
C233  H148  1.110390 S    
C206  H84   1.107149 S    
C241  C242  1.526587 S    
C186  H38   1.107754 S    
C236  H156  1.105810 S    
C354  C355  1.527960 S    
C329  H373  1.108539 S    
C335  H386  1.110565 S    
C158  O78   1.387909 S    
C30   O30   1.389467 S    
C366  H458  1.113537 S    
N19   N26   1.415531 A    
C283  H264  1.097320 S    
C1    C97   1.390434 A    
C26   N26   1.327471 A    
O68   C282  1.427137 S    
N35   O37   1.301593 A    
C221  H120  1.110383 S    
C118  C134  1.397546 A    
C65   C74   1.389583 A    
C279  H256  1.117793 S    
C4    C100  1.372114 A    
N38   O44   1.296413 A    
C226  C227  1.527703 S    
C5    C101  1.398212 A    
C30   N30   1.338937 A    
C346  H411  1.110671 S    
C356  H436  1.111034 S    
N13   Ni1   1.926563 S    
C190  H48   1.106904 S    
C177  H17   1.103676 S    
C158  C174  1.397389 A    
C109  C140  1.434964 S    
C181  C182  1.530343 S    
C208  H89   1.105667 S    
C332  H380  1.110680 S    
C141  C157  1.403929 A    
C289  H278  1.097954 S    
N44   O56   1.298664 A    
C217  H111  1.102031 S    
O89   C345  1.416209 S    
C322  C323  1.527370 S    
C69   C165  1.417468 A    
H10   C122  1.084978 S    
O8    C198  1.430111 S    
C263  H217  1.109100 S    
C91   N43   1.444529 S    
C359  H443  1.110813 S    
C16   C101  1.373725 A    
C96   C176  1.420054 A    
C299  H302  1.110112 S    
C347  H413  1.108676 S    
C254  H197  1.110341 S    
C221  H121  1.111456 S    
C275  H246  1.110521 S    
C224  H126  1.109748 S    
C30   C111  1.401513 A    
C252  C253  1.531487 S    
C341  H400  1.107409 S    
C96   N48   1.438377 S    
C339  C340  1.534813 S    
O14   C216  1.418064 S    
C147  C163  1.403281 A    
C205  H83   1.109951 S    
C47   C87   1.398526 A    
C239  H163  1.110786 S    
C63   C79   1.405778 A    
C48   C88   1.410209 A    
C132  C148  1.408348 A    
C19   O19   1.371826 S    
C242  H169  1.110287 S    
C345  H409  1.111027 S    
C199  H68   1.107025 S    
C362  H450  1.107246 S    
O71   C291  1.430527 S    
C153  C169  1.409321 A    
C260  H211  1.110955 S    
O6    C192  1.415348 S    
C34   C49   1.414599 A    
C18   C106  1.386230 A    
C303  H311  1.111664 S    
C186  C187  1.530156 S    
C339  H396  1.113770 S    
C246  C247  1.535287 S    
C337  C338  1.526679 S    
N40   O47   1.300387 A    
C357  H438  1.111509 S    
C341  H401  1.106416 S    
C120  C136  1.386428 A    
N20   N25   1.415531 A    
C1    N1    1.337720 A    
C32   O32   1.376148 S    
C156  C172  1.403528 A    
C322  H355  1.111340 S    
C351  H423  1.108346 S    
C219  H116  1.114820 S    
C367  H460  1.111779 S    
O87   C339  1.419441 S    
C352  H425  1.104527 S    
C364  H454  1.110703 S    
C324  H360  1.112050 S    
N24   N29   1.415531 A    
C192  H53   1.112623 S    
C237  H158  1.098426 S    
C37   C93   1.406394 A    
C133  C149  1.392757 A    
C249  H186  1.109739 S    
C54   C118  1.381175 A    
C343  H404  1.110708 S    
C321  C322  1.532637 S    
C243  C244  1.520240 S    
N47   O61   1.298424 A    
C199  H69   1.107556 S    
C222  C223  1.530656 S    
C21   N21   1.362353 A    
O11   C207  1.417445 S    
C50   C114  1.389431 A    
C235  H152  1.109830 S    
C189  H46   1.090107 S    
H15   C127  1.080275 S    
C286  H271  1.109944 S    
C6    O6    1.378183 S    
C354  H430  1.110591 S    
C126  C142  1.392260 A    
C274  C275  1.525470 S    
C15   N15   1.357768 A    
C12   C97   1.380925 A    
C290  H280  1.110560 S    
C184  C185  1.522904 S    
C16   N16   1.346337 A    
N46   O60   1.298942 A    
C240  H164  1.104778 S    
C22   O22   1.378361 S    
C220  H117  1.109262 S    
C266  H225  1.100448 S    
C248  H183  1.108346 S    
C296  H294  1.109470 S    
C325  H362  1.110517 S    
C64   C80   1.402773 A    
C308  H322  1.104144 S    
O32   C270  1.402234 S    
C66   C73   1.388205 A    
C26   O26   1.378358 S    
O81   C321  1.417523 S    
C159  C175  1.400317 A    
C209  H92   1.107943 S    
C65   C161  1.417813 A    
C83   C163  1.421203 A    
C193  H54   1.110823 S    
C24   C112  1.393813 A    
C224  H127  1.110369 S    
C119  C135  1.396234 A    
O80   C318  1.420664 S    
C277  H250  1.110287 S    
C18   O18   1.374164 S    
C331  H377  1.108945 S    
C182  H29   1.106556 S    
C78   C174  1.415714 A    
C46   C61   1.399427 A    
C178  H20   1.104714 S    
C88   N40   1.436644 S    
C339  H395  1.110744 S    
C82   C162  1.415361 A    
O25   C249  1.428003 S    
C316  C317  1.527228 S    
C238  H160  1.102897 S    
C272  H239  1.109754 S    
O88   C342  1.417492 S    
C337  H390  1.108597 S    
C234  C235  1.533748 S    
C45   O93   1.389040 S    
C262  H216  1.103758 S    
C157  O77   1.388092 S    
N48   O63   1.301387 A    
C34   O82   1.384078 S    
C210  H94   1.107798 S    
C21   O21   1.396161 S    
O66   C276  1.418734 S    
C288  H277  1.117870 S    
C365  H457  1.106910 S    
C59   C123  1.383220 A    
C344  H408  1.111072 S    
C53   C117  1.373051 A    
C85   C165  1.417036 A    
C207  C208  1.516827 S    
C11   N11   1.333267 A    
O72   C294  1.419701 S    
C188  H43   1.109922 S    
C22   C110  1.359913 A    
C57   C121  1.381661 A    
C195  H60   1.099465 S    
C197  H63   1.109291 S    
N36   O39   1.299959 A    
C225  H130  1.105851 S    
C320  H350  1.110940 S    
C265  C266  1.531260 S    
N20   Ni8   1.911468 S    
C232  C233  1.523967 S    
C229  H139  1.103859 S    
C344  H406  1.109975 S    
C310  H328  1.104648 S    
C35   C52   1.416931 A    
C228  H137  1.100230 S    
C196  H61   1.107398 S    
C155  C171  1.399686 A    
C45   C85   1.406767 A    
O86   C336  1.413039 S    
C355  H433  1.112271 S    
C304  H314  1.109585 S    
C257  H205  1.110334 S    
C114  C130  1.389960 A    
C340  C341  1.527711 S    
C365  H456  1.108890 S    
C151  O71   1.390140 S    
C64   C128  1.368608 A    
C294  C295  1.526012 S    
C280  H257  1.107493 S    
C3    C99   1.386763 A    
O74   C300  1.418131 S    
N41   O50   1.300741 A    
C287  H274  1.109699 S    
O76   C306  1.414152 S    
N22   Ni5   1.913461 S    
C223  H125  1.109895 S    
N37   O42   1.300437 A    
C302  H308  1.111035 S    
C230  H142  1.108123 S    
C307  H321  1.108105 S    
C38   C94   1.405565 A    
N45   O58   1.300387 A    
C68   C75   1.388091 A    
C181  H27   1.102205 S    
C20   O20   1.373482 S    
C202  H75   1.106811 S    
C258  C259  1.551970 S    
C5    O5    1.390285 S    
C110  C139  1.426985 S    
C225  C226  1.528840 S    
C203  H78   1.109979 S    
C242  H170  1.110825 S    
O23   C243  1.416450 S    
C246  H179  1.098721 S    
O7    C195  1.419320 S    
C108  C137  1.451887 S    
O78   C312  1.427407 S    
C185  H36   1.110504 S    
C11   C98   1.391144 A    
C309  C310  1.523593 S    
C86   C166  1.417813 A    
C190  H47   1.107092 S    
C245  H175  1.109275 S    
C303  C304  1.529826 S    
C127  C143  1.395594 A    
C270  H234  1.113150 S    
C183  H32   1.116113 S    
C361  H446  1.111486 S    
C334  C335  1.524313 S    
H11   C123  1.085179 S    
C202  C203  1.528720 S    
N40   O48   1.299279 A    
C218  H113  1.105887 S    
N6    Ni1   1.913461 S    
C139  C155  1.397304 A    
C39   O87   1.386579 S    
C364  C365  1.527852 S    
C3    O3    1.372502 S    
N18   Ni6   1.926481 S    
C137  C153  1.410534 A    
C266  H224  1.110184 S    
C31   C110  1.384218 A    
C306  C307  1.540088 S    
C81   N33   1.439542 S    
C183  H31   1.107880 S    
C302  H310  1.107567 S    
C337  H391  1.107823 S    
C262  H215  1.106927 S    
C338  H393  1.110414 S    
C8    C104  1.380578 A    
N3    Ni3   1.911465 S    
C207  H87   1.108595 S    
C46   O94   1.384600 S    
C312  H333  1.114136 S    
C68   C164  1.414678 A    
C216  H108  1.102621 S    
C311  H330  1.110526 S    
N1    Ni1   1.926481 S    
C43   C60   1.404996 A    
C317  H345  1.110760 S    
C346  C347  1.528105 S    
C150  O70   1.390856 S    
C157  C173  1.409010 A    
O70   C288  1.430604 S    
C206  H85   1.110349 S    
C207  H88   1.102008 S    
O12   C210  1.431467 S    
C24   O24   1.382270 S    
C42   C82   1.407421 A    
N21   Ni6   1.913458 S    
C286  C287  1.526479 S    
C55   C71   1.401959 A    
C178  C179  1.526999 S    
C184  H33   1.110310 S    
C290  H282  1.111018 S    
C239  H162  1.110330 S    
C186  H39   1.110976 S    
C267  H227  1.112073 S    
C192  H52   1.108224 S    
C214  H103  1.107383 S    
O1    C177  1.415606 S    
C296  H296  1.111081 S    
O27   C255  1.412183 S    
N15   Ni4   1.914683 S    
C308  H324  1.103813 S    
C13   O13   1.395717 S    
N5    N16   1.417123 A    
N43   O53   1.300027 A    
C257  H203  1.110942 S    
C309  H326  1.107631 S    
C193  C194  1.526132 S    
C99   C130  1.433809 S    
C313  H335  1.104510 S    
C311  H329  1.110917 S    
C268  H229  1.110153 S    
C72   C79   1.380983 A    
H2    C114  1.084327 S    
C251  H191  1.109313 S    
C268  H230  1.111046 S    
N27   Ni7   1.911642 S    
C188  H42   1.109608 S    
N29   Ni5   1.926563 S    
C212  H98   1.110847 S    
C367  H461  1.111416 S    
C282  H263  1.103279 S    
C325  C326  1.527520 S    
N17   Ni5   1.926481 S    
C20   N20   1.348935 A    
C328  C329  1.527227 S    
C327  H367  1.113388 S    
C180  H25   1.090692 S    
C334  H383  1.111571 S    
C113  C129  1.392653 A    
C234  H150  1.110701 S    
C300  H305  1.110260 S    
C27   N27   1.344521 A    
C94   N46   1.437682 S    
C276  H248  1.109576 S    
C49   C65   1.410454 A    
C116  C132  1.396507 A    
C255  C256  1.525518 S    
C117  C133  1.387972 A    
N42   O51   1.300270 A    
N12   Ni4   1.911639 S    
C277  H251  1.104785 S    
C271  H236  1.107577 S    
C259  H209  1.106152 S    
C25   O25   1.391902 S    
C200  H70   1.108353 S    
C330  C331  1.524818 S    
C41   O89   1.390244 S    
H12   C124  1.084928 S    
C289  C290  1.526106 S    
N11   Ni3   1.911642 S    
O4    C186  1.406835 S    
C155  O75   1.387252 S    
C313  C314  1.527166 S    
C232  H145  1.111317 S    
C19   N19   1.356419 A    
C210  C211  1.550408 S    
N48   O64   1.299720 A    
C251  H190  1.110620 S    
C285  C286  1.523872 S    
C297  H297  1.096784 S    
C247  H180  1.103082 S    
C198  C199  1.549882 S    
C366  H459  1.110592 S    
C347  H415  1.109985 S    
O16   C222  1.405737 S    
C160  C176  1.410143 A    
C329  H372  1.107454 S    
C273  H241  1.106197 S    
O5    C189  1.416488 S    
C6    N6    1.327808 A    
C281  H259  1.111091 S    
C37   C54   1.406872 A    
C218  H112  1.110745 S    
C97   C136  1.425101 S    
C142  C158  1.396685 A    
