data_mof_unit_17605.cif
_audit_creation_date              2012-12-10T17:23:14-0500
_audit_creation_method            fapswitch 2.2
_symmetry_space_group_name_H-M    P1
_symmetry_Int_Tables_number       1
_space_group_crystal_system       triclinic
_cell_length_a                    15.862036
_cell_length_b                    10.882184
_cell_length_c                    9.579418
_cell_angle_alpha                 90.66675
_cell_angle_beta                  89.951976
_cell_angle_gamma                 92.774979
_cell_volume                      1651.48690228

loop_
_atom_site_label
_atom_site_type_symbol
_atom_type_description
_atom_site_fract_x
_atom_site_fract_y
_atom_site_fract_z
_atom_type_partial_charge
C1    C     C_R   0.505009 0.262993 0.499600 0.806724
C2    C     C_R   0.574504 0.067460 0.864683 -0.153398
C3    C     C_R   0.532628 0.953897 0.882719 -0.155255
C4    C     C_R   0.339896 0.499723 0.499994 0.818030
C5    C     C_R   0.497028 0.890783 0.768016 -0.151746
C6    C     C_R   0.503337 0.940425 0.631730 0.068034
C7    C     C_R   0.529138 0.065493 0.621243 0.088587
C8    C     C_R   0.507922 0.129090 0.499650 -0.147375
C9    C     C_R   0.475042 0.064657 0.383579 -0.236901
C10   C     C_R   0.463868 0.937020 0.383118 0.091804
C11   C     C_R   0.483546 0.872141 0.506447 -0.145731
C12   C     C_3   0.083028 0.505032 0.499115 0.178249
C13   C     C_R   0.614123 0.661644 0.145978 -0.159050
C14   C     C_R   0.670813 0.738985 0.074460 -0.229058
C15   C     C_R   0.671096 0.738356 0.930655 -0.198569
C16   C     C_R   0.493100 0.737433 0.501432 0.774130
C17   C     C_R   0.614230 0.661076 0.857550 -0.141366
C18   C     C_R   0.556103 0.579331 0.926057 0.190835
C19   C     C_R   0.556068 0.579421 0.075742 0.202386
C20   C     C_R   0.446852 0.424141 0.073034 -0.079376
C21   C     C_R   0.446853 0.424209 0.925011 -0.059697
C22   C     C_R   0.660123 0.500627 0.499976 0.803855
C23   C     C_3   0.974247 0.585431 0.596278 -0.224754
C24   C     C_3   0.968424 0.391314 0.528942 -0.137052
C25   C     C_3   0.025598 0.424396 0.402231 -0.180420
C26   C     C_1   0.250225 0.501344 0.499914 -0.167829
C27   C     C_1   0.749909 0.501990 0.499815 -0.183808
C28   C     C_3   0.027053 0.472131 0.625777 -0.175399
C29   C     C_3   0.425888 0.876719 0.251630 -0.421328
C30   C     C_3   0.338868 0.813850 0.279783 -0.258806
C31   C     C_3   0.306289 0.741552 0.151783 -0.800021
C32   C     C_2   0.063889 0.744474 0.436289 0.316379
C33   C     C_3   0.917273 0.504471 0.499226 0.181242
C34   C     C_3   0.031124 0.616854 0.469740 0.063483
C35   C     C_3   0.972792 0.537590 0.372239 -0.228344
C36   C     C_1   0.174715 0.503026 0.499587 -0.007169
C37   C     C_1   0.825533 0.503239 0.499552 -0.066439
C38   C     C_R   0.572703 0.123612 0.735030 -0.150079
Cu1   Cu    Cu3+1 0.499990 0.499990 0.640660 0.923484
Cu2   Cu    Cu3+1 0.500010 0.500010 0.359340 0.925504
H1    H     H_    0.047708 0.358196 0.322782 0.136096
H2    H     H_    0.941199 0.298135 0.553396 0.128541
H3    H     H_    0.949518 0.564990 0.268397 0.134656
H4    H     H_    0.952151 0.651899 0.675471 0.132365
H5    H     H_    0.050347 0.445098 0.729722 0.136209
H6    H     H_    0.456377 0.114970 0.292538 0.159091
H7    H     H_    0.605638 0.212417 0.725157 0.156355
H8    H     H_    0.605613 0.114136 0.952266 0.139452
H9    H     H_    0.300612 0.803772 0.061514 0.238001
H10   H     H_    0.349898 0.668182 0.124168 0.256873
H11   H     H_    0.243156 0.697876 0.174773 0.260190
H12   H     H_    0.529117 0.913351 0.985210 0.141432
H13   H     H_    0.341451 0.749872 0.368734 0.229755
H14   H     H_    0.293501 0.885002 0.307315 0.234104
H15   H     H_    0.417064 0.946476 0.169610 0.175145
H16   H     H_    0.469835 0.812628 0.203483 0.222783
H17   H     H_    0.019789 0.815374 0.416614 0.060393
H18   H     H_    0.461241 0.806571 0.790385 0.170760
H19   H     H_    0.403351 0.361967 0.127653 0.137726
H20   H     H_    0.618656 0.671096 0.256049 0.201922
H21   H     H_    0.714425 0.800633 0.131358 0.149513
H22   H     H_    0.714657 0.799889 0.875002 0.151940
H23   H     H_    0.617859 0.671136 0.747687 0.202386
H24   H     H_    0.403369 0.362026 0.868852 0.144147
N1    N     N_R   0.500800 0.501210 0.147910 -0.198704
N2    N     N_R   0.500830 0.501290 0.852040 -0.202512
O1    O     O_R   0.499990 0.319640 0.618810 -0.583267
O2    O     O_R   0.500000 0.319660 0.381240 -0.580305
O3    O     O_R   0.379070 0.499980 0.618770 -0.573830
O4    O     O_R   0.379080 0.500000 0.381190 -0.574725
O5    O     O_R   0.500000 0.680340 0.618760 -0.612723
O6    O     O_R   0.500010 0.680360 0.381190 -0.599106
O7    O     O_R   0.620920 0.500000 0.618810 -0.596187
O8    O     O_R   0.620930 0.500020 0.381230 -0.586705
O9    O     O_2   0.139619 0.769469 0.431056 -0.565525

loop_
_geom_bond_atom_site_label_1
_geom_bond_atom_site_label_2
_ccdc_geom_bond_type
C21   N2    A    
C1    C8    S    
C24   H2    S    
C16   O6    A    
C32   O9    D    
C4    O4    A    
C7    C8    A    
C13   H20   S    
C30   H14   S    
Cu2   O4    S    
C5    H18   S    
C12   C28   S    
C18   C19   A    
C5    C6    A    
C1    O2    A    
C34   C35   S    
C21   H24   S    
C33   C35   S    
C7    C38   A    
C8    C9    A    
C23   C33   S    
C12   C36   S    
C35   H3    S    
C9    C10   A    
C9    H6    S    
C13   C14   A    
C16   O5    A    
C32   H17   S    
C31   H9    S    
C4    O3    A    
C30   H13   S    
C28   H5    S    
C13   C19   A    
C20   N1    A    
C24   C25   S    
C25   H1    S    
C6    C11   A    
C29   H15   S    
C2    H8    S    
C14   H21   S    
C33   C37   S    
C23   H4    S    
C32   C34   S    
C29   C30   S    
C11   C16   S    
C2    C38   A    
C23   C34   S    
C17   C18   A    
Cu1   O3    S    
C23   C28   S    
C20   H19   S    
C38   H7    S    
C25   C35   S    
C26   C36   T    
Cu2   N1    S    
Cu1   N2    S    
C22   O8    A    
C31   H10   S    
C12   C34   S    
Cu1   Cu2   S    
C15   C17   A    
Cu2   O6    S    
Cu1   O1    S    
C24   C28   S    
C31   H11   S    
C3    C5    A    
C4    C26   S    
C3    H12   S    
C6    C7    A    
C29   H16   S    
C18   N2    A    
C24   C33   S    
C12   C25   S    
C22   C27   S    
C2    C3    A    
C17   H23   S    
C10   C29   S    
C30   C31   S    
C27   C37   T    
C1    O1    A    
C15   H22   S    
Cu2   O8    S    
C19   N1    A    
Cu1   O7    S    
C10   C11   A    
C20   C21   A    
Cu2   O2    S    
Cu1   O5    S    
C14   C15   A    
C22   O7    A    
