data_mof_unit_34254.cif
_audit_creation_date              2013-03-05T16:15:04-0500
_audit_creation_method            fapswitch 2.2
_symmetry_space_group_name_H-M    P1
_symmetry_Int_Tables_number       1
_space_group_crystal_system       triclinic
_cell_length_a                    8.196725
_cell_length_b                    17.414537
_cell_length_c                    18.888954
_cell_angle_alpha                 103.108383
_cell_angle_beta                  91.570856
_cell_angle_gamma                 98.371017
_cell_volume                      2592.90217371

loop_
_atom_site_label
_atom_site_type_symbol
_atom_site_description
_atom_site_fract_x
_atom_site_fract_y
_atom_site_fract_z
_atom_type_partial_charge
P1    P     P_3+3 0.038810 0.422920 0.331160 0.492673
O1    O     O_2   0.871520 0.445720 0.321500 -0.361265
O2    O     O_3   0.121030 0.451930 0.411150 -0.351619
O3    O     O_3   0.662190 0.593100 0.375060 -0.376736
O4    O     O_2   0.774723 0.530823 0.247782 -0.327805
O5    O     O_3   0.969411 0.319604 0.303939 -0.628808
O6    O     O_3   0.715168 0.674223 0.263323 -0.454325
H1    H     H_    0.571896 0.734211 0.337138 0.068930
C1    C     C_3   0.646630 0.800936 0.258152 -0.993488
H2    H     H_    0.746819 0.837164 0.297463 0.274571
H3    H     H_    0.692628 0.790488 0.202764 0.273695
P2    P     P_3+3 0.678260 0.686080 0.568600 0.489088
P3    P     P_3+3 0.132423 0.738413 0.418692 0.579689
O7    O     O_2   0.853880 0.696450 0.547730 -0.271419
O8    O     O_3   0.085100 0.636210 0.413950 -0.292638
O9    O     O_2   0.040551 0.781019 0.482766 -0.295778
O10   O     O_3   0.700517 0.714596 0.663907 -0.572895
O11   O     O_3   0.036182 0.760616 0.343153 -0.531005
C2    C     C_3   0.147606 0.767913 0.288564 0.982435
H4    H     H_    0.278003 0.770133 0.306607 -0.229127
C3    C     C_3   0.138516 0.846587 0.266260 -1.019075
H5    H     H_    0.011336 0.848399 0.246192 0.274034
H6    H     H_    0.175130 0.897610 0.314112 0.219047
C4    C     C_3   0.306280 0.721462 0.672381 0.830559
H7    H     H_    0.399353 0.683445 0.652107 0.025452
C5    C     C_3   0.394145 0.793069 0.730149 -1.010812
H8    H     H_    0.452226 0.772108 0.774336 0.233852
H9    H     H_    0.491656 0.828218 0.705618 0.241325
H10   H     H_    0.305253 0.832214 0.754354 0.275193
Ba1   Ba    Ba6+2 0.853800 0.535410 0.467450 1.662300
C6    C     C_3   0.080837 0.274821 0.325979 0.873740
H11   H     H_    0.205801 0.308813 0.338885 -0.011393
C7    C     C_3   0.091996 0.201946 0.264287 -1.036285
H12   H     H_    0.966696 0.168113 0.245566 0.272680
H13   H     H_    0.169194 0.162089 0.283487 0.261388
H14   H     H_    0.149869 0.221519 0.217351 0.217670
C8    C     C_3   0.734460 0.650072 0.691389 0.443527
H15   H     H_    0.845365 0.628555 0.667484 0.115175
H16   H     H_    0.628413 0.600685 0.679149 0.110733
C9    C     C_3   0.766552 0.677628 0.773732 -1.003411
H17   H     H_    0.873903 0.726493 0.787391 0.285259
H18   H     H_    0.793195 0.627637 0.797129 0.223072
H19   H     H_    0.656140 0.699266 0.799012 0.244991
P4    P     P_3+3 0.150900 0.577150 0.668860 0.483733
O12   O     O_2   0.318180 0.554310 0.678550 -0.414663
O13   O     O_3   0.068680 0.548140 0.588860 -0.339777
O14   O     O_3   0.527520 0.406960 0.624950 -0.360360
O15   O     O_3   0.176941 0.681195 0.703117 -0.608028
P5    P     P_3+3 0.072284 0.263742 0.588884 0.528778
O16   O     O_3   0.608500 0.402060 0.457050 -0.399529
O17   O     O_3   0.104610 0.363860 0.586060 -0.348213
O18   O     O_2   0.198476 0.223064 0.539873 -0.339947
O19   O     O_3   0.125079 0.255343 0.676753 -0.525423
Ba2   Ba    Ba6+2 0.336030 0.464660 0.532560 1.625100
P6    P     P_3+3 0.643978 0.581182 0.280905 0.495916
C10   C     C_3   0.591997 0.722168 0.278530 0.418572
H20   H     H_    0.475323 0.693692 0.246438 0.053148
H21   H     H_    0.540926 0.834290 0.259099 0.220671
O20   O     O_3   0.581210 0.598010 0.542960 -0.423481
C11   C     C_3   0.536628 0.319058 0.302281 0.487750
H22   H     H_    0.437469 0.356908 0.307299 -0.007124
H23   H     H_    0.652362 0.357451 0.324498 0.165282
C12   C     C_3   0.554257 0.282462 0.222272 -1.023589
H24   H     H_    0.442383 0.238678 0.198888 0.259201
H25   H     H_    0.569631 0.330429 0.191852 0.215665
H26   H     H_    0.664399 0.251402 0.216116 0.278263
P7    P     P_3+3 0.520604 0.299855 0.433841 0.476271
O21   O     O_2   0.335820 0.303580 0.452320 -0.342230
O22   O     O_3   0.505257 0.258184 0.339650 -0.578095
H27   H     H_    0.223370 0.853536 0.222739 0.241029
C13   C     C_3   0.062408 0.315087 0.726561 0.558882
H28   H     H_    0.138401 0.373989 0.729451 0.136847
H29   H     H_    0.932742 0.318131 0.710854 -0.068415
C14   C     C_3   0.068364 0.297046 0.801554 -1.032396
H30   H     H_    0.198425 0.306171 0.823480 0.279992
H31   H     H_    0.000367 0.337456 0.839408 0.230999
H32   H     H_    0.010246 0.234539 0.798315 0.253495
P8    P     P_3+3 0.547438 0.413309 0.718262 0.440198
C15   C     C_3   0.590662 0.269657 0.715371 0.370976
H33   H     H_    0.693198 0.288374 0.758212 0.045823
O23   O     O_2   0.424009 0.466936 0.753599 -0.403108
O24   O     O_3   0.469510 0.319108 0.732305 -0.502682
H34   H     H_    0.639712 0.273454 0.661955 0.013766
H35   H     H_    0.581927 0.143781 0.668483 0.114181
C16   C     C_3   0.516446 0.182139 0.709884 -0.368191
H36   H     H_    0.384172 0.170794 0.690136 0.248206
C17   C     C_R   0.995683 0.460228 0.044096 0.071918
C18   C     C_R   0.902394 0.416324 0.088092 -0.191453
C19   C     C_R   0.766965 0.434037 0.948095 -0.209574
C20   C     C_R   0.932086 0.465540 0.974329 0.052017
C21   C     C_R   0.709607 0.433355 0.877916 -0.202460
C22   C     C_R   0.813711 0.463647 0.829821 -0.014375
C23   C     C_R   0.976287 0.501050 0.855677 0.005877
C24   C     C_R   0.035440 0.503276 0.928872 0.053611
C25   C     C_R   0.760442 0.456912 0.756373 0.144949
C26   C     C_R   0.869809 0.485520 0.709068 -0.537915
C27   C     C_R   0.026835 0.527681 0.733820 0.236240
C28   C     C_R   0.079715 0.536190 0.808396 -0.038801
C29   C     C_R   0.158392 0.498143 0.070544 0.025494
C30   C     C_R   0.217653 0.494348 0.141940 0.090928
C31   C     C_R   0.113490 0.456708 0.187813 0.042559
C32   C     C_R   0.959612 0.414966 0.157939 -0.106176
H37   H     H_    0.828320 0.479042 0.652867 0.174666
H38   H     H_    0.582241 0.407717 0.861823 0.172473
H39   H     H_    0.880624 0.380879 0.188359 0.160865
C33   C     C_R   0.235553 0.576228 0.836695 -0.054112
C34   C     C_R   0.297135 0.572521 0.904769 -0.226565
C35   C     C_R   0.198911 0.540781 0.954748 0.052122
C36   C     C_R   0.259867 0.542046 0.027610 -0.019970
C37   C     C_R   0.418453 0.583734 0.060364 0.223030
C38   C     C_R   0.380298 0.529741 0.168266 -0.043644
C39   C     C_R   0.480590 0.567882 0.124203 -0.253385
C40   C     C_R   0.435251 0.532118 0.240538 0.123287
C41   C     C_R   0.326837 0.501164 0.286535 -0.452998
C42   C     C_R   0.166524 0.463483 0.262275 0.212160
H40   H     H_    0.317978 0.607262 0.805358 0.160774
H41   H     H_    0.605663 0.594640 0.143224 0.204800
H42   H     H_    0.369200 0.505578 0.342305 0.160712
H43   H     H_    0.676606 0.410221 0.981008 0.134511
H44   H     H_    0.783338 0.381276 0.069926 0.119046
H45   H     H_    0.426804 0.592029 0.914031 0.162988
C43   C     C_2   0.449559 0.719853 0.475703 -0.252477
C44   C     C_3   0.360947 0.771016 0.436823 0.056392
C45   C     C_2   0.403745 0.858189 0.470358 -0.171525
C46   C     C_2   0.548311 0.886385 0.509628 0.126228
C47   C     C_2   0.639902 0.829472 0.537118 -0.253311
C48   C     C_1   0.579471 0.751984 0.522345 0.231790
C49   C     C_R   0.806203 0.139538 0.539350 -0.283185
C50   C     C_R   0.858522 0.221565 0.553877 0.264749
C51   C     C_R   0.613326 0.238081 0.486849 0.314019
C52   C     C_R   0.560919 0.155619 0.472333 -0.250478
C53   C     C_R   0.656917 0.105903 0.498663 0.102183
C54   C     C_2   0.614037 0.973006 0.525189 -0.273217
C55   C     C_2   0.613965 0.017908 0.474679 0.221692
C56   C     C_R   0.757010 0.271037 0.531233 -0.335002
H46   H     H_    0.757619 0.851931 0.568155 0.175258
H47   H     H_    0.887126 0.101536 0.555085 0.145539
H48   H     H_    0.658158 0.001445 0.581158 0.129273
H49   H     H_    0.329320 0.898499 0.453463 0.124588
H50   H     H_    0.451544 0.129753 0.436693 0.149657
H51   H     H_    0.420650 0.655648 0.455910 0.150296
H52   H     H_    0.798113 0.334689 0.541837 0.162173
N1    N     N_R   0.021531 0.251818 0.390907 0.236527
O25   O     O_R   0.943106 0.180405 0.388563 -0.463816
O26   O     O_R   0.007878 0.309418 0.446340 -0.374215
N2    N     N_R   0.104198 0.699075 0.227026 0.231989
O27   O     O_R   0.094951 0.627941 0.239005 -0.404817
O28   O     O_R   0.065984 0.706907 0.161876 -0.426548
C57   C     C_3   0.536382 0.155981 0.781656 -0.314291
C58   C     C_3   0.431906 0.195739 0.840584 -0.794058
H53   H     H_    0.470210 0.261487 0.854790 0.256158
H54   H     H_    0.299241 0.180887 0.821693 0.265129
H55   H     H_    0.448877 0.173323 0.890445 0.229222
H56   H     H_    0.498044 0.090348 0.770880 0.205325
H57   H     H_    0.668332 0.169168 0.801898 0.190830
C59   C     C_3   0.516347 0.657215 0.041926 -0.373723
C60   C     C_3   0.681088 0.640100 0.009260 -0.851028
H58   H     H_    0.769508 0.631171 0.051333 0.288681
H59   H     H_    0.663335 0.585522 0.964542 0.256464
H60   H     H_    0.737780 0.691505 0.987863 0.258018
H61   H     H_    0.442400 0.686527 0.008662 0.191120
H62   H     H_    0.547808 0.704389 0.093179 0.204137
C61   C     C_3   0.573295 0.981038 0.393559 -0.424262
C62   C     C_3   0.692229 0.017988 0.344236 -0.732631
H63   H     H_    0.674730 0.080895 0.345374 0.282023
H64   H     H_    0.824029 0.016654 0.361234 0.272558
H65   H     H_    0.665565 0.983045 0.287039 0.230592
H66   H     H_    0.582034 0.916591 0.380964 0.207734
H67   H     H_    0.444426 0.987971 0.378835 0.182172
N3    N     N_R   0.235717 0.746830 0.612113 0.196239
O29   O     O_R   0.178882 0.689635 0.556539 -0.367699
O30   O     O_R   0.167310 0.811423 0.624504 -0.386760

loop_
_geom_bond_atom_site_label_1
_geom_bond_atom_site_label_2
_geom_bond_distance
_ccdc_geom_bond_type
C17   C18   1.418699 A    
C12   H25   1.111234 S    
C60   H58   1.112793 S    
C45   H49   1.087378 S    
C25   C26   1.402147 A    
O6    P6    1.747996 S    
C21   H38   1.080265 S    
C49   H47   1.082820 S    
C49   C50   1.391790 A    
H1    C10   1.100660 S    
C41   C42   1.395288 A    
C44   C45   1.491805 S    
P2    C48   1.850096 S    
C16   H36   1.111639 S    
C55   C61   1.527959 S    
Ba1   Ba2   4.526947 S    
C24   C35   1.423156 A    
C5    H8    1.106150 S    
C31   C32   1.394866 A    
C14   H31   1.106773 S    
P3    O11   1.756436 S    
C11   C12   1.520849 S    
C22   C23   1.416285 A    
C62   H63   1.120881 S    
C2    C3    1.532948 S    
C4    C5    1.530558 S    
C1    H21   1.109526 S    
C8    C9    1.523452 S    
C39   H41   1.077963 S    
P3    C44   1.874916 S    
O2    Ba2   2.801457 S    
Ba2   O21   2.869835 S    
C33   C34   1.387044 A    
N1    O25   1.304791 A    
C29   C36   1.437754 A    
C27   C28   1.430842 A    
C7    H14   1.113666 S    
C35   C36   1.445548 A    
C32   H39   1.079317 S    
C11   H23   1.090541 S    
P1    O1    1.499628 D    
C43   C48   1.332166 D    
C30   C31   1.429913 A    
C52   H50   1.082419 S    
C37   C39   1.395690 A    
C50   C56   1.404958 A    
P2    O20   1.583134 S    
C56   H52   1.081294 S    
C51   C56   1.396465 A    
P5    O17   1.738202 S    
C58   H55   1.110917 S    
P2    O10   1.752400 S    
C34   C35   1.412012 A    
C6    C7    1.531562 S    
C19   C21   1.391226 A    
C4    N3    1.446404 S    
C1    H2    1.107722 S    
C17   C29   1.421860 A    
C17   C20   1.431306 A    
C9    H18   1.107016 S    
O5    C6    1.396252 S    
Ba1   O16   2.808201 S    
C12   H26   1.113803 S    
C59   H62   1.114692 S    
C54   H48   1.087706 S    
C60   H59   1.107632 S    
C3    H5    1.106684 S    
C26   C27   1.396579 A    
O6    C10   1.396945 S    
O7    Ba1   2.869635 S    
C49   C53   1.402369 A    
P4    O13   1.578494 S    
C20   C24   1.421452 A    
N2    O28   1.303282 A    
Ba2   O20   2.807617 S    
C9    H19   1.109248 S    
C2    N2    1.461478 S    
C14   H30   1.109013 S    
N2    O27   1.300866 A    
P7    O21   1.570817 D    
C4    O15   1.398091 S    
C19   H43   1.076955 S    
C4    H7    1.102285 S    
C19   C20   1.414950 A    
C21   C22   1.400184 A    
C13   H29   1.107572 S    
O11   C2    1.410948 S    
O10   C8    1.398991 S    
P6    C40   1.856303 S    
P5    C50   1.840707 S    
C14   H32   1.110305 S    
C22   C25   1.416786 A    
C12   H24   1.113012 S    
C33   H40   1.076856 S    
C11   H22   1.111734 S    
P1    O2    1.578331 S    
O2    Ba1   2.897566 S    
C57   H56   1.110373 S    
C8    H15   1.102542 S    
C15   O24   1.404119 S    
P4    C27   1.890677 S    
P8    O24   1.752455 S    
C6    H11   1.096963 S    
P8    C25   1.854780 S    
P5    O18   1.548265 D    
Ba1   O20   2.897193 S    
O13   Ba2   2.898391 S    
C7    H12   1.111942 S    
C38   C40   1.415450 A    
C1    C10   1.516693 S    
O16   Ba2   2.896369 S    
H35   C16   1.111888 S    
C1    H3    1.106833 S    
C41   H42   1.082437 S    
C5    H10   1.107320 S    
O14   Ba2   2.761023 S    
C9    H17   1.111276 S    
C43   H51   1.083730 S    
P2    O7    1.499305 D    
C59   H61   1.112396 S    
C60   H60   1.110829 S    
P3    O8    1.746708 S    
O3    P6    1.742812 S    
C54   C55   1.363907 D    
C31   C42   1.434382 A    
C58   H54   1.109807 S    
C26   H37   1.081682 S    
P7    C51   1.849957 S    
C18   H44   1.075081 S    
C10   H20   1.105324 S    
C34   H45   1.064609 S    
C52   C53   1.410080 A    
O19   C13   1.403436 S    
C15   C16   1.535756 S    
P4    O12   1.499936 D    
O8    Ba1   2.763642 S    
C40   C41   1.396564 A    
O16   P7    1.770459 S    
C46   C54   1.485155 S    
N1    O26   1.295274 A    
C59   C60   1.540254 S    
C38   C39   1.392469 A    
P2    Ba1   3.403144 S    
O4    P6    1.539671 D    
C62   H65   1.111496 S    
O12   Ba2   2.863387 S    
C13   C14   1.519929 S    
C18   C32   1.394507 A    
C23   C24   1.442778 A    
C5    H9    1.111176 S    
C28   C33   1.392025 A    
C29   C30   1.439749 A    
Ba1   O13   2.800872 S    
C3    H27   1.107326 S    
O1    Ba1   2.862817 S    
O17   Ba2   2.764236 S    
C2    H4    1.105471 S    
C3    H6    1.113449 S    
C51   C52   1.399009 A    
C57   H57   1.110800 S    
C13   H28   1.108988 S    
C8    H16   1.108980 S    
C57   C58   1.525454 S    
C15   H34   1.108524 S    
P8    O23   1.539673 D    
C46   C47   1.498087 S    
N3    O30   1.306098 A    
C11   O22   1.399323 S    
C47   C48   1.330851 D    
P5    O19   1.747166 S    
C62   H64   1.123575 S    
P1    Ba1   3.399436 S    
C7    H13   1.114979 S    
C61   H66   1.106596 S    
C6    N1    1.449041 S    
C61   H67   1.115330 S    
C16   C57   1.536811 S    
C61   C62   1.539962 S    
C37   C59   1.523517 S    
C47   H46   1.087562 S    
C15   H33   1.109392 S    
P4    Ba2   3.400096 S    
C30   C38   1.410621 A    
C53   C55   1.482122 S    
N3    O29   1.294167 A    
P3    O9    1.545222 D    
P1    O5    1.758240 S    
C58   H53   1.110364 S    
P1    C42   1.887895 S    
O14   P8    1.742443 S    
P7    O22   1.755957 S    
C43   C44   1.522089 S    
C36   C37   1.441160 A    
C23   C28   1.424480 A    
O3    Ba1   2.761514 S    
P4    O15   1.759336 S    
C45   C46   1.346345 D    
