data_mof_unit_51822.cif
_audit_creation_date              2012-10-26T19:04:19-0400
_audit_creation_method            fapswitch 2.2
_symmetry_space_group_name_H-M    P1
_symmetry_Int_Tables_number       1
_space_group_crystal_system       triclinic
_cell_length_a                    15.092726
_cell_length_b                    15.581791
_cell_length_c                    9.669118
_cell_angle_alpha                 90.005127
_cell_angle_beta                  91.356667
_cell_angle_gamma                 90.102468
_cell_volume                      2273.26186731

loop_
_atom_site_label
_atom_site_type_symbol
_atom_type_description
_atom_site_fract_x
_atom_site_fract_y
_atom_site_fract_z
_atom_type_partial_charge
C1    C     C_R   0.377494 0.885534 0.498741 0.535923
C2    C     C_R   0.736141 0.200014 0.396598 -0.123463
C3    C     C_R   0.187586 0.253331 0.393174 -0.070298
C4    C     C_R   0.236141 0.700014 0.396598 -0.123463
C5    C     C_R   0.674413 0.802964 0.510321 -0.023652
C6    C     C_R   0.677905 0.193972 0.506841 0.018643
C7    C     C_R   0.174413 0.302964 0.510321 -0.023651
C8    C     C_R   0.177905 0.693972 0.506841 0.018643
C9    C     C_R   0.663089 0.006343 0.148027 -0.019969
C10   C     C_R   0.163089 0.506343 0.148027 -0.019969
C11   C     C_R   0.742356 0.012152 0.078602 -0.107128
C12   C     C_R   0.384506 0.121698 0.499471 0.533876
C13   C     C_R   0.242356 0.512152 0.078602 -0.107128
C14   C     C_R   0.742041 0.011612 0.936090 -0.137729
C15   C     C_R   0.242041 0.511612 0.936090 -0.137729
C16   C     C_R   0.662410 0.005923 0.862037 -0.086173
C17   C     C_R   0.162410 0.505923 0.862037 -0.086173
C18   C     C_R   0.579820 0.003639 0.928043 0.186073
C19   C     C_R   0.079820 0.503639 0.928043 0.186072
C20   C     C_R   0.579906 0.003963 0.077150 0.225282
C21   C     C_R   0.079906 0.503963 0.077150 0.225281
C22   C     C_R   0.423977 0.997674 0.070898 0.031096
C23   C     C_R   0.877494 0.385534 0.498741 0.535923
C24   C     C_R   0.923977 0.497674 0.070898 0.031096
C25   C     C_R   0.615587 0.121793 0.502009 0.534105
C26   C     C_R   0.613599 0.876575 0.502152 0.538930
C27   C     C_R   0.115587 0.621793 0.502009 0.534105
C28   C     C_R   0.113599 0.376575 0.502152 0.538930
C29   C     C_R   0.424041 0.997968 0.923591 0.023312
C30   C     C_R   0.924041 0.497968 0.923591 0.023312
C31   C     C_R   0.365409 0.241464 0.733856 -0.123028
C32   C     C_R   0.232152 0.898440 0.692025 -0.145167
C33   C     C_R   0.865409 0.741463 0.733856 -0.123027
C34   C     C_R   0.884506 0.621698 0.499471 0.533875
C35   C     C_R   0.732152 0.398440 0.692025 -0.145167
C36   C     C_R   0.335364 0.260715 0.864649 -0.055532
C37   C     C_R   0.180641 0.893538 0.808633 -0.112504
C38   C     C_R   0.835364 0.760715 0.864649 -0.055533
C39   C     C_R   0.680641 0.393538 0.808633 -0.112503
C40   C     C_R   0.747227 0.783241 0.880733 0.241026
C41   C     C_R   0.631245 0.320163 0.833349 0.226573
C42   C     C_R   0.247227 0.283242 0.880733 0.241027
C43   C     C_R   0.131245 0.820164 0.833349 0.226572
C44   C     C_R   0.692846 0.798369 0.765493 -0.108534
C45   C     C_R   0.257916 0.195821 0.389371 -0.076664
C46   C     C_R   0.627081 0.254830 0.733845 -0.113855
C47   C     C_R   0.192846 0.298369 0.765493 -0.108534
C48   C     C_R   0.127080 0.754830 0.733845 -0.113854
C49   C     C_R   0.724459 0.784131 0.631765 -0.030372
C50   C     C_R   0.680161 0.257573 0.614122 -0.009986
C51   C     C_R   0.224459 0.284131 0.631765 -0.030372
C52   C     C_R   0.180161 0.757573 0.614122 -0.009985
C53   C     C_R   0.305410 0.240469 0.619852 0.003856
C54   C     C_R   0.238884 0.827929 0.600874 0.028132
C55   C     C_R   0.805409 0.740469 0.619852 0.003856
C56   C     C_R   0.299062 0.764105 0.393115 -0.140643
C57   C     C_R   0.738884 0.327929 0.600874 0.028132
C58   C     C_R   0.319093 0.190922 0.499861 -0.003830
C59   C     C_R   0.302707 0.826481 0.496303 0.018128
C60   C     C_R   0.819093 0.690922 0.499861 -0.003831
C61   C     C_R   0.802707 0.326481 0.496303 0.018128
C62   C     C_R   0.757916 0.695821 0.389371 -0.076664
C63   C     C_R   0.799062 0.264105 0.393115 -0.140643
C64   C     C_R   0.687585 0.753331 0.393174 -0.070298
Cu1   Cu    Cu3+1 0.499990 0.000000 0.640660 0.919284
Cu2   Cu    Cu3+1 0.999990 0.500000 0.640660 0.919284
Cu3   Cu    Cu3+1 0.500010 0.000000 0.359340 1.005580
Cu4   Cu    Cu3+1 0.000010 0.500000 0.359340 1.005580
H1    H     H_    0.264466 0.154140 0.301115 0.213623
H2    H     H_    0.861476 0.496783 0.867182 0.110673
H3    H     H_    0.433475 0.222030 0.724808 0.160240
H4    H     H_    0.266670 0.958095 0.674302 0.139622
H5    H     H_    0.933475 0.722030 0.724808 0.160240
H6    H     H_    0.766670 0.458095 0.674302 0.139622
H7    H     H_    0.378171 0.250486 0.954193 0.230699
H8    H     H_    0.180505 0.946595 0.881033 0.150068
H9    H     H_    0.878171 0.750486 0.954193 0.230699
H10   H     H_    0.680505 0.446595 0.881033 0.150068
H11   H     H_    0.641434 0.757888 0.306666 0.232353
H12   H     H_    0.346705 0.763491 0.310986 0.138008
H13   H     H_    0.735729 0.152559 0.314759 0.124083
H14   H     H_    0.141434 0.257888 0.306666 0.232353
H15   H     H_    0.235729 0.652559 0.314759 0.124083
H16   H     H_    0.671439 0.001674 0.256967 0.174578
H17   H     H_    0.171439 0.501674 0.256967 0.174577
H18   H     H_    0.804746 0.014406 0.136179 0.150760
H19   H     H_    0.304746 0.514406 0.136179 0.150761
H20   H     H_    0.648794 0.649731 0.006647 0.349565
H21   H     H_    0.696607 0.298465 0.114542 0.331738
H22   H     H_    0.148793 0.149731 0.006648 0.349564
H23   H     H_    0.764466 0.654139 0.301115 0.213623
H24   H     H_    0.196607 0.798467 0.114541 0.331738
H25   H     H_    0.623739 0.811084 0.782706 0.185732
H26   H     H_    0.583322 0.202912 0.756121 0.175157
H27   H     H_    0.123739 0.311084 0.782706 0.185732
H28   H     H_    0.083321 0.702912 0.756120 0.175157
H29   H     H_    0.361375 0.995749 0.123063 0.131312
H30   H     H_    0.861375 0.495749 0.123063 0.131312
H31   H     H_    0.846705 0.263491 0.310986 0.138008
H32   H     H_    0.804126 0.013534 0.882263 0.143413
H33   H     H_    0.304126 0.513534 0.882263 0.143413
H34   H     H_    0.669555 0.001679 0.753411 0.185084
H35   H     H_    0.169555 0.501679 0.753411 0.185084
H36   H     H_    0.361476 0.996784 0.867182 0.110673
N1    N     N_R   0.501200 0.000000 0.147910 -0.235531
N2    N     N_R   0.001200 0.500000 0.147910 -0.235531
N3    N     N_R   0.501270 1.000000 0.852040 -0.250242
N4    N     N_R   0.001270 0.500000 0.852040 -0.250242
O1    O     O_R   0.409820 0.909830 0.618810 -0.506942
O2    O     O_R   0.590170 0.909830 0.618760 -0.536376
O3    O     O_R   0.090170 0.590170 0.618760 -0.551602
O4    O     O_R   0.090170 0.409830 0.618760 -0.536376
O5    O     O_R   0.590190 0.090180 0.381190 -0.506401
O6    O     O_R   0.590190 0.909820 0.381190 -0.495530
O7    O     O_R   0.090190 0.590180 0.381190 -0.506401
O8    O     O_R   0.090190 0.409820 0.381190 -0.495530
O9    O     O_2   0.765279 0.818028 0.145733 -0.273999
O10   O     O_2   0.613096 0.819670 0.047793 -0.328436
O11   O     O_3   0.689629 0.672049 0.079926 -0.568573
O12   O     O_R   0.409820 0.090170 0.618810 -0.525872
O13   O     O_2   0.498689 0.371092 0.990054 -0.256851
O14   O     O_2   0.543990 0.220338 0.012845 -0.324599
O15   O     O_3   0.645767 0.338176 0.122094 -0.487669
O16   O     O_2   0.265279 0.318028 0.145733 -0.273999
O17   O     O_2   0.113097 0.319670 0.047793 -0.328437
O18   O     O_3   0.189630 0.172049 0.079926 -0.568573
O19   O     O_2   0.998688 0.871092 0.990053 -0.256852
O20   O     O_2   0.043990 0.720338 0.012845 -0.324599
O21   O     O_3   0.145767 0.838177 0.122094 -0.487669
O22   O     O_R   0.909820 0.409830 0.618810 -0.506942
O23   O     O_R   0.909820 0.590170 0.618810 -0.525872
O24   O     O_R   0.409840 0.909830 0.381240 -0.504555
O25   O     O_R   0.409840 0.090170 0.381240 -0.485115
O26   O     O_R   0.909840 0.409830 0.381240 -0.504555
O27   O     O_R   0.909840 0.590170 0.381240 -0.485115
O28   O     O_R   0.590170 0.090170 0.618760 -0.551602
S1    S     S_3+6 0.701978 0.776769 0.043494 -0.057436
S2    S     S_3+6 0.576110 0.310617 0.991179 -0.012268
S3    S     S_3+6 0.201979 0.276769 0.043494 -0.057436
S4    S     S_3+6 0.076109 0.810617 0.991178 -0.012268

loop_
_geom_bond_atom_site_label_1
_geom_bond_atom_site_label_2
_ccdc_geom_bond_type
C44   C49   A    
C33   C55   A    
Cu2   Cu4   S    
C35   H6    S    
C22   C29   A    
C9    H16   S    
O16   S3    D    
C36   C42   A    
Cu3   O24   S    
C4    C8    A    
C1    O24   A    
C32   H4    S    
O17   S3    D    
C4    H15   S    
O15   S2    S    
C5    C64   A    
C24   H30   S    
C10   H17   S    
C19   C21   A    
Cu3   O6    S    
Cu2   O23   S    
C3    C7    A    
C1    C59   S    
C11   C14   A    
C31   C53   A    
C6    C25   S    
C11   H18   S    
C60   C62   A    
C61   C63   A    
C25   O28   A    
C18   N3    A    
C62   C64   A    
C44   H25   S    
C28   O8    A    
C1    O1    A    
C12   O12   A    
Cu1   Cu3   S    
C63   H31   S    
C41   C46   A    
Cu2   O3    S    
O10   S1    D    
C43   C48   A    
C8    C52   A    
C40   C44   A    
C21   N2    A    
C12   C58   S    
C19   N4    A    
C31   H3    S    
C27   O3    A    
C22   H29   S    
C55   C60   A    
C40   S1    S    
C34   C60   S    
C5    C49   A    
C2    C6    A    
Cu4   N2    S    
C32   C54   A    
C30   H2    S    
C52   C54   A    
C54   C59   A    
C10   C21   A    
O18   S3    S    
C45   C58   A    
C45   H1    S    
O11   S1    S    
C39   H10   S    
O14   S2    D    
C39   C41   A    
Cu3   O5    S    
Cu3   N1    S    
C47   C51   A    
H21   O15   S    
C49   C55   A    
C3    C45   A    
C28   O4    A    
C7    C28   S    
C23   O22   A    
C51   C53   A    
O13   S2    D    
C37   C43   A    
C35   C39   A    
C26   O6    A    
C36   H7    S    
C25   O5    A    
C9    C20   A    
C46   H26   S    
C23   C61   S    
C62   H23   S    
C13   H19   S    
C3    H14   S    
H22   O18   S    
C43   S4    S    
C32   C37   A    
C15   H33   S    
H20   O11   S    
C57   C61   A    
C9    C11   A    
Cu1   O1    S    
C41   S2    S    
Cu4   O8    S    
C33   H5    S    
C37   H8    S    
C34   O23   A    
C12   O25   A    
C13   C15   A    
C64   H11   S    
C14   C16   A    
C24   N2    A    
O19   S4    D    
C2    C63   A    
C20   N1    A    
C16   H34   S    
C15   C17   A    
C26   O2    A    
C48   H28   S    
C23   O26   A    
Cu3   O25   S    
C42   S3    S    
C50   C57   A    
Cu4   O27   S    
O9    S1    D    
Cu2   N4    S    
C10   C13   A    
C53   C58   A    
C14   H32   S    
C38   H9    S    
C22   N1    A    
C46   C50   A    
C33   C38   A    
C56   H12   S    
C56   C59   A    
C35   C57   A    
Cu4   O26   S    
H24   O21   S    
C17   H35   S    
C7    C51   A    
C38   C40   A    
O21   S4    S    
C34   O27   A    
C17   C19   A    
Cu1   O12   S    
C18   C20   A    
C42   C47   A    
O20   S4    D    
C24   C30   A    
Cu1   O2    S    
Cu1   O28   S    
Cu4   O7    S    
C5    C26   S    
C6    C50   A    
C48   C52   A    
C29   H36   S    
C16   C18   A    
C8    C27   S    
C47   H27   S    
C31   C36   A    
C29   N3    A    
C2    H13   S    
Cu2   O4    S    
C30   N4    A    
Cu1   N3    S    
C4    C56   A    
Cu2   O22   S    
C27   O7    A    
