data_mof_unit_41565.cif
_audit_creation_date              2012-12-11T16:18:14-0500
_audit_creation_method            fapswitch 2.2
_symmetry_space_group_name_H-M    P1
_symmetry_Int_Tables_number       1
_space_group_crystal_system       triclinic
_cell_length_a                    14.053943
_cell_length_b                    14.056786
_cell_length_c                    30.111214
_cell_angle_alpha                 97.091808
_cell_angle_beta                  97.051338
_cell_angle_gamma                 61.334946
_cell_volume                      5165.76645695

loop_
_atom_site_label
_atom_site_type_symbol
_atom_type_description
_atom_site_fract_x
_atom_site_fract_y
_atom_site_fract_z
_atom_type_partial_charge
C1    C     C_R   0.385971 0.710633 0.442081 0.535527
C2    C     C_R   0.750307 0.288218 0.371609 -0.183821
C3    C     C_R   0.774405 0.270378 0.326882 -0.016169
C4    C     C_R   0.399051 0.381268 0.426393 0.547643
C5    C     C_R   0.814889 0.332028 0.310470 -0.008818
C6    C     C_R   0.838729 0.404671 0.339394 -0.123759
C7    C     C_R   0.814155 0.423492 0.384511 0.241940
C8    C     C_R   0.821147 0.408567 0.156167 -0.053880
C9    C     C_R   0.841039 0.398918 0.111150 0.229986
C10   C     C_R   0.888320 0.206546 0.107410 -0.054049
C11   C     C_R   0.864841 0.219358 0.152064 -0.131128
C12   C     C_R   0.405714 0.334322 0.221012 -0.097592
C13   C     C_R   0.837274 0.318118 0.176813 -0.030399
C14   C     C_1   0.829291 0.324801 0.223900 -0.017790
C15   C     C_1   0.824130 0.328035 0.263467 -0.008019
C16   C     C_R   0.710133 0.405546 0.442447 0.570482
C17   C     C_R   0.886040 0.294405 0.087407 -0.013579
C18   C     C_R   0.365246 0.767247 0.400866 0.003631
C19   C     C_R   0.441767 0.793672 0.386471 -0.023229
C20   C     C_R   0.432526 0.818999 0.342151 -0.113172
C21   C     C_R   0.347641 0.819950 0.312524 0.024161
C22   C     C_R   0.266603 0.804378 0.327560 -0.115612
C23   C     C_R   0.418004 0.339310 0.267811 -0.093319
C24   C     C_R   0.274846 0.778895 0.371479 -0.132648
C25   C     C_R   0.256002 0.831933 0.151940 -0.111162
C26   C     C_R   0.236201 0.859348 0.107640 -0.119553
C27   C     C_R   0.387719 0.899450 0.117301 -0.119994
C28   C     C_R   0.389618 0.711686 0.568152 0.548555
C29   C     C_R   0.407220 0.872102 0.161626 -0.106755
C30   C     C_R   0.338838 0.842271 0.179274 0.035674
C31   C     C_1   0.345792 0.833468 0.226330 -0.021393
C32   C     C_1   0.347581 0.828402 0.265842 -0.019671
C33   C     C_R   0.298819 0.898124 0.090585 0.016153
C34   C     C_R   0.334457 0.350346 0.292476 0.035166
C35   C     C_R   0.365373 0.364467 0.592658 -0.033444
C36   C     C_R   0.432138 0.271333 0.615838 -0.138161
C37   C     C_R   0.411453 0.265865 0.659208 -0.141411
C38   C     C_R   0.323634 0.352787 0.679827 0.025237
C39   C     C_R   0.250132 0.443109 0.655516 0.260393
C40   C     C_R   0.402349 0.383306 0.552493 0.542926
C41   C     C_R   0.272012 0.447721 0.612064 -0.052814
C42   C     C_R   0.218722 0.411025 0.834910 -0.104542
C43   C     C_R   0.210180 0.392196 0.878260 -0.120830
C44   C     C_R   0.393611 0.241456 0.878832 -0.121433
C45   C     C_R   0.309489 0.341064 0.198791 0.033835
C46   C     C_R   0.401925 0.260588 0.835523 -0.107051
C47   C     C_R   0.313099 0.342734 0.813062 0.039735
C48   C     C_1   0.315067 0.349355 0.766305 -0.016476
C49   C     C_1   0.317470 0.351529 0.726808 -0.026062
C50   C     C_R   0.295844 0.304086 0.899815 0.018076
C51   C     C_1   0.761334 0.377022 0.612649 0.006098
C52   C     C_R   0.712894 0.407857 0.568556 0.548008
C53   C     C_R   0.748691 0.416410 0.729485 -0.114534
C54   C     C_R   0.768657 0.398420 0.775010 -0.135503
C55   C     C_R   0.920581 0.219243 0.757861 0.270140
C56   C     C_1   0.300357 0.325027 0.150837 -0.050187
C57   C     C_R   0.899491 0.238833 0.712234 -0.032149
C58   C     C_R   0.814464 0.337191 0.698070 -0.013282
C59   C     C_R   0.854256 0.300765 0.789664 0.027119
C60   C     C_1   0.878496 0.290503 0.837296 -0.062196
C61   C     C_1   0.790334 0.356334 0.651193 -0.044426
C62   C     C_1   0.906259 0.281697 0.876692 -0.009619
C63   C     C_1   0.374742 0.760136 0.613126 -0.000195
C64   C     C_1   0.367171 0.365129 0.380418 -0.007548
C65   C     C_R   0.259699 0.814384 0.716981 -0.034186
C66   C     C_R   0.248306 0.830973 0.763584 -0.004498
C67   C     C_1   0.348544 0.356668 0.340511 -0.053894
C68   C     C_R   0.413392 0.848790 0.775633 -0.055468
C69   C     C_R   0.425844 0.833048 0.729521 0.248977
C70   C     C_R   0.348345 0.815520 0.699765 -0.000991
C71   C     C_R   0.326008 0.847632 0.792818 -0.038191
C72   C     C_1   0.311865 0.873210 0.840228 -0.042788
C73   C     C_1   0.362995 0.789760 0.652257 -0.056022
C74   C     C_1   0.293263 0.902626 0.878930 0.004309
C75   C     C_R   0.948366 0.273752 0.047605 0.527990
C76   C     C_R   0.237722 0.358241 0.270313 -0.105092
C77   C     C_R   0.275231 0.270116 0.065435 0.547875
C78   C     C_1   0.290770 0.304506 0.111120 -0.002920
C79   C     C_R   0.260704 0.954076 0.048837 0.540088
C80   C     C_R   0.952486 0.268979 0.922042 0.543062
C81   C     C_R   0.276473 0.266378 0.939615 0.541211
C82   C     C_R   0.261503 0.950851 0.922932 0.546192
C83   C     C_R   0.225388 0.353317 0.223460 -0.101870
C84   C     C_1   0.917673 0.101008 0.084141 0.226893
C85   C     C_1   0.750767 0.193306 0.297819 0.193370
C86   C     C_1   0.532500 0.791812 0.415411 0.227691
C87   C     C_1   0.180673 0.795346 0.686805 0.237572
C88   C     C_1   0.156602 0.831673 0.781390 0.246764
C89   C     C_R   0.764445 0.368428 0.400091 0.044403
Cr1   Cr    Cr6+3 0.581000 0.584320 0.508140 1.090328
Cr2   Cr    Cr6+3 0.339110 0.576430 0.496080 1.041198
Cr3   Cr    Cr6+3 0.579910 0.339270 0.495810 1.036032
Cr4   Cr    Cr6+3 0.082090 0.079210 0.982490 1.063458
Cr5   Cr    Cr6+3 0.082460 0.324610 0.994920 1.046751
Cr6   Cr    Cr6+3 0.323630 0.087860 0.996130 1.032790
H1    H     H_    0.172506 0.367450 0.289141 0.113842
H2    H     H_    0.493782 0.833692 0.330222 0.120488
H3    H     H_    0.133942 0.442011 0.893578 0.139061
H4    H     H_    0.149786 0.475024 0.817626 0.127563
H5    H     H_    0.218769 0.519855 0.594531 0.170758
H6    H     H_    0.504342 0.205749 0.601685 0.154482
H7    H     H_    0.475419 0.207688 0.818713 0.125166
H8    H     H_    0.461092 0.173360 0.894635 0.139255
H9    H     H_    0.467537 0.196054 0.677581 0.138352
H10   H     H_    0.682019 0.492461 0.718772 0.140612
H11   H     H_    0.471659 0.323461 0.202220 0.124813
H12   H     H_    0.872369 0.150856 0.168178 0.138947
H13   H     H_    0.718172 0.461624 0.798942 0.128529
H14   H     H_    0.949682 0.176991 0.687819 0.146195
H15   H     H_    0.472093 0.863335 0.798250 0.148487
H16   H     H_    0.492861 0.333914 0.284784 0.127076
H17   H     H_    0.794245 0.486683 0.175157 0.143281
H18   H     H_    0.871992 0.450157 0.326341 0.101347
H19   H     H_    0.713254 0.244488 0.383216 0.148126
H20   H     H_    0.149227 0.514335 0.702766 0.334708
H21   H     H_    0.010360 0.114173 0.802015 0.337092
H22   H     H_    0.512617 0.828414 0.682363 0.336167
H23   H     H_    0.167776 0.856694 0.087751 0.157355
H24   H     H_    0.798184 0.483938 0.059758 0.336732
H25   H     H_    0.868389 0.528947 0.396739 0.322404
H26   H     H_    0.203087 0.808369 0.165527 0.121194
H27   H     H_    0.199874 0.806412 0.304695 0.122977
H28   H     H_    0.213939 0.760905 0.381318 0.145628
H29   H     H_    0.471728 0.879880 0.182736 0.123355
H30   H     H_    0.437584 0.928670 0.105051 0.140835
H31   H     H_    0.151168 0.357189 0.206450 0.122015
N1    N     N_1   0.940792 0.016440 0.065633 -0.288454
N2    N     N_1   0.731741 0.131707 0.274527 -0.304383
N3    N     N_1   0.605295 0.790350 0.438515 -0.256470
N4    N     N_1   0.117738 0.780142 0.662724 -0.223949
N5    N     N_1   0.083432 0.832294 0.795607 -0.263831
O1    O     O_R   0.688580 0.499770 0.460490 -0.432767
O2    O     O_R   0.346150 0.177650 0.050510 -0.508079
O3    O     O_R   0.314200 0.996600 0.036060 -0.504344
O4    O     O_R   0.480400 0.672610 0.462660 -0.485928
O5    O     O_R   0.168690 0.969990 0.933130 -0.495713
O6    O     O_R   0.991920 0.175870 0.937430 -0.491375
O7    O     O_R   0.974010 0.342590 0.941330 -0.510190
O8    O     O_R   0.182630 0.317940 0.955040 -0.503025
O9    O     O_R   0.347320 0.174720 0.953250 -0.513311
O10   O     O_R   0.315290 0.993890 0.945900 -0.496228
O11   O     O_3   0.162730 0.163890 0.991180 -0.254991
O12   O     O_R   0.348600 0.476260 0.536540 -0.502669
O13   O     O_R   0.315310 0.685650 0.451800 -0.516469
O14   O     O_R   0.346220 0.474990 0.446280 -0.493232
O15   O     O_R   0.492270 0.312460 0.441630 -0.505282
O16   O     O_R   0.669740 0.350480 0.455640 -0.523212
O17   O     O_R   0.691150 0.501150 0.557860 -0.493694
O18   O     O_R   0.482790 0.673890 0.552920 -0.494448
O19   O     O_R   0.317880 0.687030 0.549170 -0.497059
O20   O     O_3   0.159815 0.530341 0.673214 -0.672538
O21   O     O_3   0.006765 0.120812 0.769462 -0.694025
O22   O     O_3   0.514900 0.835042 0.715502 -0.693007
O23   O     O_R   0.494840 0.313840 0.539010 -0.506112
O24   O     O_3   0.818549 0.492462 0.092130 -0.679835
O25   O     O_3   0.834150 0.497678 0.413143 -0.660007
O26   O     O_R   0.672120 0.351750 0.545910 -0.495746
O27   O     O_3   0.500010 0.500010 0.500010 -0.263153
O28   O     O_R   0.167510 0.972920 0.030390 -0.497476
O29   O     O_R   0.990840 0.178580 0.027590 -0.487613
O30   O     O_R   0.972840 0.345510 0.038590 -0.486846
O31   O     O_R   0.181550 0.320660 0.045200 -0.485523

loop_
_geom_bond_atom_site_label_1
_geom_bond_atom_site_label_2
_ccdc_geom_bond_type
C75   O29   A    
C81   O9    A    
C59   C60   S    
C28   O19   A    
C8    C13   A    
C55   C59   A    
C27   C29   A    
Cr2   O14   S    
C11   C13   A    
C11   H12   S    
C35   C36   A    
C51   C61   T    
C43   H3    S    
H25   O25   S    
Cr4   O5    S    
C55   O21   S    
C39   C41   A    
C38   C49   S    
C77   C78   S    
C27   C33   A    
C46   H7    S    
C12   C23   A    
Cr6   O9    S    
C29   C30   A    
C16   O16   A    
C18   C24   A    
C87   N4    T    
C62   C80   S    
C36   C37   A    
C8    H17   S    
C79   O28   A    
C30   C31   S    
C77   O31   A    
C3    C85   S    
C10   C17   A    
C80   O6    A    
C7    C89   A    
C29   H29   S    
C39   O20   S    
Cr6   O2    S    
C56   C78   T    
C60   C62   T    
C18   C19   A    
Cr4   O28   S    
Cr2   O27   S    
Cr1   O17   S    
C57   H14   S    
C20   H2    S    
C66   C71   A    
C45   C56   S    
C8    C9    A    
C47   C48   S    
C22   H27   S    
Cr5   O31   S    
Cr1   O1    S    
C19   C86   S    
C58   C61   S    
C28   O18   A    
C52   O17   A    
C13   C14   S    
Cr3   O16   S    
Cr5   O8    S    
C40   O23   A    
C45   C83   A    
C77   O2    A    
C74   C82   S    
Cr1   O18   S    
C16   O1    A    
C76   C83   A    
C44   H8    S    
C44   C46   A    
C65   C87   S    
Cr2   O12   S    
C54   C59   A    
C38   C39   A    
C21   C32   S    
C7    O25   S    
Cr3   O15   S    
C51   C52   S    
Cr5   O11   S    
C64   C67   T    
C2    H19   S    
C72   C74   T    
C68   C69   A    
C63   C73   T    
C25   C26   A    
C53   C54   A    
Cr6   O3    S    
C69   O22   S    
C36   H6    S    
Cr1   O27   S    
C2    C89   A    
Cr4   O29   S    
C6    H18   S    
C37   C38   A    
Cr2   O19   S    
C26   C33   A    
C31   C32   T    
C23   C34   A    
C4    O15   A    
C70   C73   S    
C1    C18   S    
C41   H5    S    
C86   N3    T    
C68   H15   S    
C66   C88   S    
Cr5   O30   S    
C9    C17   A    
C48   C49   T    
Cr6   O10   S    
C55   C57   A    
H22   O22   S    
Cr5   O7    S    
C22   C24   A    
C42   C43   A    
C83   H31   S    
H21   O21   S    
Cr2   O13   S    
C44   C50   A    
C25   C30   A    
C81   O8    A    
C79   O3    A    
C46   C47   A    
C52   O26   A    
H24   O24   S    
C33   C79   S    
C26   H23   S    
C12   C45   A    
C3    C5    A    
C34   C67   S    
C37   H9    S    
C53   C58   A    
C43   C50   A    
C6    C7    A    
C23   H16   S    
C4    C64   S    
C54   H13   S    
C75   O30   A    
C21   C22   A    
C19   C20   A    
C2    C3    A    
C71   C72   S    
C1    O13   A    
C42   H4    S    
C76   H1    S    
C12   H11   S    
Cr1   O4    S    
C27   H30   S    
C57   C58   A    
C5    C6    A    
C84   N1    T    
C68   C71   A    
C80   O7    A    
C4    O14   A    
C10   C84   S    
C35   C40   S    
C42   C47   A    
C24   H28   S    
C82   O5    A    
C69   C70   A    
C35   C41   A    
C5    C15   S    
Cr4   O6    S    
C10   C11   A    
C28   C63   S    
C53   H10   S    
C16   C89   S    
C20   C21   A    
C9    O24   S    
Cr6   O11   S    
C65   C66   A    
C40   O12   A    
H20   O20   S    
C17   C75   S    
C14   C15   T    
Cr3   O26   S    
C85   N2    T    
Cr3   O23   S    
C88   N5    T    
C1    O4    A    
C25   H26   S    
C82   O10   A    
Cr4   O11   S    
C65   C70   A    
C50   C81   S    
C34   C76   A    
Cr3   O27   S    
