data_mof_unit_36131.cif
_audit_creation_date              2012-12-11T15:29:14-0500
_audit_creation_method            fapswitch 2.2
_symmetry_space_group_name_H-M    P1
_symmetry_Int_Tables_number       1
_space_group_crystal_system       triclinic
_cell_length_a                    13.482901
_cell_length_b                    13.494725
_cell_length_c                    27.56749
_cell_angle_alpha                 90.658774
_cell_angle_beta                  90.145018
_cell_angle_gamma                 60.082157
_cell_volume                      4347.12883675

loop_
_atom_site_label
_atom_site_type_symbol
_atom_type_description
_atom_site_fract_x
_atom_site_fract_y
_atom_site_fract_z
_atom_type_partial_charge
C1    C     C_R   0.620428 0.101229 0.569860 0.542593
C2    C     C_1   0.649940 0.704388 0.657790 -0.056538
C3    C     C_3   0.090604 0.133252 0.737154 -0.101250
C4    C     C_R   0.599828 0.779220 0.568441 0.551198
C5    C     C_3   0.182467 0.059475 0.775112 -0.100388
C6    C     C_1   0.097595 0.199961 0.900253 -0.016197
C7    C     C_1   0.229704 0.137774 0.617080 -0.012929
C8    C     C_3   0.055597 0.241498 0.768765 -0.101341
C9    C     C_3   0.147890 0.167551 0.805871 0.052534
C10   C     C_3   0.144546 0.262142 0.742173 -0.098682
C11   C     C_3   0.179158 0.154184 0.711332 0.052553
C12   C     C_1   0.631489 0.731699 0.615894 -0.010798
C13   C     C_3   0.236370 0.188458 0.779979 -0.101975
C14   C     C_3   0.271481 0.080193 0.748413 -0.103440
C15   C     C_1   0.125364 0.180760 0.858176 -0.058676
C16   C     C_R   0.277797 0.121662 0.569384 0.548216
C17   C     C_1   0.201760 0.146617 0.659087 -0.057066
C18   C     C_3   0.627850 0.277050 0.739080 -0.101196
C19   C     C_3   0.554581 0.257189 0.776822 -0.099937
C20   C     C_1   0.691358 0.206566 0.901416 -0.015742
C21   C     C_1   0.635813 0.133358 0.617779 -0.014276
C22   C     C_3   0.736100 0.205362 0.770067 -0.101455
C23   C     C_3   0.699304 0.560822 0.766895 -0.101604
C24   C     C_3   0.662672 0.185230 0.806966 0.052627
C25   C     C_3   0.759010 0.095317 0.742505 -0.099061
C26   C     C_3   0.651014 0.167153 0.712295 0.052522
C27   C     C_3   0.685825 0.075406 0.780128 -0.102044
C28   C     C_R   0.621916 0.100210 0.431539 0.537454
C29   C     C_3   0.577549 0.147025 0.749170 -0.103249
C30   C     C_1   0.674291 0.195685 0.859312 -0.058511
C31   C     C_1   0.644149 0.152324 0.659940 -0.057497
C32   C     C_R   0.644472 0.710694 0.385126 0.041814
C33   C     C_R   0.745723 0.695251 0.362571 0.013039
C34   C     C_3   0.679547 0.654348 0.804377 0.052537
C35   C     C_R   0.754057 0.685948 0.312207 -0.143900
C36   C     C_R   0.670434 0.678176 0.284712 0.027730
C37   C     C_R   0.581134 0.673530 0.308401 -0.129899
C38   C     C_R   0.567460 0.690987 0.358078 -0.148578
C39   C     C_R   0.579746 0.714781 0.202769 -0.120391
C40   C     C_R   0.603476 0.773808 0.431243 0.566063
C41   C     C_R   0.588523 0.690497 0.153254 -0.132852
C42   C     C_R   0.795464 0.590108 0.159975 -0.127102
C43   C     C_R   0.786769 0.610200 0.209394 -0.123015
C44   C     C_R   0.678927 0.669690 0.231569 0.040373
C45   C     C_3   0.590215 0.648363 0.739854 -0.099212
C46   C     C_R   0.696600 0.624670 0.132046 0.023900
C47   C     C_R   0.224623 0.137465 0.383660 0.024650
C48   C     C_R   0.248392 0.041417 0.355013 -0.127278
C49   C     C_R   0.224015 0.053394 0.305871 -0.123348
C50   C     C_R   0.173036 0.161857 0.284866 0.036065
C51   C     C_R   0.140961 0.258947 0.314268 -0.117351
C52   C     C_R   0.278781 0.120078 0.431064 0.543693
C53   C     C_R   0.167479 0.246728 0.363396 -0.121550
C54   C     C_R   0.172570 0.252753 0.206637 -0.122467
C55   C     C_R   0.145901 0.270282 0.157587 -0.132410
C56   C     C_3   0.663809 0.682961 0.709938 0.052598
C57   C     C_R   0.094688 0.121566 0.158435 -0.126148
C58   C     C_R   0.119400 0.105508 0.207478 -0.122502
C59   C     C_R   0.155380 0.173177 0.232260 0.036402
C60   C     C_R   0.103012 0.207435 0.133604 0.022114
C61   C     C_R   0.641058 0.139436 0.385047 0.023246
C62   C     C_R   0.548573 0.231467 0.361877 -0.123372
C63   C     C_R   0.555974 0.251636 0.313159 -0.120202
C64   C     C_3   0.772777 0.595816 0.736190 -0.100515
C65   C     C_R   0.656605 0.181439 0.287088 0.036883
C66   C     C_R   0.752482 0.095926 0.311292 -0.119500
C67   C     C_3   0.570674 0.741424 0.778064 -0.102184
C68   C     C_R   0.744622 0.074629 0.359965 -0.126610
C69   C     C_R   0.716874 0.097431 0.204234 -0.119625
C70   C     C_R   0.728821 0.109671 0.154962 -0.127371
C71   C     C_R   0.618209 0.315941 0.164715 -0.127195
C72   C     C_R   0.607901 0.303742 0.214083 -0.121867
C73   C     C_R   0.660101 0.194471 0.234431 0.035062
C74   C     C_R   0.682648 0.219068 0.135245 0.023937
C75   C     C_R   0.049863 0.234808 0.947965 0.546003
C76   C     C_3   0.753267 0.688920 0.774536 -0.100152
C77   C     C_R   0.711957 0.561818 0.946410 0.545741
C78   C     C_3   0.644070 0.776498 0.747412 -0.103463
C79   C     C_R   0.722509 0.224038 0.949132 0.545261
C80   C     C_R   0.047801 0.243787 0.086367 0.540899
C81   C     C_R   0.709796 0.571705 0.084454 0.539313
C82   C     C_R   0.719857 0.233433 0.087483 0.540764
C83   C     C_1   0.697238 0.607339 0.898619 -0.016380
C84   C     C_2   0.844296 0.688542 0.389427 0.238219
C85   C     C_1   0.688251 0.633523 0.856582 -0.059050
Cr1   Cr    Cr6+3 0.417550 0.169090 0.500530 1.029036
Cr2   Cr    Cr6+3 0.669180 0.913420 0.499920 1.074347
Cr3   Cr    Cr6+3 0.413260 0.917540 0.499520 1.023494
Cr4   Cr    Cr6+3 0.909770 0.175810 0.018240 1.020212
Cr5   Cr    Cr6+3 0.913300 0.427650 0.016090 1.020033
Cr6   Cr    Cr6+3 0.657770 0.431010 0.016900 1.022029
H1    H     H_    0.819903 0.706035 0.789434 0.104552
H2    H     H_    0.801686 0.229340 0.779260 0.099470
H3    H     H_    0.855569 0.535759 0.718477 0.105384
H4    H     H_    0.495422 0.764532 0.218761 0.102524
H5    H     H_    0.511464 0.718314 0.132105 0.121389
H6    H     H_    0.825897 0.685727 0.294640 0.079815
H7    H     H_    0.864953 0.572263 0.230287 0.102158
H8    H     H_    0.880255 0.538001 0.144624 0.138093
H9    H     H_    0.519187 0.660614 0.288419 0.102579
H10   H     H_    0.491728 0.697221 0.374620 0.131386
H11   H     H_    0.293681 0.955904 0.369649 0.132123
H12   H     H_    0.296531 0.210719 0.798008 0.103461
H13   H     H_    0.203738 0.303448 0.224783 0.102789
H14   H     H_    0.153640 0.336517 0.139111 0.125145
H15   H     H_    0.621288 0.865553 0.738760 0.100412
H16   H     H_    0.250360 0.977086 0.283982 0.098686
H17   H     H_    0.104920 0.043950 0.226396 0.101347
H18   H     H_    0.061476 0.071911 0.140927 0.133402
H19   H     H_    0.098252 0.343885 0.299045 0.103587
H20   H     H_    0.148001 0.321888 0.384998 0.138348
H21   H     H_    0.467542 0.283117 0.380330 0.133787
H22   H     H_    0.754629 0.012153 0.218929 0.105710
H23   H     H_    0.128490 0.345611 0.728101 0.105838
H24   H     H_    0.778500 0.033934 0.132730 0.123643
H25   H     H_    0.480829 0.318070 0.295358 0.100942
H26   H     H_    0.563997 0.379903 0.236611 0.104652
H27   H     H_    0.487821 0.801477 0.795740 0.103352
H28   H     H_    0.583065 0.401400 0.150432 0.135529
H29   H     H_    0.832301 0.043094 0.292179 0.102248
H30   H     H_    0.817452 0.003855 0.377144 0.127940
H31   H     H_    0.523532 0.631221 0.725025 0.105165
H32   H     H_    0.721997 0.471790 0.775538 0.098877
H33   H     H_    0.198481 0.976091 0.789259 0.104453
H34   H     H_    0.966427 0.308206 0.777718 0.099459
H35   H     H_    0.030443 0.111063 0.719081 0.104106
H36   H     H_    0.360666 0.013577 0.739427 0.100296
H37   H     H_    0.901027 0.712456 0.371749 0.080877
H38   H     H_    0.470465 0.323348 0.791544 0.104585
H39   H     H_    0.604532 0.359660 0.721726 0.103722
H40   H     H_    0.512048 0.122951 0.739946 0.100350
H41   H     H_    0.709211 0.992733 0.797443 0.103430
H42   H     H_    0.843197 0.029126 0.727846 0.105135
O1    O     O_R   0.301780 0.195490 0.553940 -0.502726
O2    O     O_R   0.636050 0.541380 0.962520 -0.506987
O3    O     O_R   0.666480 0.323610 0.968170 -0.493929
O4    O     O_R   0.522450 0.158840 0.550250 -0.495328
O5    O     O_R   0.817280 0.156800 0.072180 -0.519969
O6    O     O_R   0.005110 0.187160 0.067410 -0.504577
O7    O     O_R   0.026450 0.340060 0.069950 -0.523765
O8    O     O_R   0.808300 0.527240 0.065170 -0.506908
O9    O     O_R   0.634070 0.548770 0.069460 -0.519428
O10   O     O_R   0.664650 0.330470 0.067300 -0.503958
O11   O     O_3   0.826940 0.344820 0.017080 -0.244815
O12   O     O_R   0.658840 0.818280 0.449970 -0.451946
O13   O     O_R   0.694460 0.003360 0.553820 -0.504960
O14   O     O_R   0.657750 0.819520 0.549120 -0.483165
O15   O     O_R   0.501990 0.803120 0.552700 -0.508856
O16   O     O_R   0.318230 0.023430 0.549370 -0.494728
O17   O     O_R   0.302950 0.194150 0.446980 -0.515101
O18   O     O_R   0.523540 0.157600 0.451100 -0.506544
O19   O     O_R   0.695630 0.002030 0.446860 -0.513894
O20   O     O_2   0.867167 0.649966 0.430357 -0.493866
O21   O     O_R   0.503160 0.801780 0.445740 -0.535827
O22   O     O_R   0.319320 0.022190 0.450230 -0.506068
O23   O     O_3   0.499990 0.000010 0.499990 -0.257184
O24   O     O_R   0.819250 0.149410 0.965240 -0.507216
O25   O     O_R   0.006940 0.180310 0.968270 -0.494308
O26   O     O_R   0.028420 0.332670 0.963010 -0.506332
O27   O     O_R   0.810130 0.520390 0.966030 -0.494173

loop_
_geom_bond_atom_site_label_1
_geom_bond_atom_site_label_2
_ccdc_geom_bond_type
C84   H37   S    
C66   C68   A    
C63   C65   A    
C1    C21   S    
C23   C45   S    
Cr2   O13   S    
C26   C29   S    
C27   C29   S    
Cr3   O16   S    
C35   C36   A    
C18   C26   S    
C43   H7    S    
C16   O1    A    
C3    H35   S    
C56   C78   S    
C6    C75   S    
C39   C41   A    
C20   C30   T    
C52   O22   A    
C5    C9    S    
C79   O3    A    
C21   C31   T    
C5    H33   S    
C69   H22   S    
C62   C63   A    
Cr2   O14   S    
C40   O12   A    
C55   H14   S    
C50   C59   S    
Cr3   O23   S    
C54   H13   S    
C36   C37   A    
C76   C78   S    
C38   H10   S    
Cr1   O17   S    
C11   C14   S    
C41   H5    S    
C77   C83   S    
C4    O15   A    
C65   C73   S    
C18   C19   S    
C42   C46   A    
Cr5   O26   S    
C49   C50   A    
Cr1   O23   S    
C9    C13   S    
Cr1   O4    S    
C6    C15   T    
Cr1   O1    S    
C57   H18   S    
Cr6   O3    S    
C45   C56   S    
C8    C9    S    
Cr4   O6    S    
C22   C25   S    
C72   H26   S    
C45   C67   S    
C41   C46   A    
C24   C27   S    
C69   C73   A    
C16   O16   A    
C32   C38   A    
C13   H12   S    
C25   H42   S    
C10   H23   S    
C47   C53   A    
Cr6   O9    S    
C55   C60   A    
C28   C61   S    
C53   H20   S    
C81   O8    A    
C2    C12   T    
C26   C31   S    
C66   H29   S    
C13   C14   S    
C27   H41   S    
C40   O21   A    
C1    O13   A    
C61   C62   A    
C67   C78   S    
C74   C82   S    
C67   H27   S    
Cr6   O10   S    
C54   C59   A    
Cr3   O15   S    
Cr3   O22   S    
C23   C64   S    
Cr4   O25   S    
C3    C11   S    
C49   H16   S    
C3    C8    S    
C72   C73   A    
C57   C60   A    
C23   H32   S    
C7    C17   T    
C25   C26   S    
C80   O7    A    
C4    O14   A    
C42   H8    S    
C14   H36   S    
C51   C53   A    
C34   C85   S    
Cr3   O21   S    
C34   C67   S    
C43   C44   A    
C70   C74   A    
C37   C38   A    
C46   C81   S    
C84   O20   D    
C47   C48   A    
C23   C34   S    
C48   H11   S    
C56   C64   S    
C50   C51   A    
C64   C76   S    
Cr6   O2    S    
C39   H4    S    
C5    C14   S    
C47   C52   S    
C76   H1    S    
C63   H25   S    
C75   O25   A    
C52   O17   A    
C81   O9    A    
C83   C85   T    
C65   C66   A    
C51   H19   S    
Cr2   O19   S    
C45   H31   S    
C22   H2    S    
C22   C24   S    
C36   C44   S    
C4    C12   S    
C42   C43   A    
C80   O6    A    
C1    O4    A    
Cr6   O11   S    
C75   O26   A    
C19   H38   S    
C54   C55   A    
C60   C80   S    
Cr2   O12   S    
C20   C79   S    
C18   C22   S    
C7    C16   S    
C82   O10   A    
C3    C5    S    
C10   C13   S    
C11   C17   S    
C68   H30   S    
C79   O24   A    
C71   C74   A    
Cr5   O7    S    
Cr4   O24   S    
C39   C44   A    
C70   H24   S    
C25   C27   S    
Cr4   O11   S    
C71   H28   S    
C78   H15   S    
C32   C33   A    
C28   O19   A    
C19   C24   S    
C58   C59   A    
C64   H3    S    
C71   C72   A    
C82   O5    A    
C2    C56   S    
Cr1   O18   S    
C61   C68   A    
C57   C58   A    
C29   H40   S    
C48   C49   A    
C33   C35   A    
C58   H17   S    
C32   C40   S    
Cr5   O27   S    
C69   C70   A    
C33   C84   S    
C24   C30   S    
Cr5   O8    S    
C18   H39   S    
C10   C11   S    
C77   O27   A    
C8    H34   S    
C62   H21   S    
C28   O18   A    
C8    C10   S    
Cr4   O5    S    
Cr2   O23   S    
C77   O2    A    
C35   H6    S    
C37   H9    S    
Cr5   O11   S    
C9    C15   S    
C34   C76   S    
C19   C29   S    
