data_mof_unit_8935.cif
_audit_creation_date              2012-12-11T16:23:18-0500
_audit_creation_method            fapswitch 2.2
_symmetry_space_group_name_H-M    P1
_symmetry_Int_Tables_number       1
_space_group_crystal_system       triclinic
_cell_length_a                    19.902521
_cell_length_b                    7.203598
_cell_length_c                    20.099591
_cell_angle_alpha                 89.936346
_cell_angle_beta                  98.555033
_cell_angle_gamma                 89.726042
_cell_volume                      2849.57300688

loop_
_atom_site_label
_atom_site_type_symbol
_atom_type_description
_atom_site_fract_x
_atom_site_fract_y
_atom_site_fract_z
_atom_type_partial_charge
O1    O     O_R   0.188410 0.619490 0.310050 -0.545740
O2    O     O_R   0.811590 0.380510 0.689950 -0.545281
O3    O     O_R   0.311590 0.119490 0.189950 -0.545164
O4    O     O_R   0.688410 0.880510 0.810050 -0.550923
O5    O     O_R   0.327280 0.288800 0.321740 -0.506342
O6    O     O_R   0.672720 0.711200 0.678260 -0.504631
O7    O     O_R   0.172720 0.788800 0.178260 -0.523506
O8    O     O_R   0.827280 0.211200 0.821740 -0.506712
C1    C     C_R   0.351728 0.456626 0.339041 0.736411
C2    C     C_R   0.648475 0.542804 0.661380 0.713680
C3    C     C_R   0.149264 0.957938 0.160234 0.713669
C4    C     C_R   0.851169 0.041917 0.838849 0.715737
O9    O     O_R   0.189900 0.289710 0.318190 -0.534971
O10   O     O_R   0.810100 0.710290 0.681810 -0.538702
O11   O     O_R   0.310100 0.789710 0.181810 -0.531614
O12   O     O_R   0.689900 0.210290 0.818190 -0.539681
O13   O     O_R   0.173230 0.120350 0.186370 -0.558983
O14   O     O_R   0.826770 0.879650 0.813630 -0.558699
O15   O     O_R   0.326770 0.620350 0.313630 -0.549174
O16   O     O_R   0.673230 0.379650 0.686370 -0.558080
C5    C     C_R   0.168335 0.459284 0.332571 0.685690
C6    C     C_R   0.831033 0.539786 0.666264 0.724983
C7    C     C_R   0.331308 0.958938 0.167128 0.690977
C8    C     C_R   0.669091 0.040226 0.833813 0.711734
O17   O     O_3   0.244690 0.453290 0.206760 -0.387333
O18   O     O_3   0.755310 0.546710 0.793240 -0.383506
O19   O     O_3   0.255310 0.953290 0.293240 -0.373279
O20   O     O_3   0.744690 0.046710 0.706760 -0.378121
V1    V     V_3+5 0.250980 0.178070 0.258020 1.453448
V2    V     V_3+5 0.749020 0.821930 0.741980 1.470610
V3    V     V_3+5 0.249020 0.678070 0.241980 1.446779
V4    V     V_3+5 0.750980 0.321930 0.758020 1.474178
C9    C     C_R   0.481878 0.097834 0.077984 0.480480
C10   C     C_R   0.540194 0.839583 0.940475 0.488247
C11   C     C_R   0.013184 0.579843 0.418651 0.461071
C12   C     C_R   0.960011 0.336046 0.559494 0.474362
C13   C     C_R   0.436496 0.096381 0.126270 -0.127572
C14   C     C_R   0.595687 0.849166 0.903949 -0.124963
C15   C     C_R   0.058808 0.582200 0.370547 -0.152996
C16   C     C_R   0.905009 0.346663 0.596690 -0.129304
C17   C     C_R   0.380134 0.972573 0.117743 -0.169605
C18   C     C_R   0.617050 0.023614 0.880834 -0.172710
C19   C     C_R   0.119490 0.472931 0.382046 -0.163956
C20   C     C_R   0.883167 0.521800 0.619260 -0.168317
C21   C     C_R   0.367505 0.867680 0.058565 -0.128816
C22   C     C_R   0.585906 0.183836 0.901728 -0.146071
C23   C     C_R   0.134823 0.376258 0.443042 -0.142858
C24   C     C_R   0.913533 0.681408 0.597401 -0.146027
H1    H     H_    0.323585 0.777801 0.049784 0.139069
H2    H     H_    0.599732 0.317960 0.884870 0.159459
H3    H     H_    0.181263 0.295436 0.453491 0.141801
H4    H     H_    0.899234 0.815839 0.613692 0.160829
C25   C     C_R   0.408759 0.884004 0.008417 -0.121279
C26   C     C_R   0.537730 0.173869 0.945700 -0.145062
C27   C     C_R   0.092704 0.389177 0.492604 -0.132882
C28   C     C_R   0.961296 0.670278 0.552988 -0.150496
H5    H     H_    0.394249 0.809317 0.962110 0.151277
H6    H     H_    0.518389 0.300829 0.964196 0.215449
H7    H     H_    0.108785 0.321587 0.540291 0.145642
H8    H     H_    0.979684 0.796500 0.533240 0.210334
C29   C     C_R   0.467065 0.995689 0.017616 -0.006835
C30   C     C_R   0.514248 0.002618 0.965927 -0.033752
C31   C     C_R   0.031430 0.489448 0.481203 0.006204
C32   C     C_R   0.985264 0.498428 0.533550 -0.033458
C33   C     C_R   0.088808 0.959705 0.105498 -0.223799
C34   C     C_R   0.912629 0.038083 0.891656 -0.211290
C35   C     C_R   0.412771 0.453861 0.393783 -0.206474
C36   C     C_R   0.587245 0.542020 0.608047 -0.216013
C37   C     C_R   0.020895 0.178898 0.938175 -0.196183
C38   C     C_R   0.981031 0.818335 0.057435 -0.185857
C39   C     C_R   0.488768 0.711294 0.550185 -0.210650
C40   C     C_R   0.509317 0.281755 0.454710 -0.217127
C41   C     C_R   0.965864 0.163577 0.886324 0.442614
C42   C     C_R   0.037671 0.825195 0.107720 0.453976
C43   C     C_R   0.540399 0.691547 0.605050 0.443700
C44   C     C_R   0.456845 0.295862 0.399457 0.459139
C45   C     C_R   0.916276 0.925589 0.950021 -0.108143
C46   C     C_R   0.085418 0.073742 0.047167 -0.106168
C47   C     C_R   0.577668 0.405465 0.556772 -0.106981
C48   C     C_R   0.423441 0.594119 0.444189 -0.109856
C49   C     C_R   0.974375 0.935982 0.001176 0.036701
C50   C     C_R   0.027522 0.063213 0.995353 0.044240
C51   C     C_R   0.522018 0.421412 0.503255 0.054162
C52   C     C_R   0.477853 0.576936 0.498960 0.036501
H9    H     H_    0.057961 0.284924 0.932811 0.177664
H10   H     H_    0.942671 0.716176 0.062929 0.175107
H11   H     H_    0.457068 0.833973 0.548950 0.171583
H12   H     H_    0.539482 0.156767 0.461322 0.146225
O21   O     O_3   0.540924 0.201147 0.089620 -0.526987
C53   C     C_3   0.593228 0.087542 0.123169 -0.081270
H13   H     H_    0.603492 0.966305 0.091824 0.137538
H14   H     H_    0.581221 0.039672 0.172744 0.116234
H15   H     H_    0.640520 0.170335 0.132742 0.180923
O22   O     O_3   0.512283 0.669715 0.952739 -0.534918
C54   C     C_3   0.472316 0.608999 0.892473 -0.330260
H16   H     H_    0.504509 0.542818 0.858543 0.120143
H17   H     H_    0.441633 0.722704 0.864873 0.120785
H18   H     H_    0.435802 0.503604 0.905193 0.175788
O23   O     O_3   0.952273 0.676475 0.406104 -0.534829
C55   C     C_3   0.900146 0.550616 0.381943 -0.052282
H19   H     H_    0.890955 0.449835 0.421470 0.128248
H20   H     H_    0.911396 0.474927 0.336555 0.145934
H21   H     H_    0.852392 0.630198 0.367239 0.174269
O24   O     O_3   0.987227 0.165828 0.545653 -0.538441
C56   C     C_3   0.028647 0.101174 0.604621 -0.327756
H22   H     H_    0.997474 0.031637 0.638586 0.121846
H23   H     H_    0.059365 0.212936 0.632757 0.120577
H24   H     H_    0.065132 0.997368 0.590093 0.176635
C57   C     C_2   0.449327 0.222142 0.185519 0.401602
H25   H     H_    0.425931 0.196835 0.229564 0.099576
O25   O     O_2   0.485359 0.358839 0.185451 -0.492291
C58   C     C_2   0.632683 0.674977 0.895521 0.486403
H26   H     H_    0.631140 0.613382 0.846102 0.010536
O26   O     O_2   0.664581 0.597911 0.944507 -0.494260
C59   C     C_2   0.042669 0.701190 0.309591 0.476009
H27   H     H_    0.082425 0.756500 0.284482 0.090955
O27   O     O_2   0.984240 0.743038 0.286878 -0.479788
C60   C     C_2   0.868502 0.173288 0.605908 0.493664
H28   H     H_    0.871308 0.111185 0.655442 0.012467
O28   O     O_2   0.835170 0.098307 0.557528 -0.492575
C61   C     C_2   0.145343 0.188390 0.038073 0.323741
H29   H     H_    0.169709 0.275392 0.078361 0.077710
O29   O     O_2   0.169925 0.180309 0.985997 -0.529326
C62   C     C_2   0.857430 0.806558 0.958794 0.392344
H30   H     H_    0.837923 0.706857 0.920494 0.090669
O30   O     O_2   0.829205 0.822908 0.008421 -0.496798
C63   C     C_2   0.375396 0.752782 0.441686 0.363354
H31   H     H_    0.371196 0.851222 0.400427 0.116110
O31   O     O_2   0.339612 0.772678 0.485528 -0.530384
C64   C     C_2   0.628009 0.252607 0.556917 0.405892
H32   H     H_    0.635266 0.152565 0.597733 0.101745
O32   O     O_2   0.661673 0.238237 0.511106 -0.503341
O33   O     O_3   0.041566 0.704408 0.161713 -0.548477
C65   C     C_3   0.051352 0.521156 0.139911 -0.171340
H33   H     H_    0.091629 0.513065 0.107048 0.107490
H34   H     H_    0.003122 0.462088 0.113685 0.136674
H35   H     H_    0.068133 0.433332 0.184725 0.146219
O34   O     O_3   0.962160 0.283548 0.832133 -0.547034
C66   C     C_3   0.993940 0.198195 0.781888 -0.265518
H36   H     H_    0.968003 0.066881 0.764053 0.106149
H37   H     H_    0.048800 0.171681 0.799871 0.154388
H38   H     H_    0.990451 0.293707 0.738157 0.150126
O35   O     O_3   0.442889 0.152062 0.352707 -0.563010
C67   C     C_3   0.498863 0.035558 0.346280 -0.287984
H39   H     H_    0.507234 0.933305 0.388136 0.147783
H40   H     H_    0.545543 0.116648 0.342215 0.175142
H41   H     H_    0.486756 0.953821 0.299337 0.151121
O36   O     O_3   0.547092 0.828525 0.653741 -0.550335
C68   C     C_3   0.513207 0.770483 0.706927 -0.251469
H42   H     H_    0.536033 0.640975 0.730922 0.099782
H43   H     H_    0.457941 0.750969 0.689481 0.147329
H44   H     H_    0.518572 0.880105 0.746067 0.148986

loop_
_geom_bond_atom_site_label_1
_geom_bond_atom_site_label_2
_ccdc_geom_bond_type
O17   V3    S    
C16   C60   S    
O1    C5    A    
C27   H7    S    
O19   V1    S    
O13   V1    S    
O3    C7    A    
C54   H16   S    
C10   C30   A    
C40   C44   A    
O15   V3    S    
C65   H35   S    
C58   O26   D    
C49   C50   A    
C54   H18   S    
C36   C43   A    
O7    C3    A    
C56   H23   S    
C1    C35   S    
O9    V1    S    
C14   C18   A    
C24   H4    S    
C57   O25   D    
O16   V4    S    
C11   C15   A    
O4    C8    A    
C66   H38   S    
C41   O34   S    
O35   C67   S    
C42   O33   S    
O1    V3    S    
C8    C18   S    
O2    V4    S    
C18   C22   A    
O3    V1    S    
C46   C61   S    
C60   H28   S    
O24   C56   S    
C37   C50   A    
C5    C19   S    
C25   C29   A    
C1    O15   A    
C6    C20   S    
O23   C55   S    
C2    O16   A    
C59   O27   D    
C27   C31   A    
C38   C42   A    
C28   C32   A    
C37   C41   A    
O14   V2    S    
C21   H1    S    
C13   C57   S    
C48   C52   A    
C36   C47   A    
O11   C7    A    
C23   C27   A    
C21   C25   A    
O12   C8    A    
O22   C54   S    
O10   V2    S    
C67   H41   S    
C11   O23   S    
C58   H26   S    
C40   H12   S    
O5    V1    S    
C15   C19   A    
C56   H24   S    
O7    V3    S    
O8    V4    S    
C12   C16   A    
O36   C68   S    
C67   H40   S    
C68   H44   S    
C25   H5    S    
O18   V4    S    
C23   H3    S    
C26   C30   A    
C47   C64   S    
C4    C34   S    
C55   H21   S    
C9    C13   A    
C33   C42   A    
C28   H8    S    
C64   O32   D    
C63   O31   D    
O5    C1    A    
C9    O21   S    
C46   C50   A    
C53   H14   S    
C51   C52   A    
C45   C49   A    
O8    C4    A    
C22   C26   A    
C55   H20   S    
O9    C5    A    
C66   H37   S    
C61   H29   S    
C39   H11   S    
O6    V2    S    
C15   C59   S    
O33   C65   S    
C14   C58   S    
C63   H31   S    
C38   H10   S    
C37   H9    S    
C53   H15   S    
C62   O30   D    
C39   C52   A    
C26   H6    S    
C24   C28   A    
C34   C45   A    
C3    O13   A    
C33   C46   A    
C10   C14   A    
C3    C33   S    
C35   C48   A    
C10   O22   S    
C67   H39   S    
O6    C2    A    
C65   H34   S    
C66   H36   S    
C54   H17   S    
O11   V3    S    
C65   H33   S    
C48   C63   S    
C2    C36   S    
C43   O36   S    
O12   V4    S    
C56   H22   S    
C22   H2    S    
C7    C17   S    
C12   O24   S    
O2    C6    A    
O10   C6    A    
C68   H43   S    
C64   H32   S    
C45   C62   S    
C12   C32   A    
C68   H42   S    
C39   C43   A    
C34   C41   A    
C53   H13   S    
O20   V2    S    
C55   H19   S    
C13   C17   A    
C29   C30   S    
C60   O28   D    
C61   O29   D    
C40   C51   A    
O34   C66   S    
C31   C32   S    
C47   C51   A    
C44   O35   S    
C20   C24   A    
C16   C20   A    
C9    C29   A    
C4    O14   A    
C17   C21   A    
C11   C31   A    
C35   C44   A    
C38   C49   A    
O21   C53   S    
C57   H25   S    
C19   C23   A    
O4    V2    S    
C59   H27   S    
C62   H30   S    
