data_mof_unit_55024.cif
_audit_creation_date              2012-12-10T18:15:12-0500
_audit_creation_method            fapswitch 2.2
_symmetry_space_group_name_H-M    P1
_symmetry_Int_Tables_number       1
_space_group_crystal_system       triclinic
_cell_length_a                    12.585268
_cell_length_b                    13.120696
_cell_length_c                    23.233308
_cell_angle_alpha                 90.668315
_cell_angle_beta                  103.169953
_cell_angle_gamma                 82.239723
_cell_volume                      3700.61617417

loop_
_atom_site_label
_atom_site_type_symbol
_atom_type_description
_atom_site_fract_x
_atom_site_fract_y
_atom_site_fract_z
_atom_type_partial_charge
C1    C     C_R   0.438575 0.691311 0.490702 0.844120
C2    C     C_R   0.340720 0.698085 0.008873 -0.170056
C3    C     C_R   0.346086 0.698668 0.949760 -0.167561
C4    C     C_R   0.433410 0.639309 0.931391 -0.005148
C5    C     C_R   0.518799 0.581741 0.973228 -0.027477
C6    C     C_R   0.608340 0.523046 0.955278 -0.065822
C7    C     C_R   0.695688 0.469574 0.998836 -0.011306
C8    C     C_R   0.686759 0.467902 0.057670 -0.206969
C9    C     C_R   0.435407 0.633109 0.871714 0.518232
C10   C     C_R   0.603078 0.516130 0.894157 0.480625
C11   C     C_R   0.578053 0.596256 0.764912 -0.104902
C12   C     C_R   0.501127 0.501073 0.610937 0.928777
C13   C     C_R   0.574793 0.577847 0.705930 -0.272833
C14   C     C_R   0.502104 0.514168 0.673793 -0.138470
C15   C     C_R   0.431277 0.468293 0.701923 0.316148
C16   C     C_R   0.434172 0.488008 0.761904 -0.051320
C17   C     C_R   0.508495 0.552004 0.792961 0.235912
C18   C     C_R   0.533014 0.620375 0.251477 0.450838
C19   C     C_R   0.537611 0.599350 0.310199 -0.261611
C20   C     C_R   0.491470 0.515798 0.326381 -0.155512
C21   C     C_R   0.438052 0.452201 0.282763 -0.068499
C22   C     C_R   0.433667 0.473587 0.222788 -0.059563
C23   C     C_R   0.561220 0.308602 0.505846 0.871587
C24   C     C_R   0.482579 0.557128 0.207815 0.172218
C25   C     C_R   0.704758 0.063743 0.459759 -0.136847
C26   C     C_R   0.596941 0.199860 0.500529 -0.046222
C27   C     C_R   0.298021 0.839595 0.495630 -0.173558
C28   C     C_R   0.268628 0.944932 0.498972 -0.127742
C29   C     C_R   0.342937 0.011688 0.493521 -0.171284
C30   C     C_R   0.446723 0.973610 0.481753 0.080462
C31   C     C_R   0.467666 0.869134 0.468608 0.017500
C32   C     C_R   0.530449 0.035652 0.482726 0.004200
C33   C     C_R   0.624684 0.998662 0.460475 0.047116
C34   C     C_R   0.498411 0.500730 0.389257 0.874238
C35   C     C_R   0.634938 0.898629 0.438576 0.355634
C36   C     C_R   0.557143 0.835105 0.442810 -0.237773
C37   C     C_R   0.523387 0.133334 0.506507 -0.209381
C38   C     C_R   0.689681 0.164748 0.478620 -0.234214
C39   C     C_R   0.399015 0.801027 0.482382 -0.085318
C40   C     C_R   0.089014 0.342276 0.420897 -0.294548
C41   C     C_R   0.799584 0.631549 0.568585 0.039842
C42   C     C_R   0.904038 0.661260 0.582402 -0.224779
C43   C     C_R   0.985468 0.611738 0.556263 -0.155577
C44   C     C_R   0.962473 0.531589 0.516006 0.026212
C45   C     C_R   0.583932 0.516055 0.132971 0.569537
C46   C     C_R   0.854602 0.504087 0.503548 0.249279
C47   C     C_R   0.041728 0.477696 0.487844 -0.009821
C48   C     C_R   0.011824 0.397259 0.448398 0.195470
C49   C     C_R   0.905415 0.372003 0.437001 -0.266687
C50   C     C_R   0.828112 0.424822 0.464147 -0.193618
C51   C     C_R   0.150339 0.499714 0.497260 0.010135
C52   C     C_R   0.195116 0.367273 0.432653 0.015011
C53   C     C_R   0.415608 0.631704 0.109658 0.556777
C54   C     C_R   0.422539 0.638072 0.050615 -0.015742
C55   C     C_R   0.512708 0.580985 0.032944 -0.018390
C56   C     C_R   0.595290 0.521314 0.074731 -0.033520
H1    H     H_    0.271186 0.743044 0.021498 0.188341
H2    H     H_    0.577875 0.648700 0.343479 0.202799
H3    H     H_    0.747470 0.216159 0.473585 0.152474
H4    H     H_    0.776892 0.038693 0.442680 0.195046
H5    H     H_    0.458296 0.161290 0.528283 0.165609
H6    H     H_    0.243220 0.788289 0.505022 0.156863
H7    H     H_    0.316049 0.092663 0.497200 0.139952
H8    H     H_    0.189972 0.974745 0.508352 0.154259
H9    H     H_    0.280262 0.743889 0.918324 0.188415
H10   H     H_    0.566801 0.758930 0.424933 0.192405
H11   H     H_    0.256761 0.324879 0.412762 0.154505
H12   H     H_    0.881715 0.310837 0.406989 0.156637
H13   H     H_    0.067725 0.280330 0.391026 0.147306
H14   H     H_    0.180820 0.559109 0.526228 0.124760
H15   H     H_    0.735785 0.669985 0.588579 0.133671
H16   H     H_    0.065060 0.637710 0.568506 0.138097
H17   H     H_    0.921835 0.722589 0.613202 0.154226
H18   H     H_    0.748129 0.401509 0.453561 0.204749
H19   H     H_    0.752601 0.425040 0.090333 0.191029
H20   H     H_    0.634994 0.645133 0.789138 0.150275
H21   H     H_    0.628986 0.614764 0.685264 0.175178
N1    N     N_R   0.494204 0.569271 0.148747 -0.330821
N2    N     N_R   0.516865 0.569298 0.854480 -0.343276
N3    N     N_R   0.222200 0.444670 0.469780 -0.102186
N4    N     N_R   0.776960 0.554790 0.529910 -0.128751
O1    O     O_R   0.366740 0.627150 0.485570 -0.619529
O2    O     O_2   0.330771 0.686094 0.127854 -0.562344
O3    O     O_2   0.355209 0.688040 0.830852 -0.574383
O4    O     O_2   0.679857 0.453378 0.873809 -0.557996
O5    O     O_R   0.544830 0.662520 0.504870 -0.619665
O6    O     O_R   0.410930 0.482340 0.574190 -0.561598
O7    O     O_R   0.589010 0.517710 0.593490 -0.626995
O8    O     O_R   0.455170 0.337480 0.495130 -0.608463
O9    O     O_R   0.633260 0.372850 0.514430 -0.635797
O10   O     O_R   0.410990 0.482290 0.406510 -0.601522
O11   O     O_R   0.589070 0.517660 0.425810 -0.634206
O12   O     O_2   0.661151 0.457496 0.173607 -0.561578
Zn1   Zn    Zn3+2 0.381090 0.476380 0.487110 0.981087
Zn2   Zn    Zn3+2 0.618910 0.523620 0.512890 0.941609
C57   C     C_R   0.393773 0.360302 0.299395 0.144159
C58   C     C_R   0.465581 0.277655 0.330578 -0.159626
C59   C     C_R   0.424804 0.188585 0.343179 -0.107614
C60   C     C_R   0.312313 0.181586 0.325201 -0.129363
C61   C     C_R   0.240272 0.263754 0.294428 -0.162977
C62   C     C_R   0.280678 0.352987 0.281638 -0.107063
H22   H     H_    0.553157 0.281587 0.344183 0.122573
H23   H     H_    0.480573 0.124541 0.366279 0.156847
H24   H     H_    0.281018 0.112546 0.335131 0.148174
H25   H     H_    0.153109 0.258388 0.280603 0.148032
H26   H     H_    0.224169 0.416025 0.257597 0.139949
C63   C     C_R   0.384764 0.405691 0.175561 0.110684
C64   C     C_R   0.282489 0.438969 0.137435 -0.160984
C65   C     C_R   0.237177 0.375622 0.092252 -0.141732
C66   C     C_R   0.293548 0.278740 0.084942 -0.111118
C67   C     C_R   0.395280 0.244997 0.122953 -0.126114
C68   C     C_R   0.440908 0.308204 0.168199 -0.101402
H27   H     H_    0.237800 0.513606 0.142897 0.174077
H28   H     H_    0.158347 0.401680 0.062992 0.147884
H29   H     H_    0.258352 0.229812 0.049896 0.126728
H30   H     H_    0.438858 0.169947 0.117289 0.149166
H31   H     H_    0.519979 0.281622 0.197267 0.156084
Cl1   Cl    Cl    0.745267 0.847765 0.407053 -0.595426
C69   C     C_R   0.799205 0.416982 0.985908 0.183610
C70   C     C_R   0.872617 0.474197 0.967474 -0.062435
C71   C     C_R   0.971527 0.424632 0.956625 -0.152137
C72   C     C_R   0.998256 0.318060 0.964745 -0.126725
C73   C     C_R   0.926170 0.260860 0.983695 -0.111239
C74   C     C_R   0.827031 0.310036 0.994408 -0.140188
H32   H     H_    0.853049 0.556905 0.961492 0.122884
H33   H     H_    0.027758 0.468856 0.942249 0.131648
H34   H     H_    0.075115 0.279830 0.956738 0.117736
H35   H     H_    0.947232 0.178417 0.990202 0.137189
H36   H     H_    0.771880 0.264957 0.009180 0.131287
Cl2   Cl    Cl    0.344866 0.380754 0.664562 -0.617044
C75   C     C_R   0.360107 0.442491 0.792567 0.158362
C76   C     C_R   0.403230 0.367916 0.837706 -0.139256
C77   C     C_R   0.333576 0.328981 0.868475 -0.136777
C78   C     C_R   0.220596 0.363846 0.854219 -0.109286
C79   C     C_R   0.177039 0.437593 0.809116 -0.135100
C80   C     C_R   0.246456 0.476924 0.778341 -0.035767
H37   H     H_    0.490605 0.340343 0.849166 0.163323
H38   H     H_    0.367200 0.271906 0.903435 0.138825
H39   H     H_    0.166805 0.333719 0.878080 0.126687
H40   H     H_    0.089558 0.464638 0.798201 0.140572
H41   H     H_    0.212040 0.534978 0.743956 0.149005
Cl3   Cl    Cl    0.595510 0.724103 0.233506 -0.534097

loop_
_geom_bond_atom_site_label_1
_geom_bond_atom_site_label_2
_ccdc_geom_bond_type
C55   C56   A    
C29   H7    S    
C10   O4    S    
C43   H16   S    
O1    Zn1   S    
C49   H12   S    
C41   C42   A    
C72   H34   S    
C35   C36   A    
C45   O12   S    
C8    C56   A    
C58   C59   A    
C2    H1    S    
C79   C80   A    
C53   C54   A    
C61   H25   S    
C80   H41   S    
C18   C24   A    
C5    C6    A    
C21   C22   A    
C28   C29   A    
C11   H20   S    
C50   H18   S    
C68   H31   S    
N4    Zn2   S    
C36   H10   S    
C59   H23   S    
O6    Zn1   S    
C17   N2    S    
C64   C65   A    
C18   C19   A    
C9    N2    A    
C23   C26   S    
O8    Zn1   S    
C16   C75   S    
C34   O10   A    
C51   N3    A    
C67   C68   A    
C45   C56   A    
C27   C39   A    
C16   C17   A    
C63   C64   A    
C23   O8    A    
C67   H30   S    
C51   H14   S    
C58   H22   S    
C44   C47   A    
C41   H15   S    
C20   C34   S    
C60   H24   S    
O7    Zn2   S    
C77   H38   S    
C13   C14   A    
C3    H9    S    
C44   C46   A    
C19   H2    S    
C79   H40   S    
C13   H21   S    
C40   H13   S    
C12   O7    A    
C7    C69   S    
C73   C74   A    
C75   C80   A    
C2    C54   A    
C78   H39   S    
C70   H32   S    
C26   C38   A    
C47   C51   A    
C76   H37   S    
C69   C74   A    
O11   Zn2   S    
C66   C67   A    
C64   H27   S    
C43   C44   A    
C29   C30   A    
C27   H6    S    
C25   C38   A    
C46   N4    A    
C47   C48   A    
C18   Cl3   S    
C69   C70   A    
C41   N4    A    
C57   C58   A    
C23   O9    A    
C63   C68   A    
C32   C37   A    
C71   C72   A    
C45   N1    A    
C52   H11   S    
C65   H28   S    
C28   H8    S    
C24   N1    S    
C48   C49   A    
C25   H4    S    
C12   C14   S    
C49   C50   A    
C77   C78   A    
C22   C24   A    
C42   C43   A    
N3    Zn1   S    
C3    C4    A    
C70   C71   A    
C62   H26   S    
C40   C48   A    
C54   C55   A    
C11   C17   A    
C42   H17   S    
C12   O6    A    
C31   C36   A    
C52   N3    A    
C5    C55   A    
C4    C5    A    
O9    Zn2   S    
C6    C10   A    
C37   H5    S    
C10   N2    A    
C26   C37   A    
C6    C7    A    
C21   C57   S    
C46   C50   A    
C78   C79   A    
C60   C61   A    
C53   O2    S    
C32   C33   A    
C19   C20   A    
C2    C3    A    
C1    O1    A    
C71   H33   S    
C40   C52   A    
C65   C66   A    
O10   Zn1   S    
C30   C32   A    
C11   C13   A    
C73   H35   S    
C30   C31   A    
C15   Cl2   S    
C15   C16   A    
C61   C62   A    
C33   C35   A    
C31   C39   A    
C74   H36   S    
C76   C77   A    
C8    H19   S    
C75   C76   A    
C34   O11   A    
C7    C8    A    
O5    Zn2   S    
C1    C39   S    
C9    O3    S    
C53   N1    A    
C38   H3    S    
C1    O5    A    
C20   C21   A    
C59   C60   A    
C27   C28   A    
C72   C73   A    
C14   C15   A    
C35   Cl1   S    
C4    C9    A    
C57   C62   A    
C66   H29   S    
C22   C63   S    
C25   C33   A    
