data_mof_unit_22023.cif
_audit_creation_date              2012-12-11T18:07:16-0500
_audit_creation_method            fapswitch 2.2
_symmetry_space_group_name_H-M    P1
_symmetry_Int_Tables_number       1
_space_group_crystal_system       triclinic
_cell_length_a                    8.241992
_cell_length_b                    12.671722
_cell_length_c                    26.937538
_cell_angle_alpha                 96.722922
_cell_angle_beta                  92.972905
_cell_angle_gamma                 81.499302
_cell_volume                      2761.61187739

loop_
_atom_site_label
_atom_site_type_symbol
_atom_type_description
_atom_site_fract_x
_atom_site_fract_y
_atom_site_fract_z
_atom_type_partial_charge
Ba1   Ba    Ba6+2 0.859560 0.448380 0.523550 1.654877
Ba2   Ba    Ba6+2 0.330270 0.551530 0.476440 1.664577
C1    C     C_3   0.559925 0.098199 0.665940 -0.352624
C2    C     C_R   0.961652 0.613798 0.184621 0.602339
C3    C     C_2   0.768712 0.581482 0.272949 -0.094710
C4    C     C_3   0.064550 0.200857 0.656164 0.715476
C5    C     C_3   0.740858 0.612886 0.328231 -0.100159
C6    C     C_1   0.986486 0.483473 0.343794 0.042000
C7    C     C_2   0.026946 0.472736 0.295976 -0.080746
C8    C     C_2   0.912204 0.523423 0.257477 0.224979
C9    C     C_R   0.038756 0.514007 0.104037 -0.080566
C10   C     C_R   0.040647 0.417855 0.125811 -0.032329
C11   C     C_R   0.081409 0.320036 0.096080 -0.062438
C12   C     C_3   0.589947 0.196396 0.642140 0.289265
C13   C     C_R   0.999623 0.612476 0.133925 -0.026661
C14   C     C_2   0.853807 0.545207 0.361480 -0.250077
C15   C     C_2   0.349274 0.478622 0.641822 -0.247616
C16   C     C_3   0.035618 0.148650 0.702629 -0.316149
C17   C     C_R   0.160777 0.410217 0.971680 0.019267
C18   C     C_R   0.099359 0.607767 0.978876 0.020271
C19   C     C_R   0.147873 0.508115 0.949718 0.050468
C20   C     C_R   0.215010 0.313695 0.941290 -0.098061
C21   C     C_R   0.252165 0.313191 0.891293 -0.061004
C22   C     C_R   0.236802 0.408716 0.868902 -0.038960
C23   C     C_3   0.483415 0.723488 0.628199 0.297022
C24   C     C_R   0.183899 0.506446 0.898016 -0.078654
C25   C     C_R   0.167018 0.602590 0.875415 -0.031979
C26   C     C_R   0.203305 0.599915 0.824391 0.582082
C27   C     C_R   0.273887 0.408538 0.818026 0.604573
C28   C     C_3   0.219268 0.220932 0.414900 0.293963
C29   C     C_2   0.456124 0.480135 0.729991 -0.077178
C30   C     C_3   0.497300 0.488438 0.676155 -0.080228
C31   C     C_1   0.206025 0.526104 0.657682 0.078722
C32   C     C_2   0.166667 0.530729 0.705260 -0.030314
C33   C     C_2   0.298063 0.503057 0.744284 0.222908
C34   C     C_3   0.454946 0.767168 0.682585 -0.369712
C35   C     C_R   0.119800 0.411942 0.022929 0.020378
C36   C     C_R   0.076125 0.511867 0.052415 0.050206
C37   C     C_R   0.069286 0.609828 0.030870 0.020157
C38   C     C_R   0.120134 0.316947 0.046020 -0.099025
C39   C     C_R   0.999728 0.708166 0.112676 -0.055086
C40   C     C_3   0.249773 0.100729 0.399261 -0.375489
C41   C     C_R   0.081088 0.702380 0.954614 -0.101276
C42   C     C_R   0.114151 0.699649 0.904253 -0.060982
C43   C     C_R   0.033617 0.707080 0.062518 -0.100743
C44   C     C_R   0.754204 0.819086 0.476974 -0.257271
C45   C     C_3   0.947624 0.861421 0.343552 0.287874
C46   C     C_R   0.429598 0.188114 0.516877 -0.308805
C47   C     C_R   0.404950 0.008519 0.532342 -0.095487
C48   C     C_R   0.340999 0.116268 0.534224 0.018048
C49   C     C_R   0.574403 0.151598 0.491979 0.066115
C50   C     C_R   0.636582 0.040275 0.485939 -0.051763
C51   C     C_R   0.551650 0.968453 0.507764 -0.066039
C52   C     C_3   0.975720 0.776261 0.580587 0.292160
C53   C     C_R   0.614568 0.858333 0.503901 0.062180
C54   C     C_R   0.842167 0.888637 0.457265 -0.035665
C55   C     C_R   0.782175 0.998376 0.460321 -0.087390
C56   C     C_3   0.983753 0.895030 0.293423 -0.303916
C57   C     C_3   0.940323 0.897150 0.594145 -0.385446
C58   C     C_3   0.696608 0.314811 0.376213 0.296912
C59   C     C_3   0.712341 0.286812 0.320036 -0.361741
C60   C     C_3   0.362801 0.969868 0.241609 0.285776
C61   C     C_3   0.245686 0.969461 0.196036 -0.324629
C62   C     C_3   0.459252 0.826124 0.336260 0.429980
C63   C     C_3   0.536116 0.860714 0.291516 0.273906
C64   C     C_R   0.999967 0.421518 0.176701 0.590641
H1    H     H_    0.670495 0.168702 0.609907 0.027047
H2    H     H_    0.812476 0.340072 0.392423 0.009644
H3    H     H_    0.594927 0.381860 0.383106 0.089813
H4    H     H_    0.502555 0.042310 0.637928 0.104642
H5    H     H_    0.818812 0.223238 0.312191 0.125918
H6    H     H_    0.730665 0.358746 0.302409 0.078469
H7    H     H_    0.598790 0.257620 0.303380 0.126306
H8    H     H_    0.469696 0.237137 0.628624 -0.000072
H9    H     H_    0.476977 0.122704 0.697717 0.142765
H10   H     H_    0.365795 0.701388 0.611229 0.025284
H11   H     H_    0.578425 0.651340 0.626601 0.029829
H12   H     H_    0.335834 0.083380 0.368011 0.096774
H13   H     H_    0.365555 0.842188 0.684573 0.140111
H14   H     H_    0.404651 0.707890 0.702368 0.077192
H15   H     H_    0.572433 0.784670 0.701552 0.124272
H16   H     H_    0.677714 0.055693 0.679970 0.112797
H17   H     H_    0.959366 0.207045 0.729007 0.138407
H18   H     H_    0.913296 0.779380 0.337575 0.016433
H19   H     H_    0.843916 0.919523 0.359455 -0.036950
H20   H     H_    0.087014 0.838522 0.276323 0.192710
H21   H     H_    0.874117 0.894886 0.267782 0.103606
H22   H     H_    0.017610 0.977341 0.298737 0.088556
H23   H     H_    0.303988 0.057293 0.430835 0.084927
H24   H     H_    0.549435 0.823750 0.368584 -0.203116
H25   H     H_    0.357819 0.889821 0.348062 0.065484
H26   H     H_    0.644729 0.801608 0.280926 0.041496
H27   H     H_    0.583094 0.938433 0.303248 -0.090713
H28   H     H_    0.943512 0.223780 0.637760 0.089036
H29   H     H_    0.145280 0.429442 0.284648 0.110181
H30   H     H_    0.083285 0.244576 0.111474 0.113348
H31   H     H_    0.554519 0.463169 0.757566 0.090112
H32   H     H_    0.293390 0.236734 0.870065 0.119939
H33   H     H_    0.232576 0.236358 0.955123 0.067829
H34   H     H_    0.132075 0.071546 0.386896 0.139848
H35   H     H_    0.147581 0.237937 0.026237 0.065713
H36   H     H_    0.682530 0.618206 0.245946 0.105708
H37   H     H_    0.972786 0.785273 0.134887 0.113020
H38   H     H_    0.038387 0.780659 0.973238 0.067293
H39   H     H_    0.098060 0.774839 0.887900 0.121347
H40   H     H_    0.040364 0.554129 0.716109 0.100310
H41   H     H_    0.033221 0.784712 0.049998 0.065404
H42   H     H_    0.836998 0.562333 0.401452 0.075168
H43   H     H_    0.359453 0.431316 0.605471 0.072305
H44   H     H_    0.336496 0.957551 0.549773 0.117601
H45   H     H_    0.861188 0.745306 0.567305 0.006705
H46   H     H_    0.852691 0.049109 0.443509 0.101094
H47   H     H_    0.802252 0.734501 0.474871 0.050804
H48   H     H_    0.380992 0.272701 0.520618 0.068642
H49   H     H_    0.971126 0.078034 0.691768 0.068272
H50   H     H_    0.154425 0.121466 0.721821 0.113118
H51   H     H_    0.338048 0.249582 0.424988 0.012427
H52   H     H_    0.138301 0.236854 0.447429 0.055939
H53   H     H_    0.464755 0.013876 0.234054 0.047935
H54   H     H_    0.295288 0.012558 0.274537 0.027057
H55   H     H_    0.142472 0.925525 0.201766 0.129213
H56   H     H_    0.065674 0.759033 0.550491 0.074450
H57   H     H_    0.195377 0.053248 0.189685 0.087053
H58   H     H_    0.311766 0.929813 0.162402 0.124171
H59   H     H_    0.248629 0.269142 0.685778 0.300823
H60   H     H_    0.846425 0.916400 0.623159 0.119086
H61   H     H_    0.893942 0.937320 0.560884 0.089295
H62   H     H_    0.054539 0.928432 0.608715 0.145712
N1    N     N_R   0.959049 0.519012 0.205479 -0.423202
N2    N     N_R   0.257334 0.503652 0.796374 -0.426845
O1    O     O_2   0.907040 0.557650 0.617910 -0.461116
O2    O     O_2   0.177526 0.884586 0.467957 -0.479666
O3    O     O_3   0.089385 0.862458 0.374525 -0.583334
O4    O     O_3   0.139040 0.557570 0.557730 -0.497818
O5    O     O_3   0.571310 0.369620 0.475470 -0.491723
O6    O     O_2   0.348200 0.764910 0.523260 -0.468181
O7    O     O_3   0.537553 0.803037 0.603924 -0.650001
O8    O     O_2   0.449269 0.521309 0.324894 -0.487148
O9    O     O_3   0.393265 0.729482 0.322734 -0.549229
O10   O     O_2   0.998992 0.337916 0.195078 -0.605167
O11   O     O_2   0.320034 0.323625 0.792959 -0.596671
O12   O     O_3   0.664328 0.224129 0.396918 -0.643776
O13   O     O_2   0.931568 0.699850 0.210361 -0.620184
O14   O     O_2   0.188432 0.683567 0.805049 -0.598559
O15   O     O_3   0.684960 0.360550 0.588460 -0.490373
O16   O     O_2   0.836188 0.420556 0.674459 -0.453417
O17   O     O_3   0.037885 0.729718 0.623389 -0.635933
O18   O     O_3   0.666977 0.264711 0.677742 -0.606374
O19   O     O_2   0.841490 0.235060 0.476710 -0.472532
O20   O     O_3   0.099640 0.305100 0.564190 -0.458043
O21   O     O_2   0.003557 0.112428 0.537039 -0.509304
O22   O     O_3   0.423676 0.863008 0.249915 -0.616062
O23   O     O_3   0.163642 0.126571 0.623994 -0.668883
O24   O     O_3   0.140049 0.292713 0.669925 -0.718982
O25   O     O_2   0.282660 0.442310 0.382060 -0.454180
O26   O     O_3   0.050670 0.442340 0.442260 -0.501198
O27   O     O_3   0.504750 0.639360 0.411530 -0.456063
O28   O     O_3   0.145207 0.270843 0.374358 -0.634688
O29   O     O_3   0.618400 0.630290 0.524520 -0.479137
O30   O     O_3   0.090070 0.694820 0.435810 -0.464115
P1    P     P_3+3 0.072810 0.589830 0.610360 0.995570
P2    P     P_3+3 0.661990 0.251250 0.462170 0.968745
P3    P     P_3+3 0.146689 0.165841 0.563440 0.943065
P4    P     P_3+3 0.116900 0.410080 0.389630 0.986275
P5    P     P_3+3 0.046869 0.833923 0.433883 0.968531
P6    P     P_3+3 0.670841 0.386853 0.653607 0.966775
P7    P     P_3+3 0.533409 0.764860 0.539411 0.937572
P8    P     P_3+3 0.522924 0.623175 0.346350 0.991580

loop_
_geom_bond_atom_site_label_1
_geom_bond_atom_site_label_2
_ccdc_geom_bond_type
C63   H26   S    
C5    P8    S    
Ba2   O25   S    
C30   P6    S    
C9    C36   A    
O18   P6    S    
Ba1   O15   S    
C53   P7    S    
C19   C24   A    
C56   H21   S    
C2    O13   D    
C61   H58   S    
C42   H39   S    
C50   C51   A    
C57   H60   S    
O20   P3    S    
C24   C25   A    
Ba2   O4    S    
C60   O22   S    
O23   P3    S    
C23   H11   S    
C12   H8    S    
C17   C19   A    
C22   C24   A    
C32   C33   S    
C35   C38   A    
C40   H34   S    
C36   C37   A    
O17   P1    S    
C55   H46   S    
O1    P1    D    
C57   H61   S    
C12   O18   S    
C54   C55   A    
C49   P2    S    
O8    P8    D    
Ba1   Ba2   S    
C41   H38   S    
C11   C38   A    
C17   C35   A    
C58   O12   S    
C38   H35   S    
C22   C27   A    
C9    C13   A    
C25   C42   A    
C46   C49   A    
C29   C30   S    
C6    C7    D    
C4    H28   S    
C54   P5    S    
C21   C22   A    
Ba1   O19   S    
C26   O14   D    
C62   H24   S    
C1    H9    S    
C7    C8    S    
C7    H29   S    
C60   H54   S    
O28   P4    S    
C52   C57   S    
C64   N1    Am   
C59   H5    S    
C46   C48   A    
C52   H56   S    
Ba1   P1    S    
C6    C14   D    
C45   O3    S    
C15   C31   D    
C1    H16   S    
C56   H20   S    
O27   P8    S    
C61   H55   S    
C31   C32   D    
O15   P6    S    
C51   C53   A    
C4    C16   S    
C11   H30   S    
C49   C50   A    
C32   H40   S    
Ba1   O29   S    
C1    H4    S    
O2    P5    D    
C13   C39   A    
C34   H14   S    
Ba2   P4    S    
C3    C5    S    
C18   C37   A    
Ba2   O29   S    
C28   H52   S    
C59   H7    S    
C57   H62   S    
C45   H18   S    
C10   C64   A    
Ba2   O6    S    
C23   O7    S    
C39   H37   S    
C15   H43   S    
C58   C59   S    
C44   C53   A    
Ba1   O26   S    
C31   P1    S    
C41   C42   A    
C35   C36   A    
O3    P5    S    
C52   O17   S    
C27   N2    Am   
C34   H15   S    
C12   H1    S    
C27   O11   D    
C17   C20   A    
C60   C61   S    
C16   H17   S    
Ba1   O20   S    
O30   P5    S    
C18   C19   A    
C33   N2    S    
O26   P4    S    
C60   H53   S    
C4    O24   S    
C1    C12   S    
C59   H6    S    
C5    C14   S    
C28   H51   S    
Ba1   P2    S    
C40   H12   S    
O21   P3    D    
C6    P4    S    
O5    P2    S    
C29   C33   D    
C16   H50   S    
Ba1   O4    S    
C45   H19   S    
O7    P7    S    
C18   C41   A    
H59   O24   S    
C46   H48   S    
C28   O28   S    
C3    H36   S    
Ba2   O26   S    
C20   H33   S    
C44   H47   S    
C48   P3    S    
Ba1   O1    S    
C34   H13   S    
C56   H22   S    
C16   H49   S    
O12   P2    S    
C61   H57   S    
C9    C10   A    
C2    N1    Am   
O6    P7    D    
O25   P4    D    
Ba2   O5    S    
O4    P1    S    
C37   C43   A    
C40   H23   S    
C62   C63   S    
C23   H10   S    
C63   O22   S    
C8    N1    S    
C3    C8    D    
C45   C56   S    
C58   H3    S    
C2    C13   A    
Ba2   O27   S    
C47   C51   A    
C63   H27   S    
O29   P7    S    
C52   H45   S    
C26   N2    Am   
C29   H31   S    
O16   P6    D    
O9    P8    S    
C4    O23   S    
C50   C55   A    
C14   H42   S    
C23   C34   S    
C21   H32   S    
C64   O10   D    
C10   C11   A    
C58   H2    S    
Ba2   O30   S    
C47   C48   A    
C44   C54   A    
C25   C26   A    
C15   C30   S    
C39   C43   A    
C20   C21   A    
C28   C40   S    
O19   P2    D    
C62   H25   S    
Ba1   O5    S    
C43   H41   S    
C47   H44   S    
C62   O9    S    
