data_mof_unit_14084.cif
_audit_creation_date              2012-12-10T17:42:45-0500
_audit_creation_method            fapswitch 2.2
_symmetry_space_group_name_H-M    P1
_symmetry_Int_Tables_number       1
_space_group_crystal_system       triclinic
_cell_length_a                    10.08338
_cell_length_b                    10.833367
_cell_length_c                    13.24377
_cell_angle_alpha                 94.749609
_cell_angle_beta                  73.810909
_cell_angle_gamma                 89.970712
_cell_volume                      1384.15063721

loop_
_atom_site_label
_atom_site_type_symbol
_atom_type_description
_atom_site_fract_x
_atom_site_fract_y
_atom_site_fract_z
_atom_type_partial_charge
Br1   Br    Br    0.681712 0.749230 0.681668 -0.379856
Br2   Br    Br    0.186201 0.749665 0.683850 -0.382006
Br3   Br    Br    0.850398 0.214125 0.774427 -0.308263
Br4   Br    Br    0.218529 0.366650 0.300306 -0.473848
Br5   Br    Br    0.901147 0.202297 0.001268 -0.234634
Br6   Br    Br    0.120410 0.378061 0.819489 -0.378282
Br7   Br    Br    0.235154 0.268522 0.053524 -0.291958
C1    C     C_R   0.501881 0.738101 0.491128 0.965458
C2    C     C_R   0.386149 0.459456 0.810169 -0.174326
C3    C     C_R   0.284214 0.880178 0.413901 0.214874
C4    C     C_R   0.426327 0.486491 0.699812 0.960549
C5    C     C_R   0.184385 0.958310 0.395530 -0.148791
C6    C     C_R   0.225568 0.072848 0.360582 -0.119528
C7    C     C_R   0.353473 0.115400 0.366783 0.226818
C8    C     C_R   0.417492 0.060748 0.433596 -0.018094
C9    C     C_R   0.400831 0.932851 0.442404 0.035849
C10   C     C_R   0.505863 0.868284 0.472280 -0.129578
C11   C     C_R   0.622507 0.930835 0.484587 -0.171199
C12   C     C_R   0.441729 0.422857 0.970964 0.011064
C13   C     C_R   0.628800 0.057510 0.486721 0.193378
C14   C     C_R   0.517444 0.124836 0.471400 -0.144210
C15   C     C_R   0.798420 0.609864 0.680660 0.272944
C16   C     C_R   0.504459 0.259691 0.492144 0.878645
C17   C     C_R   0.831983 0.614291 0.776755 0.114033
C18   C     C_R   0.969255 0.614843 0.774557 -0.203582
C19   C     C_R   0.070500 0.611019 0.678685 0.320892
C20   C     C_R   0.040750 0.558445 0.585616 0.023053
C21   C     C_R   0.896586 0.558105 0.586098 0.011638
C22   C     C_R   0.955854 0.438034 0.423839 -0.057413
C23   C     C_R   0.481679 0.416422 0.860699 -0.001667
C24   C     C_R   0.096790 0.442252 0.421581 0.338184
C25   C     C_R   0.575764 0.495035 0.296415 0.907246
C26   C     C_R   0.766611 0.336170 0.029507 0.307694
C27   C     C_R   0.617218 0.461165 0.180648 -0.153086
C28   C     C_R   0.247824 0.478626 0.868712 0.196665
C29   C     C_R   0.218720 0.498260 0.977356 0.153905
C30   C     C_R   0.300625 0.431529 0.023434 0.248119
C31   C     C_R   0.541004 0.407384 0.024456 0.054383
C32   C     C_R   0.669725 0.348077 0.971149 -0.036057
C33   C     C_R   0.695742 0.311706 0.861391 0.317902
C34   C     C_R   0.606334 0.353509 0.806760 -0.195123
C35   C     C_R   0.515295 0.458773 0.128438 -0.150880
C36   C     C_R   0.747761 0.408269 0.126004 0.122929
H1    H     H_    0.092854 0.920142 0.378441 0.192853
H2    H     H_    0.170816 0.114333 0.311991 0.221431
H3    H     H_    0.925013 0.381253 0.364160 0.196060
H4    H     H_    0.995257 0.645219 0.846610 0.222937
H5    H     H_    0.416987 0.504060 0.166919 0.223617
H6    H     H_    0.630885 0.327883 0.722891 0.201015
H7    H     H_    0.709417 0.881761 0.496760 0.216841
I1    I     I_    0.926055 0.461468 0.169746 -0.205144
I2    I     I_    0.291923 0.720505 0.310581 -0.273843
I3    I     I_    0.493939 0.160145 0.223651 -0.214390
I4    I     I_    0.818384 0.128412 0.506394 -0.261420
I5    I     I_    0.692173 0.679382 0.924667 -0.195676
I6    I     I_    0.193134 0.688638 0.029520 -0.157667
N1    N     N_R   0.856860 0.501200 0.500990 -0.123216
N2    N     N_R   0.142450 0.501280 0.501020 -0.119640
O1    O     O_R   0.385310 0.683220 0.500000 -0.578084
O2    O     O_R   0.614640 0.683250 0.500010 -0.588777
O3    O     O_R   0.328400 0.499950 0.653610 -0.574572
O4    O     O_R   0.557730 0.499970 0.653620 -0.618896
O5    O     O_R   0.385360 0.316750 0.499990 -0.583640
O6    O     O_R   0.614690 0.316780 0.500000 -0.612760
O7    O     O_R   0.442270 0.500030 0.346380 -0.573802
O8    O     O_R   0.671600 0.500050 0.346390 -0.602689
Zn1   Zn    Zn3+2 0.346880 0.499980 0.499990 1.064572
Zn2   Zn    Zn3+2 0.653120 0.500020 0.500010 1.021051

loop_
_geom_bond_atom_site_label_1
_geom_bond_atom_site_label_2
_ccdc_geom_bond_type
O8    Zn2   S    
C17   C18   A    
C23   C34   A    
C29   I6    S    
C12   C31   A    
O3    Zn1   S    
C25   O8    A    
C1    C10   S    
C27   C35   A    
O4    Zn2   S    
C22   H3    S    
C4    O4    A    
C3    I2    S    
C16   O5    A    
C10   C11   A    
Br7   C30   S    
Br1   C15   S    
Br2   C19   S    
C3    C9    A    
C6    C7    A    
C13   C14   A    
C17   I5    S    
C6    H2    S    
C5    C6    A    
C2    C4    S    
C36   I1    S    
C19   C20   A    
C26   C32   A    
C3    C5    A    
C2    C23   A    
O6    Zn2   S    
C24   N2    A    
C13   I4    S    
C29   C30   A    
C15   C21   A    
C22   N1    A    
Br3   C33   S    
C31   C35   A    
C11   C13   A    
C14   C16   S    
C1    O1    A    
C31   C32   A    
C15   C17   A    
Br4   C24   S    
C9    C10   A    
O2    Zn2   S    
C27   C36   A    
N1    Zn2   S    
C8    C9    A    
C26   C36   A    
C16   O6    A    
N2    Zn1   S    
C8    C14   A    
C7    I3    S    
Br6   C28   S    
C11   H7    S    
C22   C24   A    
C5    H1    S    
C34   H6    S    
C20   C21   A    
C2    C28   A    
C18   H4    S    
C32   C33   A    
C33   C34   A    
C35   H5    S    
C12   C30   A    
O1    Zn1   S    
C18   C19   A    
C7    C8    A    
C12   C23   A    
O7    Zn1   S    
O5    Zn1   S    
C1    O2    A    
C21   N1    A    
C28   C29   A    
C25   C27   S    
C25   O7    A    
C4    O3    A    
C20   N2    A    
Br5   C26   S    
