data_mof_unit_63212.cif
_audit_creation_date              2012-12-10T19:42:55-0500
_audit_creation_method            fapswitch 2.2
_symmetry_space_group_name_H-M    P1
_symmetry_Int_Tables_number       1
_space_group_crystal_system       triclinic
_cell_length_a                    30.588759
_cell_length_b                    30.606904
_cell_length_c                    22.213534
_cell_angle_alpha                 89.990579
_cell_angle_beta                  46.241751
_cell_angle_gamma                 90.000114
_cell_volume                      15020.8708284

loop_
_atom_site_label
_atom_site_type_symbol
_atom_type_description
_atom_site_fract_x
_atom_site_fract_y
_atom_site_fract_z
_atom_type_partial_charge
C1    C     C_R   0.190464 0.189986 0.499230 0.870121
C2    C     C_R   0.844899 0.157922 0.496946 -0.093677
C3    C     C_R   0.939727 0.940134 0.500183 0.914293
C4    C     C_R   0.060308 0.060183 0.499991 0.914332
C5    C     C_R   0.938761 0.059319 0.500194 0.907337
C6    C     C_R   0.561247 0.559316 0.499798 0.907347
C7    C     C_R   0.439690 0.560177 0.500000 0.913748
C8    C     C_R   0.169301 0.249915 0.661044 0.896824
C9    C     C_R   0.830598 0.250011 0.338949 0.888694
C10   C     C_R   0.669418 0.749994 0.661052 0.889185
C11   C     C_R   0.330667 0.749958 0.338952 0.896708
C12   C     C_R   0.552257 0.216759 0.955585 -0.095703
C13   C     C_R   0.655105 0.657921 0.503049 -0.094199
C14   C     C_R   0.508843 0.217556 0.043958 -0.094989
C15   C     C_R   0.991152 0.717522 0.956076 -0.094957
C16   C     C_R   0.947739 0.716732 0.044450 -0.095645
C17   C     C_R   0.546249 0.246617 0.913026 0.057237
C18   C     C_R   0.461315 0.248552 0.086709 0.066792
C19   C     C_R   0.038645 0.748560 0.913291 0.066685
C20   C     C_R   0.953715 0.746638 0.086976 0.057125
C21   C     C_R   0.498970 0.276794 0.956754 -0.169258
C22   C     C_R   0.456886 0.277850 0.043035 -0.169461
C23   C     C_R   0.043038 0.777907 0.956933 -0.169299
C24   C     C_R   0.341739 0.656563 0.500559 -0.083364
C25   C     C_R   0.000956 0.776858 0.043215 -0.168779
C26   C     C_1   0.589445 0.248142 0.823973 0.022437
C27   C     C_1   0.414644 0.249700 0.175830 0.005847
C28   C     C_1   0.085324 0.749698 0.824169 0.006000
C29   C     C_1   0.910528 0.748161 0.176028 0.022666
C30   C     C_1   0.375842 0.250203 0.250421 -0.100636
C31   C     C_1   0.625821 0.249196 0.749435 -0.069627
C32   C     C_1   0.874162 0.749210 0.250565 -0.069445
C33   C     C_1   0.124136 0.750197 0.749579 -0.100139
C34   C     C_2   0.511374 0.185089 0.091427 0.960190
C35   C     C_R   0.189648 0.126747 0.433326 -0.217449
C36   C     C_2   0.604889 0.186388 0.907810 1.006180
C37   C     C_2   0.895143 0.686315 0.092259 1.006266
C38   C     C_2   0.988657 0.685009 0.908642 0.960288
C39   C     C_2   0.027626 0.197946 0.080817 0.922743
C40   C     C_2   0.974898 0.303809 0.919083 0.909794
C41   C     C_2   0.526255 0.802306 0.080955 0.908400
C42   C     C_2   0.473840 0.696464 0.919017 0.925631
C43   C     C_2   0.345990 0.485561 0.465409 0.937917
C44   C     C_2   0.662584 0.486639 0.518685 0.921940
C45   C     C_2   0.837403 0.986647 0.481324 0.921798
C46   C     C_R   0.878951 0.127575 0.431848 -0.187470
C47   C     C_2   0.152744 0.985391 0.536860 0.938372
C48   C     C_3   0.445643 0.457520 0.329159 -0.799571
C49   C     C_3   0.563830 0.462282 0.660083 -0.837394
C50   C     C_3   0.936165 0.962318 0.339942 -0.836139
C51   C     C_3   0.053042 0.956760 0.672290 -0.799073
C52   C     C_2   0.374860 0.391307 0.332634 0.977342
C53   C     C_2   0.634530 0.396175 0.656999 0.978634
C54   C     C_2   0.865478 0.896208 0.343008 0.978764
C55   C     C_2   0.123879 0.890550 0.668687 0.977041
C56   C     C_3   0.990388 0.158022 0.575711 -0.859804
C57   C     C_R   0.621019 0.627576 0.568178 -0.188168
C58   C     C_3   0.786623 0.081427 0.690543 -0.759258
C59   C     C_3   0.713433 0.581413 0.309488 -0.758828
C60   C     C_3   0.509739 0.657966 0.423892 -0.859524
C61   C     C_2   0.023374 0.191008 0.703643 0.935789
C62   C     C_2   0.795334 0.203443 0.684876 0.961523
C63   C     C_2   0.704770 0.703430 0.315021 0.961537
C64   C     C_2   0.476602 0.690842 0.296094 0.935789
C65   C     C_R   0.310370 0.626791 0.566747 -0.217804
C66   C     C_R   0.157574 0.094433 0.433433 -0.151347
C67   C     C_R   0.910590 0.095209 0.432394 -0.176915
C68   C     C_R   0.589392 0.595205 0.567619 -0.177513
C69   C     C_R   0.810298 0.190100 0.499472 0.874179
C70   C     C_R   0.342437 0.594470 0.566638 -0.152031
C71   C     C_R   0.094570 0.091576 0.500739 -0.094095
C72   C     C_R   0.905839 0.092333 0.499869 -0.074224
C73   C     C_R   0.594182 0.592324 0.500110 -0.073699
C74   C     C_R   0.405424 0.591563 0.499246 -0.094306
C75   C     C_R   0.065834 0.117811 0.570834 0.136468
C76   C     C_R   0.874886 0.124735 0.561104 0.087717
C77   C     C_R   0.625163 0.624725 0.438848 0.087774
C78   C     C_R   0.434133 0.617756 0.429094 0.136446
C79   C     C_3   0.009366 0.145200 0.621632 -0.110477
C80   C     C_R   0.689701 0.690100 0.500529 0.874466
C81   C     C_3   0.825695 0.122876 0.654962 -0.124342
C82   C     C_3   0.674382 0.622862 0.344996 -0.124592
C83   C     C_3   0.490651 0.645108 0.378126 -0.110285
C84   C     C_3   0.045358 0.180876 0.619996 -0.254240
C85   C     C_3   0.795894 0.160983 0.650006 -0.277863
C86   C     C_3   0.704178 0.660974 0.349950 -0.277697
C87   C     C_3   0.454675 0.680783 0.379732 -0.254375
C88   C     C_R   0.012925 0.225092 0.040818 -0.021493
C89   C     C_R   0.989131 0.276231 0.959146 -0.021606
C90   C     C_R   0.511927 0.774926 0.040848 -0.021629
C91   C     C_R   0.309546 0.689986 0.500750 0.870029
C92   C     C_R   0.488094 0.723969 0.959140 -0.021194
C93   C     C_R   0.958886 0.249490 0.086866 0.049820
C94   C     C_R   0.043011 0.251696 0.913087 0.049594
C95   C     C_R   0.457341 0.751293 0.086877 0.050381
C96   C     C_R   0.542599 0.747735 0.913123 0.050863
C97   C     C_R   0.330716 0.250046 0.338922 0.921643
C98   C     C_R   0.669408 0.249990 0.661036 0.937000
C99   C     C_R   0.830588 0.749996 0.338964 0.937007
C100  C     C_R   0.169279 0.750042 0.661078 0.921868
C101  C     C_R   0.947412 0.274440 0.046280 -0.230228
C102  C     C_R   0.097565 0.149821 0.570224 0.017737
C103  C     C_R   0.054351 0.226542 0.953635 -0.226549
C104  C     C_R   0.445857 0.726364 0.046295 -0.226640
C105  C     C_R   0.554149 0.772554 0.953727 -0.229124
C106  C     C_1   0.913486 0.249440 0.175928 0.039704
C107  C     C_1   0.087464 0.250792 0.824041 0.031759
C108  C     C_1   0.412633 0.750686 0.175941 0.031598
C109  C     C_1   0.587162 0.748672 0.824067 0.037721
C110  C     C_1   0.124969 0.250156 0.749454 -0.094747
C111  C     C_1   0.875376 0.249709 0.250524 -0.109723
C112  C     C_1   0.624764 0.749516 0.749477 -0.111379
C113  C     C_R   0.847007 0.158367 0.557425 0.044113
C114  C     C_1   0.375036 0.750172 0.250534 -0.095299
C115  C     C_R   0.355929 0.382291 0.462135 0.011891
C116  C     C_R   0.647503 0.383470 0.532963 0.007163
C117  C     C_R   0.852478 0.883481 0.467069 0.007244
C118  C     C_R   0.143629 0.882122 0.538479 0.011567
C119  C     C_R   0.342653 0.342469 0.501193 -0.058510
C120  C     C_R   0.657275 0.342554 0.498858 -0.064017
C121  C     C_R   0.842713 0.842555 0.501163 -0.064215
C122  C     C_R   0.157367 0.842464 0.498790 -0.058201
C123  C     C_R   0.363182 0.334549 0.540724 -0.186628
C124  C     C_R   0.653037 0.658360 0.442529 0.043946
C125  C     C_R   0.633272 0.333650 0.464181 -0.187393
C126  C     C_R   0.866709 0.833645 0.535850 -0.187203
C127  C     C_R   0.137302 0.834698 0.458630 -0.186381
C128  C     C_R   0.395064 0.367091 0.541251 -0.209954
C129  C     C_R   0.601350 0.366148 0.463668 -0.210868
C130  C     C_R   0.898625 0.866144 0.536371 -0.210701
C131  C     C_R   0.105414 0.867242 0.458120 -0.209441
C132  C     C_R   0.407594 0.406905 0.500441 -0.049973
C133  C     C_R   0.592414 0.407003 0.499475 -0.048243
C134  C     C_R   0.907562 0.907007 0.500564 -0.048307
C135  C     C_R   0.402408 0.649768 0.429694 0.017830
C136  C     C_R   0.092390 0.906891 0.499596 -0.050819
C137  C     C_R   0.387799 0.413107 0.460903 0.053286
C138  C     C_R   0.615826 0.414346 0.533918 0.050328
C139  C     C_R   0.884148 0.914359 0.466124 0.050350
C140  C     C_R   0.111718 0.912926 0.539767 0.053628
C141  C     C_3   0.383367 0.445627 0.414739 0.003042
C142  C     C_3   0.624189 0.448094 0.574199 0.017473
C143  C     C_3   0.875800 0.948113 0.425822 0.017043
C144  C     C_3   0.115570 0.945240 0.586772 0.003326
C145  C     C_R   0.309852 0.309972 0.500435 0.909420
C146  C     C_R   0.158269 0.156563 0.499424 -0.083914
C147  C     C_R   0.690105 0.309999 0.499613 0.904911
C148  C     C_R   0.809894 0.809999 0.500390 0.904968
C149  C     C_R   0.190155 0.809969 0.499558 0.909513
C150  C     C_3   0.346343 0.409705 0.416219 -0.253184
C151  C     C_3   0.661093 0.412170 0.572980 -0.242466
C152  C     C_3   0.838902 0.912187 0.427031 -0.242622
C153  C     C_3   0.152636 0.909324 0.585221 -0.253558
C154  C     C_R   0.560267 0.440134 0.499829 0.914230
C155  C     C_R   0.439708 0.440119 0.500161 0.914447
C156  C     C_R   0.060287 0.940115 0.499852 0.914992
H1    H     H_    0.353796 0.303844 0.572062 0.165802
H2    H     H_    0.710418 0.419041 0.529570 0.141628
H3    H     H_    0.789578 0.919048 0.470427 0.141420
H4    H     H_    0.201249 0.917470 0.545644 0.143144
H5    H     H_    0.494805 0.299816 0.923855 0.163078
H6    H     H_    0.420270 0.301386 0.075984 0.156098
H7    H     H_    0.079627 0.801476 0.923959 0.156271
H8    H     H_    0.005096 0.799916 0.076089 0.163286
H9    H     H_    0.238037 0.129770 0.380429 0.157327
H10   H     H_    0.880103 0.128504 0.381998 0.169729
H11   H     H_    0.619828 0.628513 0.618064 0.172769
H12   H     H_    0.639873 0.302152 0.436655 0.170017
H13   H     H_    0.261999 0.629853 0.619705 0.157342
H14   H     H_    0.181521 0.072653 0.380467 0.192766
H15   H     H_    0.936372 0.071426 0.382405 0.169961
H16   H     H_    0.563583 0.571424 0.617634 0.169655
H17   H     H_    0.318501 0.572728 0.619671 0.193320
H18   H     H_    0.971710 0.130799 0.684204 0.205971
H19   H     H_    0.842662 0.131008 0.684618 0.193861
H20   H     H_    0.657447 0.630988 0.315294 0.193920
H21   H     H_    0.528246 0.630663 0.315588 0.205957
H22   H     H_    0.054425 0.210656 0.584009 0.186146
H23   H     H_    0.860110 0.802139 0.563371 0.170242
H24   H     H_    0.751432 0.153266 0.671210 0.182849
H25   H     H_    0.748624 0.653262 0.328790 0.182886
H26   H     H_    0.445708 0.710593 0.415576 0.186124
H27   H     H_    0.096210 0.208123 0.916520 0.190256
H28   H     H_    0.905618 0.292939 0.083285 0.186801
H29   H     H_    0.596209 0.790720 0.916759 0.186393
H30   H     H_    0.403781 0.708219 0.083316 0.189463
H31   H     H_    0.523553 0.122288 0.104669 0.357099
H32   H     H_    0.672588 0.160355 0.892600 0.351593
H33   H     H_    0.827467 0.660185 0.107505 0.351605
H34   H     H_    0.147063 0.804117 0.426794 0.165905
H35   H     H_    0.976545 0.622176 0.895471 0.357214
H36   H     H_    0.010568 0.182836 0.183954 0.349502
H37   H     H_    0.004774 0.335855 0.816908 0.365124
H38   H     H_    0.496251 0.835180 0.182481 0.365231
H39   H     H_    0.503755 0.664275 0.816924 0.348139
H40   H     H_    0.305302 0.540146 0.473423 0.350875
H41   H     H_    0.709261 0.539959 0.500427 0.347151
H42   H     H_    0.790720 0.039955 0.499567 0.346900
H43   H     H_    0.192863 0.039983 0.530097 0.350974
H44   H     H_    0.469550 0.480475 0.336924 0.244067
H45   H     H_    0.410217 0.361153 0.572488 0.152219
H46   H     H_    0.474334 0.428005 0.295927 0.247346
H47   H     H_    0.439999 0.473759 0.290189 0.279908
H48   H     H_    0.539292 0.484548 0.652445 0.237195
H49   H     H_    0.534334 0.433666 0.697586 0.249959
H50   H     H_    0.572352 0.480020 0.694735 0.277293
H51   H     H_    0.960697 0.984585 0.347588 0.237228
H52   H     H_    0.965663 0.933709 0.302451 0.250084
H53   H     H_    0.927655 0.980060 0.305275 0.277278
H54   H     H_    0.029179 0.979790 0.664556 0.244151
H55   H     H_    0.024517 0.927108 0.704890 0.247277
H56   H     H_    0.583412 0.359397 0.436313 0.153208
H57   H     H_    0.058281 0.972782 0.711835 0.279926
H58   H     H_    0.393496 0.400624 0.226987 0.344644
H59   H     H_    0.620456 0.408607 0.758403 0.345524
H60   H     H_    0.879577 0.908658 0.241583 0.345611
H61   H     H_    0.104608 0.899369 0.774890 0.344765
H62   H     H_    0.970048 0.129456 0.571940 0.239925
H63   H     H_    0.955923 0.184358 0.610694 0.286894
H64   H     H_    0.029718 0.169781 0.511573 0.252395
H65   H     H_    0.809550 0.054318 0.692603 0.268740
H66   H     H_    0.743062 0.087794 0.755374 0.244680
H67   H     H_    0.916564 0.859386 0.563725 0.153333
H68   H     H_    0.776886 0.071247 0.652760 0.270896
H69   H     H_    0.690494 0.554296 0.307470 0.268786
H70   H     H_    0.757001 0.587770 0.244650 0.244706
H71   H     H_    0.723158 0.571250 0.347295 0.270914
H72   H     H_    0.530074 0.629407 0.427692 0.240019
H73   H     H_    0.544237 0.684283 0.388782 0.286769
H74   H     H_    0.470464 0.669764 0.488012 0.252438
H75   H     H_    0.000590 0.237536 0.785402 0.355858
H76   H     H_    0.746354 0.255372 0.758856 0.355313
H77   H     H_    0.753781 0.755358 0.240999 0.355311
H78   H     H_    0.090634 0.861429 0.426380 0.152853
H79   H     H_    0.499541 0.737286 0.214110 0.355577
H80   H     H_    0.297623 0.417680 0.456289 0.143018
O1    O     O_R   0.178350 0.230070 0.500010 -0.623071
O2    O     O_R   0.919740 0.045800 0.568860 -0.620648
O3    O     O_R   0.580260 0.545800 0.431140 -0.620646
O4    O     O_R   0.419740 0.545800 0.568860 -0.614417
O5    O     O_R   0.011410 0.045760 0.568860 -0.631228
O6    O     O_R   0.988590 0.045760 0.431140 -0.637024
O7    O     O_R   0.511410 0.545760 0.568860 -0.637035
O8    O     O_R   0.488590 0.545760 0.431140 -0.631483
O9    O     O_R   0.230030 0.178320 0.500020 -0.611706
O10   O     O_R   0.769970 0.178320 0.499980 -0.616139
O11   O     O_R   0.730030 0.678320 0.500020 -0.614854
O12   O     O_R   0.821650 0.230070 0.499990 -0.606990
O13   O     O_R   0.269970 0.678320 0.499980 -0.611717
O14   O     O_R   0.285150 0.275890 0.378020 -0.616204
O15   O     O_R   0.714850 0.275890 0.621980 -0.596203
O16   O     O_R   0.785150 0.775890 0.378020 -0.596060
O17   O     O_R   0.214850 0.775890 0.621980 -0.616473
O18   O     O_R   0.336840 0.224130 0.378040 -0.597644
O19   O     O_R   0.663160 0.224130 0.621960 -0.616158
O20   O     O_R   0.836840 0.724130 0.378040 -0.616163
O21   O     O_R   0.163160 0.724130 0.621960 -0.597451
O22   O     O_R   0.269970 0.321680 0.499990 -0.625229
O23   O     O_R   0.678350 0.730070 0.500010 -0.608249
O24   O     O_R   0.730030 0.321680 0.500010 -0.625005
O25   O     O_R   0.769970 0.821680 0.499990 -0.624866
O26   O     O_R   0.230030 0.821680 0.500010 -0.625459
O27   O     O_R   0.321650 0.269930 0.500010 -0.621057
O28   O     O_R   0.678350 0.269930 0.499990 -0.627160
O29   O     O_R   0.821650 0.769930 0.500010 -0.627238
O30   O     O_R   0.178350 0.769930 0.499990 -0.620602
O31   O     O_R   0.163160 0.275870 0.621980 -0.581132
O32   O     O_R   0.836840 0.275870 0.378020 -0.608108
O33   O     O_R   0.663160 0.775870 0.621980 -0.615044
O34   O     O_R   0.321650 0.730070 0.499990 -0.623046
O35   O     O_R   0.336840 0.775870 0.378020 -0.581376
O36   O     O_R   0.214850 0.224110 0.621990 -0.624148
O37   O     O_R   0.785150 0.224110 0.378010 -0.617689
O38   O     O_R   0.714850 0.724110 0.621990 -0.611543
O39   O     O_R   0.285150 0.724110 0.378010 -0.624098
O40   O     O_R   0.580260 0.454160 0.431100 -0.602339
O41   O     O_R   0.419740 0.454160 0.568900 -0.606167
O42   O     O_R   0.080260 0.954160 0.431100 -0.606502
O43   O     O_R   0.919740 0.954160 0.568900 -0.602462
O44   O     O_2   0.503066 0.196720 0.151358 -0.590966
O45   O     O_R   0.511410 0.454120 0.568820 -0.637078
O46   O     O_R   0.522917 0.141124 0.067732 -0.783793
O47   O     O_2   0.619791 0.165821 0.848801 -0.618001
O48   O     O_R   0.637677 0.181645 0.930031 -0.766310
O49   O     O_2   0.880269 0.665772 0.151283 -0.617860
O50   O     O_R   0.862354 0.681500 0.070051 -0.766177
O51   O     O_2   0.996958 0.696599 0.848694 -0.590660
O52   O     O_R   0.977158 0.641046 0.932389 -0.783602
O53   O     O_2   0.068405 0.170962 0.039405 -0.614362
O54   O     O_R   0.995974 0.203269 0.164980 -0.808173
O55   O     O_2   0.922720 0.315333 0.959357 -0.605059
O56   O     O_R   0.488590 0.454120 0.431180 -0.634311
O57   O     O_R   0.020648 0.317373 0.836224 -0.791998
O58   O     O_2   0.578698 0.812712 0.041402 -0.604319
O59   O     O_R   0.480304 0.816966 0.163003 -0.791496
O60   O     O_2   0.421636 0.685031 0.959221 -0.616546
O61   O     O_R   0.519598 0.682848 0.836193 -0.807352
O62   O     O_2   0.330429 0.492925 0.532101 -0.656596
O63   O     O_R   0.329602 0.514336 0.434966 -0.763425
O64   O     O_2   0.673653 0.493336 0.454967 -0.655002
O65   O     O_R   0.684857 0.515044 0.541462 -0.773553
O66   O     O_2   0.826335 0.993340 0.545039 -0.655036
O67   O     O_R   0.011410 0.954120 0.568820 -0.634376
O68   O     O_R   0.815127 0.015048 0.458539 -0.774416
O69   O     O_2   0.168538 0.993072 0.470101 -0.656932
O70   O     O_R   0.168668 0.014001 0.568089 -0.763027
O71   O     O_2   0.398442 0.355133 0.310240 -0.631981
O72   O     O_R   0.373303 0.416030 0.281275 -0.773305
O73   O     O_2   0.609438 0.360602 0.684081 -0.648821
O74   O     O_R   0.639639 0.422439 0.703306 -0.771907
O75   O     O_2   0.890564 0.860638 0.315941 -0.648518
O76   O     O_R   0.860387 0.922480 0.296681 -0.772234
O77   O     O_2   0.100547 0.854289 0.690377 -0.632146
O78   O     O_R   0.988590 0.954120 0.431180 -0.636886
O79   O     O_R   0.124919 0.915022 0.720758 -0.772783
O80   O     O_2   0.013318 0.161581 0.749173 -0.611403
O81   O     O_R   0.015081 0.234550 0.728492 -0.772636
O82   O     O_2   0.841298 0.217029 0.665500 -0.622421
O83   O     O_R   0.741637 0.227406 0.739360 -0.795965
O84   O     O_2   0.658822 0.717010 0.334348 -0.622439
O85   O     O_R   0.758477 0.727396 0.260538 -0.796030
O86   O     O_2   0.486479 0.661380 0.250759 -0.611948
O87   O     O_R   0.485071 0.734358 0.271014 -0.772564
O88   O     O_R   0.080260 0.045800 0.431140 -0.614853
Zn1   Zn    Zn3+2 0.215490 0.284560 0.500000 1.023170
Zn2   Zn    Zn3+2 0.954010 0.000000 0.591950 0.982592
Zn3   Zn    Zn3+2 0.545990 0.500000 0.408050 0.982777
Zn4   Zn    Zn3+2 0.454010 0.500000 0.591950 0.987525
Zn5   Zn    Zn3+2 0.784510 0.284560 0.500000 1.026379
Zn6   Zn    Zn3+2 0.715490 0.784560 0.500000 1.022519
Zn7   Zn    Zn3+2 0.284510 0.784560 0.500000 1.022927
Zn8   Zn    Zn3+2 0.284510 0.215440 0.500020 1.020841
Zn9   Zn    Zn3+2 0.715490 0.215440 0.499980 1.006979
Zn10  Zn    Zn3+2 0.784510 0.715440 0.500020 1.010709
Zn11  Zn    Zn3+2 0.215490 0.715440 0.499980 1.021315
Zn12  Zn    Zn3+2 0.045990 0.000000 0.408050 0.987536

loop_
_geom_bond_atom_site_label_1
_geom_bond_atom_site_label_2
_ccdc_geom_bond_type
C136  C140  A    
H59   O74   S    
C56   H62   S    
C40   O57   S    
C90   C95   A    
C30   C97   S    
C56   C79   S    
C103  H27   S    
C130  H67   S    
C98   O15   A    
C25   H8    S    
C132  C155  S    
C44   O65   S    
C118  C153  S    
C45   O68   S    
C89   C94   A    
C54   O75   D    
C155  O41   A    
C50   H53   S    
C70   C74   A    
C52   O72   S    
C53   O73   D    
C116  C138  A    
O78   Zn12  S    
C49   H48   S    
C21   C22   A    
C117  C139  A    
C87   H26   S    
C118  C140  A    
C9    O32   A    
C127  H34   S    
C5    O2    A    
C63   O84   D    
C122  C149  S    
C125  H12   S    
C93   C101  A    
C13   C124  A    
C120  C125  A    
C54   C152  S    
C35   C66   A    
O18   Zn8   S    
C132  C137  A    
C17   C21   A    
C148  O29   A    
C19   C23   A    
O67   Zn2   S    
C3    O43   A    
C48   H47   S    
C16   C20   A    
C49   C142  S    
O37   Zn9   S    
C80   O11   A    
O39   Zn11  S    
C97   O14   A    
C101  H28   S    
H38   O59   S    
C129  C133  A    
C42   O60   D    
C28   C33   T    
C34   O46   S    
C107  C110  T    
C56   H64   S    
C6    C73   S    
C151  H2    S    
C100  O21   A    
C89   C101  A    
C90   C105  A    
C61   C84   S    
O30   Zn11  S    
O31   Zn1   S    
H75   O81   S    
C42   O61   S    
C119  C123  A    
C104  H30   S    
C96   C109  S    
O42   Zn12  S    
C77   C124  A    
C1    O9    A    
C77   C82   S    
C60   C83   S    
C42   C92   S    
O29   Zn10  S    
C127  C131  A    
C95   C108  S    
C92   C104  A    
C125  C129  A    
C49   H50   S    
O8    Zn3   S    
C73   C77   A    
C75   C79   S    
O4    Zn4   S    
C4    C71   S    
C50   H52   S    
O88   Zn12  S    
O35   Zn7   S    
H32   O48   S    
C62   O83   S    
C39   O53   D    
C84   C102  S    
O1    Zn1   S    
C59   C82   S    
C3    O78   A    
C38   O52   S    
O26   Zn7   S    
O11   Zn10  S    
H39   O61   S    
C61   O81   S    
O20   Zn10  S    
C9    O37   A    
C5    C72   S    
C79   C84   S    
H60   O76   S    
C13   C57   A    
C65   C70   A    
C48   H46   S    
C92   C96   A    
C40   O55   D    
C67   C72   A    
C118  C122  A    
C31   C98   S    
C122  C127  A    
C59   H70   S    
C139  C143  S    
C61   O80   D    
C115  C137  A    
C10   O33   A    
C86   H25   S    
C149  O30   A    
C44   O64   D    
O40   Zn3   S    
C40   C89   S    
C2    C69   S    
C64   C87   S    
C152  H3    S    
O32   Zn5   S    
C8    O31   A    
C98   O19   A    
C58   H65   S    
C141  C150  S    
C106  C111  T    
C94   C107  S    
O41   Zn4   S    
C133  C154  S    
C131  C136  A    
C134  C139  A    
O45   Zn4   S    
O15   Zn5   S    
C123  H1    S    
C1    O1    A    
C116  C120  A    
C60   H72   S    
C12   C17   A    
C156  O42   A    
C99   O20   A    
C8    C110  S    
C93   C106  S    
C76   C113  A    
C47   O69   D    
C80   O23   A    
C154  O40   A    
C19   C28   S    
C41   O59   S    
C44   C142  S    
C115  C119  A    
C86   C124  S    
C57   C68   A    
H37   O57   S    
C55   C153  S    
O3    Zn3   S    
C18   C22   A    
C11   O35   A    
C36   O47   D    
C12   C14   A    
C14   C34   S    
C6    O3    A    
C3    C134  S    
C153  H4    S    
C85   C113  S    
C8    O36   A    
O12   Zn5   S    
C85   H24   S    
C48   C141  S    
C54   O76   S    
C64   O87   S    
C7    O4    A    
C52   C150  S    
C53   C151  S    
C116  C151  S    
C81   C85   S    
O16   Zn6   S    
C83   C87   S    
C96   C105  A    
C155  O56   A    
C79   H18   S    
C91   O34   A    
H58   O72   S    
C130  C134  A    
C50   C143  S    
C15   C19   A    
C48   H44   S    
C60   H74   S    
C81   H19   S    
H43   O70   S    
C29   C32   T    
C22   H6    S    
H40   O63   S    
C20   C25   A    
C126  C130  A    
C108  C114  T    
O23   Zn6   S    
C34   O44   D    
C78   C83   S    
C7    O8    A    
C145  O27   A    
O5    Zn2   S    
C10   C112  S    
C5    O6    A    
C59   H71   S    
C78   C135  A    
O56   Zn3   S    
C16   C37   S    
C13   C80   S    
C133  C138  A    
H61   O79   S    
O43   Zn2   S    
C39   C88   S    
C10   O38   A    
C117  C152  S    
C147  O24   A    
C7    C74   S    
C83   H21   S    
C87   C135  S    
C138  C142  S    
C58   C81   S    
C58   H68   S    
C82   C86   S    
H76   O83   S    
C47   C144  S    
C60   H73   S    
C65   H13   S    
C35   C146  A    
C63   O85   S    
C55   O79   S    
C66   C71   A    
O38   Zn10  S    
H79   O87   S    
C121  C148  S    
C126  H23   S    
C53   O74   S    
O24   Zn5   S    
C143  C152  S    
C43   O62   D    
C49   H49   S    
C94   C103  A    
C63   C86   S    
O21   Zn11  S    
C43   C141  S    
O13   Zn11  S    
C37   O49   D    
C100  O17   A    
C149  O26   A    
C91   O13   A    
C137  C141  S    
C46   H10   S    
C145  O22   A    
C140  C144  S    
C99   O16   A    
C37   O50   S    
O27   Zn8   S    
C57   H11   S    
C119  C145  S    
C68   H16   S    
C51   H54   S    
H41   O65   S    
O6    Zn12  S    
C59   H69   S    
C69   O10   A    
C46   C67   A    
C120  C147  S    
H36   O54   S    
C74   C78   A    
C45   C143  S    
C154  O45   A    
C147  O28   A    
C56   H63   S    
C102  C146  A    
C64   O86   D    
C9    C111  S    
O2    Zn2   S    
C14   C18   A    
C72   C76   A    
C58   H66   S    
C51   C144  S    
C2    C46   A    
H77   O85   S    
C17   C26   S    
C55   O77   D    
C136  C156  S    
C2    C113  A    
C15   C16   A    
O25   Zn6   S    
C105  H29   S    
C144  C153  S    
C11   C114  S    
C117  C121  A    
C75   C102  A    
C156  O67   A    
C148  O25   A    
C12   C36   S    
O9    Zn8   S    
O7    Zn4   S    
C50   H51   S    
C51   H57   S    
C41   C90   S    
O19   Zn9   S    
C26   C31   T    
C62   O82   D    
H33   O50   S    
C27   C30   T    
C1    C146  S    
H35   O52   S    
C128  C132  A    
H31   O46   S    
C38   O51   D    
C23   H7    S    
C20   C29   S    
C131  H78   S    
C62   C85   S    
C52   O71   D    
C21   H5    S    
O10   Zn9   S    
C36   O48   S    
C109  C112  T    
C67   H15   S    
C68   C73   A    
H42   O68   S    
C15   C38   S    
C69   O12   A    
C45   O66   D    
C129  H56   S    
C84   H22   S    
C11   O39   A    
C24   C65   A    
C24   C135  A    
C82   H20   S    
O28   Zn9   S    
C6    O7    A    
O22   Zn1   S    
C24   C91   S    
C4    O5    A    
C88   C103  A    
C95   C104  A    
C43   O63   S    
C88   C93   A    
O17   Zn7   S    
O36   Zn8   S    
C66   H14   S    
C18   C27   S    
C76   C81   S    
C142  C151  S    
C32   C99   S    
C33   C100  S    
O34   Zn7   S    
C121  C126  A    
C41   O58   D    
C71   C75   A    
C123  C128  A    
C150  H80   S    
C115  C150  S    
C35   H9    S    
C47   O70   S    
C128  H45   S    
C23   C25   A    
O14   Zn1   S    
C70   H17   S    
C51   H55   S    
O33   Zn6   S    
C4    O88   A    
C97   O18   A    
C39   O54   S    
