data_mof_unit_27279.cif
_audit_creation_date              2012-10-26T19:39:10-0400
_audit_creation_method            fapswitch 2.2
_symmetry_space_group_name_H-M    P1
_symmetry_Int_Tables_number       1
_space_group_crystal_system       monoclinic
_cell_length_a                    11.910432
_cell_length_b                    13.089369
_cell_length_c                    7.59523
_cell_angle_alpha                 90.0
_cell_angle_beta                  110.292164
_cell_angle_gamma                 90.0
_cell_volume                      1110.60732439

loop_
_atom_site_label
_atom_site_type_symbol
_atom_type_description
_atom_site_fract_x
_atom_site_fract_y
_atom_site_fract_z
_atom_type_partial_charge
C1    C     C_R   0.347735 0.852848 0.452622 0.533925
C2    C     C_2   0.741781 0.774391 0.574300 -0.077544
C3    C     C_2   0.741781 0.225609 0.574300 -0.077544
C4    C     C_2   0.258219 0.774391 0.425700 -0.077544
C5    C     C_2   0.758219 0.725609 0.425700 -0.077544
C6    C     C_2   0.241781 0.274391 0.574300 -0.077544
C7    C     C_2   0.241781 0.725609 0.574300 -0.077544
C8    C     C_2   0.758219 0.274391 0.425700 -0.077544
C9    C     C_1   0.686038 0.743681 0.230121 0.277595
C10   C     C_1   0.313962 0.256319 0.769879 0.277595
C11   C     C_1   0.313962 0.743681 0.769879 0.277595
C12   C     C_R   0.652265 0.147152 0.547377 0.533924
C13   C     C_1   0.686038 0.256319 0.230121 0.277595
C14   C     C_1   0.186038 0.243681 0.230121 0.277595
C15   C     C_1   0.813962 0.756319 0.769879 0.277595
C16   C     C_1   0.813962 0.243681 0.769879 0.277595
C17   C     C_1   0.186038 0.756319 0.230121 0.277595
C18   C     C_2   0.329406 1.000000 0.923556 0.753940
C19   C     C_2   0.670594 0.000000 0.076443 0.753940
C20   C     C_2   0.829406 0.500000 0.923556 0.753940
C21   C     C_2   0.170594 0.500000 0.076443 0.753940
C22   C     C_R   0.652265 0.852848 0.547377 0.533924
C23   C     C_R   0.347735 0.147152 0.452622 0.533925
C24   C     C_R   0.847735 0.352848 0.452622 0.533925
C25   C     C_R   0.152264 0.647152 0.547377 0.533924
C26   C     C_R   0.152264 0.352848 0.547377 0.533924
C27   C     C_R   0.847735 0.647152 0.452622 0.533925
C28   C     C_2   0.258219 0.225609 0.425700 -0.077544
Cu1   Cu    Cu3+1 0.517640 0.000000 0.687200 1.127426
Cu2   Cu    Cu3+1 0.482360 0.000000 0.312800 1.127426
Cu3   Cu    Cu3+1 0.017640 0.500000 0.687200 1.127426
Cu4   Cu    Cu3+1 0.982360 0.500000 0.312800 1.127426
H1    H     H_    0.189411 1.000000 0.679931 0.307029
H2    H     H_    0.810589 0.000000 0.320068 0.307029
H3    H     H_    0.689411 0.500000 0.679931 0.307029
H4    H     H_    0.310589 0.500000 0.320068 0.307029
N1    N     N_2   0.455760 0.000000 0.031460 -0.149721
N2    N     N_1   0.869841 0.743064 0.926438 -0.222618
N3    N     N_1   0.869841 0.256936 0.926438 -0.222618
N4    N     N_1   0.130159 0.743064 0.073561 -0.222618
N5    N     N_2   0.544240 0.000000 0.968540 -0.149721
N6    N     N_2   0.955760 0.500000 0.031460 -0.149721
N7    N     N_2   0.044240 0.500000 0.968540 -0.149721
N8    N     N_1   0.630159 0.756935 0.073561 -0.222618
N9    N     N_1   0.369841 0.243064 0.926438 -0.222618
N10   N     N_1   0.369841 0.756936 0.926438 -0.222618
N11   N     N_1   0.630159 0.243064 0.073561 -0.222618
N12   N     N_1   0.130159 0.256935 0.073561 -0.222618
O1    O     O_R   0.398880 0.887420 0.621600 -0.478066
O2    O     O_R   0.630920 0.112580 0.694560 -0.473569
O3    O     O_R   0.630920 0.887420 0.694560 -0.473570
O4    O     O_R   0.369080 0.112580 0.305440 -0.473570
O5    O     O_R   0.869080 0.387420 0.305440 -0.473570
O6    O     O_R   0.130920 0.612580 0.694560 -0.473569
O7    O     O_R   0.130920 0.387420 0.694560 -0.473570
O8    O     O_R   0.869080 0.612580 0.305440 -0.473570
O9    O     O_2   0.259560 1.000000 0.009081 -0.484987
O10   O     O_R   0.280242 0.000000 0.729665 -0.673130
O11   O     O_2   0.740440 0.000000 0.990918 -0.484987
O12   O     O_R   0.601120 0.112580 0.378400 -0.478066
O13   O     O_R   0.719758 0.000000 0.270335 -0.673130
O14   O     O_2   0.759560 0.500000 0.009081 -0.484987
O15   O     O_R   0.780242 0.500000 0.729665 -0.673130
O16   O     O_2   0.240440 0.500000 0.990918 -0.484987
O17   O     O_R   0.219758 0.500000 0.270335 -0.673130
O18   O     O_R   0.601120 0.887420 0.378400 -0.478066
O19   O     O_R   0.398880 0.112580 0.621600 -0.478066
O20   O     O_R   0.898880 0.387420 0.621600 -0.478066
O21   O     O_R   0.101120 0.612580 0.378400 -0.478066
O22   O     O_R   0.101120 0.387420 0.378400 -0.478066
O23   O     O_R   0.898880 0.612580 0.621600 -0.478066
O24   O     O_R   0.369080 0.887420 0.305440 -0.473570

loop_
_geom_bond_atom_site_label_1
_geom_bond_atom_site_label_2
_ccdc_geom_bond_type
C6    C10   S    
C12   O2    A    
C3    C16   S    
C15   N2    T    
C2    C22   S    
Cu4   O21   S    
C8    C24   S    
Cu1   Cu2   S    
C18   O9    D    
C20   N6    S    
Cu3   Cu4   S    
C7    C25   S    
H1    O10   S    
C5    C27   S    
C1    C4    S    
C14   C28   S    
C26   O7    A    
C27   O8    A    
C10   N9    T    
Cu3   O23   S    
Cu1   O1    S    
C23   C28   S    
C7    C11   S    
C2    C15   S    
C23   O4    A    
C6    C26   S    
Cu3   N7    S    
C20   O15   S    
C4    C7    D    
Cu3   O7    S    
C4    C17   S    
C1    O1    A    
Cu2   O4    S    
Cu2   O18   S    
C18   N1    S    
C19   O13   S    
C11   N10   T    
Cu1   O2    S    
Cu3   O6    S    
N1    N5    D    
Cu3   O20   S    
C26   O22   A    
C22   O3    A    
C1    O24   A    
C25   O21   A    
N6    N7    D    
C24   O20   A    
C16   N3    T    
C20   O14   D    
Cu4   N6    S    
C2    C5    D    
C8    C13   S    
Cu4   O5    S    
C27   O23   A    
C25   O6    A    
C19   O11   D    
C3    C8    D    
Cu1   O3    S    
C23   O19   A    
C12   O12   A    
C13   N11   T    
C14   N12   T    
Cu4   O22   S    
H4    O17   S    
C22   O18   A    
C21   O16   D    
Cu1   O19   S    
C3    C12   S    
Cu1   N5    S    
C24   O5    A    
C21   N7    S    
C21   O17   S    
H3    O15   S    
Cu4   O8    S    
H2    O13   S    
C6    C28   D    
C18   O10   S    
C19   N5    S    
Cu2   N1    S    
C5    C9    S    
Cu2   O24   S    
C9    N8    T    
C17   N4    T    
Cu2   O12   S    
