data_mof_unit_15813.cif
_audit_creation_date              2013-03-05T15:48:31-0500
_audit_creation_method            fapswitch 2.2
_symmetry_space_group_name_H-M    P1
_symmetry_Int_Tables_number       1
_space_group_crystal_system       triclinic
_cell_length_a                    18.436917
_cell_length_b                    19.099458
_cell_length_c                    18.366249
_cell_angle_alpha                 109.393772
_cell_angle_beta                  107.879814
_cell_angle_gamma                 109.4045
_cell_volume                      5081.55291151

loop_
_atom_site_label
_atom_site_type_symbol
_atom_site_description
_atom_site_fract_x
_atom_site_fract_y
_atom_site_fract_z
_atom_type_partial_charge
O1    O     O_R   0.408690 0.356690 0.448570 -0.596017
O2    O     O_R   0.408090 0.460090 0.551440 -0.621506
C1    C     C_R   0.379546 0.381381 0.501409 0.839147
O3    O     O_R   0.592400 0.448300 0.540670 -0.549285
O4    O     O_R   0.591800 0.551700 0.643540 -0.578906
C2    C     C_R   0.620790 0.499885 0.620768 0.927169
Zn1   Zn    Zn3+2 0.500400 0.430960 0.431310 1.084046
Zn2   Zn    Zn3+2 0.499600 0.569040 0.568690 1.093465
O5    O     O_R   0.591910 0.539910 0.448560 -0.653531
O6    O     O_R   0.591310 0.643310 0.551430 -0.572054
O7    O     O_R   0.408200 0.448300 0.356460 -0.609584
O8    O     O_R   0.407600 0.551700 0.459330 -0.625321
C3    C     C_R   0.622147 0.617974 0.499640 0.868094
C4    C     C_R   0.379737 0.500067 0.379110 0.815014
C5    C     C_3   0.707530 0.423469 0.652202 0.525123
C6    C     C_3   0.783573 0.434768 0.729765 -0.602487
H1    H     H_    0.765097 0.375380 0.734546 0.239475
H2    H     H_    0.839984 0.441349 0.717782 0.199060
H3    H     H_    0.800315 0.587791 0.687196 0.171436
C7    C     C_3   0.776386 0.589683 0.735354 0.019136
C8    C     C_3   0.660172 0.495527 0.758689 -0.454243
C9    C     C_3   0.690408 0.501948 0.689461 -0.281821
H4    H     H_    0.647321 0.548040 0.786344 0.296109
H5    H     H_    0.595767 0.438267 0.727218 0.195221
C10   C     C_3   0.812131 0.510981 0.818074 -0.201746
C11   C     C_3   0.849368 0.600477 0.817589 0.362376
C12   C     C_3   0.727682 0.491900 0.830125 0.119141
H6    H     H_    0.697968 0.425371 0.817978 0.191904
C13   C     C_R   0.383278 0.393384 0.665166 -0.215093
C14   C     C_R   0.379509 0.404638 0.743188 0.349906
C15   C     C_R   0.305945 0.346797 0.739027 -0.190060
C16   C     C_R   0.240032 0.276802 0.659386 -0.207232
C17   C     C_R   0.245171 0.263126 0.580888 0.085120
C18   C     C_R   0.313507 0.325690 0.582646 0.052942
C19   C     C_R   0.184557 0.187720 0.501086 -0.147783
C20   C     C_R   0.185259 0.177133 0.421644 0.079491
C21   C     C_R   0.243051 0.246034 0.420959 0.031398
C22   C     C_R   0.310388 0.317916 0.501976 -0.118516
C23   C     C_R   0.129802 0.099093 0.342736 -0.210380
C24   C     C_R   0.128183 0.091824 0.264260 -0.170837
C25   C     C_R   0.179021 0.162656 0.261277 0.360429
C26   C     C_R   0.233436 0.240082 0.339038 -0.210694
H7    H     H_    0.442049 0.437256 0.670587 0.181277
H8    H     H_    0.299935 0.354706 0.797690 0.180846
H9    H     H_    0.185115 0.233889 0.660391 0.158255
H10   H     H_    0.088320 0.042280 0.340730 0.164521
H11   H     H_    0.085928 0.030886 0.205567 0.207281
H12   H     H_    0.268771 0.295041 0.334688 0.187445
H13   H     H_    0.465034 0.514123 0.154443 0.215261
C27   C     C_R   0.219135 0.476212 0.383583 -0.221537
C28   C     C_R   0.148006 0.478240 0.395091 0.379907
C29   C     C_R   0.093812 0.496837 0.341595 -0.209927
C30   C     C_R   0.107078 0.507459 0.274410 -0.205613
C31   C     C_R   0.175201 0.499482 0.258484 0.106036
C32   C     C_R   0.236107 0.491404 0.318454 0.038954
C33   C     C_R   0.183750 0.498803 0.184203 -0.136607
C34   C     C_R   0.254985 0.495345 0.172242 0.102718
C35   C     C_R   0.323499 0.502810 0.240341 0.076169
C36   C     C_R   0.312358 0.498453 0.311853 -0.146151
C37   C     C_R   0.259758 0.484580 0.093860 -0.136668
C38   C     C_R   0.334709 0.490600 0.087539 -0.108851
C39   C     C_R   0.406090 0.507372 0.158593 -0.057333
C40   C     C_R   0.401056 0.513559 0.234407 -0.149417
H14   H     H_    0.260171 0.461402 0.425183 0.181459
H15   H     H_    0.040014 0.501758 0.350613 0.177041
H16   H     H_    0.063302 0.522199 0.235702 0.153876
H17   H     H_    0.205780 0.470459 0.036286 0.150058
H18   H     H_    0.337739 0.483254 0.027671 0.175672
H19   H     H_    0.458637 0.526898 0.287741 0.154778
C41   C     C_R   0.581081 0.732031 0.450743 -0.192547
C42   C     C_R   0.565188 0.796327 0.444716 -0.203475
C43   C     C_R   0.633876 0.874138 0.471591 0.276232
C44   C     C_R   0.719865 0.886119 0.501928 0.230737
C45   C     C_R   0.733922 0.814976 0.493473 -0.023614
C46   C     C_R   0.665870 0.741607 0.477756 0.071787
C47   C     C_R   0.812119 0.813257 0.498149 -0.113035
C48   C     C_R   0.819679 0.739009 0.484670 0.105772
C49   C     C_R   0.757103 0.672600 0.484671 0.064886
C50   C     C_R   0.683348 0.678356 0.488219 -0.117531
C51   C     C_R   0.886480 0.728091 0.467725 -0.207911
C52   C     C_R   0.893380 0.655334 0.455477 -0.163254
C53   C     C_R   0.835287 0.591613 0.461393 0.243140
C54   C     C_R   0.768231 0.600869 0.476685 -0.199650
H20   H     H_    0.525617 0.673475 0.430949 0.152945
H21   H     H_    0.499186 0.786452 0.421696 0.212232
H22   H     H_    0.932036 0.773208 0.459229 0.165937
H23   H     H_    0.943067 0.648051 0.439252 0.149611
H24   H     H_    0.723924 0.549555 0.478702 0.216244
O9    O     O_R   0.946100 0.356720 0.906240 -0.593286
O10   O     O_R   0.049540 0.460090 0.906170 -0.640710
C55   C     C_R   0.998667 0.381838 0.877059 0.849368
O11   O     O_R   0.853530 0.448360 0.905250 -0.600817
O12   O     O_R   0.956970 0.551730 0.905180 -0.623405
C56   C     C_R   0.877532 0.506674 0.883675 1.003861
Zn3   Zn    Zn3+2 0.928290 0.431030 0.997370 1.035512
Zn4   Zn    Zn3+2 0.066410 0.569060 0.997270 1.023886
O13   O     O_R   0.945170 0.540000 0.088470 -0.634819
O14   O     O_R   0.048600 0.643370 0.088400 -0.587737
O15   O     O_R   0.037740 0.448360 0.089460 -0.614816
O16   O     O_R   0.141170 0.551730 0.089390 -0.619223
C57   C     C_R   0.999901 0.618064 0.122563 0.936506
C58   C     C_R   0.117756 0.500224 0.118392 0.815309
O17   O     O_R   0.948510 0.908450 0.356890 -0.608405
O18   O     O_R   0.052500 0.908420 0.460860 -0.624482
C59   C     C_R   0.001478 0.881209 0.380507 0.814590
O19   O     O_R   0.039610 0.091640 0.448030 -0.623480
O20   O     O_R   0.143600 0.091610 0.551990 -0.615448
C60   C     C_R   0.119503 0.120165 0.500262 0.817393
Zn5   Zn    Zn3+2 0.930570 0.000030 0.430590 1.087005
Zn6   Zn    Zn3+2 0.069430 0.999990 0.569430 0.994665
O21   O     O_R   0.947500 0.091600 0.539170 -0.561568
O22   O     O_R   0.051490 0.091570 0.643140 -0.658561
O23   O     O_R   0.856400 0.908420 0.448030 -0.592366
O24   O     O_R   0.960390 0.908390 0.552000 -0.621928
C61   C     C_R   0.999875 0.119965 0.620139 0.911318
C62   C     C_R   0.879670 0.882161 0.502084 0.907821
C63   C     C_R   0.981384 0.380581 0.715577 -0.142600
C64   C     C_R   0.982581 0.385575 0.641961 -0.086135
C65   C     C_R   0.000545 0.331108 0.587766 -0.052312
C66   C     C_R   0.012045 0.268390 0.604241 -0.144755
C67   C     C_R   0.005216 0.258798 0.675712 0.059919
C68   C     C_R   0.997595 0.320182 0.735917 0.089266
C69   C     C_R   0.005698 0.189803 0.688617 -0.150626
C70   C     C_R   0.014363 0.189452 0.768366 0.099440
C71   C     C_R   0.021436 0.258827 0.834248 0.011493
C72   C     C_R   0.006420 0.319703 0.814778 -0.150572
C73   C     C_R   0.015581 0.121984 0.784738 -0.117238
C74   C     C_R   0.027828 0.125999 0.865014 -0.184229
C75   C     C_R   0.041979 0.198132 0.932879 0.356851
C76   C     C_R   0.041070 0.264955 0.917910 -0.241166
H25   H     H_    0.967684 0.424304 0.756159 0.134144
H26   H     H_    0.971244 0.432842 0.627924 0.155933
H27   H     H_    0.004652 0.336791 0.532265 0.192387
H28   H     H_    0.027687 0.228933 0.561142 0.150671
H29   H     H_    0.005138 0.063854 0.736326 0.212696
H30   H     H_    0.027362 0.072786 0.874322 0.207704
H31   H     H_    0.054201 0.321042 0.972004 0.179735
C77   C     C_R   0.164297 0.767905 0.262315 -0.226472
C78   C     C_R   0.239461 0.847558 0.313832 0.351226
C79   C     C_R   0.233200 0.917540 0.361578 -0.175490
C80   C     C_R   0.154633 0.907324 0.361077 -0.215414
C81   C     C_R   0.079223 0.826559 0.311436 0.090280
C82   C     C_R   0.082744 0.757471 0.257094 0.021618
C83   C     C_R   0.000649 0.813631 0.314938 -0.114051
C84   C     C_R   0.926422 0.732495 0.267602 0.017477
C85   C     C_R   0.931415 0.663015 0.215989 0.088592
C86   C     C_R   0.005448 0.678725 0.201082 -0.176253
C87   C     C_R   0.848002 0.718845 0.272751 -0.305581
C88   C     C_R   0.777124 0.637484 0.231684 0.362549
C89   C     C_R   0.787198 0.567419 0.191009 0.183087
C90   C     C_R   0.863676 0.580603 0.184322 -0.214260
H32   H     H_    0.170677 0.713645 0.228800 0.181759
H33   H     H_    0.289599 0.980154 0.401007 0.202491
H34   H     H_    0.153945 0.963427 0.400359 0.154149
H35   H     H_    0.840271 0.771007 0.308323 0.210465
H36   H     H_    0.870355 0.524792 0.160208 0.177435
N1    N     N_R   0.733870 0.417480 0.582812 0.202353
O25   O     O_R   0.749006 0.355614 0.549103 -0.336399
O26   O     O_R   0.741344 0.470613 0.552732 -0.493005
N2    N     N_R   0.743812 0.544363 0.919009 0.253507
O27   O     O_R   0.768302 0.522957 0.978768 -0.367706
O28   O     O_R   0.723046 0.604584 0.936758 -0.246746
N3    N     N_R   0.760601 0.663139 0.753408 0.258993
O29   O     O_R   0.780261 0.709391 0.716803 -0.352392
O30   O     O_R   0.726318 0.682652 0.804176 -0.271993
N4    N     N_R   0.869254 0.670818 0.900207 0.241337
O31   O     O_R   0.899060 0.668534 0.972982 -0.359174
O32   O     O_R   0.894452 0.746453 0.908070 -0.271279
N5    N     N_R   0.177995 0.155384 0.180366 0.241018
O33   O     O_R   0.139191 0.081151 0.111828 -0.315714
O34   O     O_R   0.220677 0.222239 0.176018 -0.339190
N6    N     N_R   0.449672 0.475030 0.826127 0.222741
O35   O     O_R   0.448488 0.482249 0.898712 -0.349215
O36   O     O_R   0.514844 0.533191 0.829898 -0.343382
N7    N     N_R   0.627550 0.342277 0.615803 0.211949
O37   O     O_R   0.610685 0.309640 0.664461 -0.405412
O38   O     O_R   0.574330 0.299111 0.532223 -0.286287
N8    N     N_R   0.131656 0.462435 0.461437 0.210396
O39   O     O_R   0.065726 0.464551 0.472189 -0.439520
O40   O     O_R   0.181601 0.444343 0.510755 -0.398077
N9    N     N_2   0.839032 0.514727 0.443795 -0.325634
H37   H     H_    0.784093 0.464616 0.431340 0.281033
C91   C     C_3   0.919277 0.523176 0.500947 -0.631274
H38   H     H_    0.913950 0.459448 0.482787 0.265026
H39   H     H_    0.931972 0.553289 0.569769 0.236601
H40   H     H_    0.974821 0.561671 0.494663 0.244179
N10   N     N_R   0.615544 0.941218 0.470813 0.257942
O41   O     O_R   0.566752 0.957983 0.504387 -0.292867
O42   O     O_R   0.630511 0.971716 0.420136 -0.266130
N11   N     N_R   0.791450 0.970749 0.557892 0.195968
O43   O     O_R   0.792095 0.032402 0.542122 -0.308576
O44   O     O_R   0.846401 0.989013 0.634337 -0.439543
N12   N     N_R   0.053861 0.202310 0.015630 0.236460
O45   O     O_R   0.028877 0.133180 0.021660 -0.295776
O46   O     O_R   0.084034 0.274300 0.084078 -0.371603
N13   N     N_2   0.721713 0.483206 0.158264 -0.248199
H41   H     H_    0.720001 0.437925 0.106721 0.250007
C92   C     C_3   0.720257 0.459248 0.224919 -0.704857
H42   H     H_    0.781874 0.459117 0.257831 0.226945
H43   H     H_    0.664823 0.394575 0.194398 0.256431
H44   H     H_    0.711561 0.503679 0.274180 0.258137
N14   N     N_R   0.321661 0.857158 0.317725 0.219163
O47   O     O_R   0.390958 0.931393 0.364305 -0.291706
O48   O     O_R   0.328101 0.791824 0.274850 -0.374959
N15   N     N_R   0.696233 0.627003 0.232479 0.214671
O49   O     O_R   0.623135 0.559129 0.172208 -0.350747
O50   O     O_R   0.693663 0.688959 0.287374 -0.414111
N16   N     N_2   0.932191 0.626922 0.813013 -0.283947
H45   H     H_    0.988520 0.670690 0.871138 0.287071
C93   C     C_3   0.948295 0.583550 0.743570 -0.812690
H46   H     H_    0.992878 0.631442 0.734288 0.259800
H47   H     H_    0.889199 0.539887 0.680618 0.268092
H48   H     H_    0.981417 0.549029 0.762784 0.241837

loop_
_geom_bond_atom_site_label_1
_geom_bond_atom_site_label_2
_geom_bond_distance
_ccdc_geom_bond_type
C24   H11   1.082661 S    
C3    C50   1.445178 S    
O9    Zn3   1.998260 S    
N11   O43   1.299981 A    
C55   C72   1.431374 S    
C32   C36   1.413833 A    
C27   H14   1.080249 S    
C25   C26   1.401708 A    
C19   C20   1.409718 A    
C63   C68   1.416484 A    
C74   C75   1.393120 A    
C59   C83   1.435163 S    
C75   C76   1.396122 A    
C84   C85   1.402633 A    
O10   C55   1.276423 A    
C69   C70   1.426338 A    
N7    O38   1.302300 A    
C48   C49   1.402672 A    
N6    O35   1.301721 A    
C82   C86   1.413966 A    
C4    C36   1.441191 S    
C53   N9    1.425316 S    
C65   H27   1.082597 S    
C45   C47   1.429780 A    
O4    C2    1.286021 A    
C20   C21   1.398125 A    
N3    O30   1.302088 A    
C21   C22   1.420096 A    
C73   H29   1.075899 S    
C5    N1    1.480959 S    
C77   C82   1.417519 A    
Zn5   O21   2.017882 S    
C14   C15   1.396600 A    
C51   C52   1.387540 A    
O7    C4    1.277372 A    
Zn3   O15   2.032459 S    
C80   H34   1.081699 S    
C5    C6    1.552383 S    
C2    C9    1.476395 S    
N13   H41   1.031932 S    
C33   C34   1.415169 A    
C16   H9    1.080452 S    
C21   C26   1.420340 A    
O5    C3    1.269472 A    
C64   C65   1.387928 A    
C51   H22   1.077592 S    
C19   C60   1.432179 S    
C17   C19   1.412153 A    
C42   H21   1.083391 S    
C80   C81   1.416452 A    
C71   C76   1.420088 A    
C5    C9    1.606399 S    
C57   C86   1.467499 S    
C40   H19   1.080475 S    
C37   H17   1.080443 S    
N16   H45   1.032803 S    
N12   O46   1.301846 A    
Zn4   O14   1.998260 S    
O20   C60   1.281930 A    
O6    C3    1.292798 A    
C92   H42   1.112275 S    
C87   H35   1.076543 S    
O9    C55   1.279621 A    
C28   N8    1.440877 S    
C41   H20   1.081851 S    
Zn6   O24   2.025007 S    
C44   N11   1.434287 S    
Zn5   O23   2.021219 S    
C79   H33   1.082589 S    
O23   C62   1.277998 A    
O19   C60   1.280146 A    
N15   O50   1.301259 A    
O17   Zn5   2.021888 S    
C8    C12   1.546064 S    
C10   C56   1.466966 S    
N1    O26   1.296227 A    
O1    Zn1   2.001420 S    
C8    C9    1.560689 S    
C13   H7    1.077585 S    
N4    O32   1.303011 A    
N5    O34   1.301806 A    
C92   H44   1.110872 S    
O3    Zn1   2.028294 S    
C49   C54   1.418585 A    
O16   C58   1.282499 A    
O18   C59   1.283072 A    
N6    O36   1.301327 A    
N8    O39   1.301139 A    
N9    C91   1.446366 S    
C44   C45   1.433932 A    
C31   C33   1.417004 A    
C61   C69   1.442323 S    
N14   O47   1.301579 A    
C28   C29   1.398087 A    
N5    O33   1.301664 A    
C47   C48   1.418139 A    
C1    C22   1.443872 S    
N13   C92   1.446656 S    
C15   H8    1.082717 S    
C91   H40   1.109607 S    
C88   N15   1.442720 S    
C23   C24   1.391216 A    
C49   C50   1.419308 A    
C6    H1    1.112708 S    
C34   C37   1.419719 A    
C77   H32   1.080981 S    
C10   C11   1.620903 S    
N9    H37   1.030770 S    
C7    N3    1.478038 S    
C25   N5    1.439403 S    
C13   C18   1.421178 A    
C20   C23   1.417836 A    
O11   Zn3   2.028546 S    
C52   C53   1.390440 A    
N1    O25   1.302584 A    
C37   C38   1.392147 A    
O1    C1    1.279659 A    
N2    O28   1.302328 A    
C68   C72   1.410474 A    
Zn1   O7    2.032396 S    
C91   H38   1.110498 S    
C43   N10   1.432767 S    
C13   C14   1.403898 A    
C91   H39   1.108765 S    
O21   C61   1.293434 A    
N8    O40   1.301898 A    
N7    O37   1.302187 A    
Zn2   O8    2.028292 S    
C89   N13   1.424001 S    
C39   C40   1.392411 A    
O11   C56   1.290962 A    
C27   C28   1.401598 A    
O17   C59   1.280591 A    
O12   C56   1.274045 A    
C26   H12   1.079781 S    
C90   H36   1.074612 S    
C79   C80   1.392560 A    
C65   C66   1.393365 A    
O10   Zn4   2.040970 S    
C30   H16   1.080574 S    
C14   N6    1.440702 S    
C67   C68   1.400301 A    
C41   C42   1.384061 A    
N14   O48   1.301764 A    
C23   H10   1.080940 S    
O3    C2    1.277015 A    
C24   C25   1.396398 A    
C7    C9    1.583582 S    
C93   H46   1.109692 S    
O12   Zn4   2.032331 S    
C93   H47   1.096239 S    
C8    H4    1.101600 S    
C71   C72   1.409093 A    
O20   Zn6   2.021349 S    
C81   C83   1.412017 A    
C35   C36   1.414577 A    
Zn2   O6    2.001420 S    
C73   C74   1.392707 A    
O14   C57   1.300936 A    
C41   C46   1.413107 A    
C84   C87   1.420278 A    
C66   C67   1.420695 A    
C85   C86   1.428262 A    
C48   C51   1.421293 A    
C6    C10   1.557268 S    
Zn1   O5    2.044043 S    
N15   O49   1.300855 A    
C31   C32   1.402293 A    
C11   N4    1.489644 S    
N11   O44   1.298391 A    
H13   C39   1.080613 S    
C18   C22   1.420008 A    
C15   C16   1.390642 A    
C11   N16   1.479326 S    
C35   C40   1.419218 A    
O8    C4    1.280949 A    
C43   C44   1.417066 A    
C78   N14   1.440721 S    
O4    Zn2   2.032399 S    
O24   C62   1.291543 A    
C78   C79   1.398256 A    
Zn3   O13   2.040887 S    
C30   C31   1.417533 A    
C70   C73   1.422605 A    
C10   C12   1.579279 S    
C93   H48   1.105393 S    
C27   C32   1.418778 A    
C5    N7    1.487553 S    
C83   C84   1.412675 A    
C6    H2    1.103613 S    
H3    C7    1.098735 S    
C74   H30   1.082930 S    
O2    C1    1.281090 A    
C12   N2    1.474783 S    
C33   C58   1.443194 S    
N10   O41   1.301104 A    
C63   C64   1.392897 A    
C16   C17   1.416312 A    
O18   Zn6   2.017760 S    
C52   H23   1.082632 S    
C38   H18   1.082705 S    
C34   C35   1.404291 A    
N4    O31   1.301546 A    
C7    C11   1.579621 S    
Zn4   O16   2.028549 S    
C47   C62   1.442473 S    
C17   C18   1.401908 A    
C54   H24   1.067663 S    
C66   H28   1.079862 S    
C87   C88   1.399430 A    
C38   C39   1.387544 A    
C63   H25   1.076621 S    
N2    O27   1.300775 A    
Zn6   O22   2.021966 S    
C67   C69   1.416574 A    
N3    O29   1.301944 A    
C64   H26   1.082592 S    
C77   C78   1.402911 A    
C85   C90   1.419633 A    
C42   C43   1.390857 A    
O15   C58   1.279848 A    
C45   C46   1.400680 A    
N16   C93   1.447531 S    
N12   O45   1.300801 A    
C8    H5    1.111749 S    
O2    Zn2   2.044043 S    
C12   H6    1.112950 S    
C81   C82   1.401289 A    
C75   N12   1.437911 S    
C89   C90   1.399143 A    
C92   H43   1.110881 S    
C53   C54   1.401439 A    
C88   C89   1.403489 A    
C76   H31   1.079992 S    
C46   C50   1.405334 A    
N10   O42   1.301018 A    
O22   C61   1.275308 A    
O13   C57   1.274999 A    
C29   H15   1.082844 S    
C29   C30   1.393615 A    
C70   C71   1.400126 A    
O19   Zn5   2.025021 S    
