data_mof_unit_65306.cif
_audit_creation_date              2012-12-10T19:53:08-0500
_audit_creation_method            fapswitch 2.2
_symmetry_space_group_name_H-M    P1
_symmetry_Int_Tables_number       1
_space_group_crystal_system       triclinic
_cell_length_a                    18.279374
_cell_length_b                    18.279302
_cell_length_c                    38.75891
_cell_angle_alpha                 89.999598
_cell_angle_beta                  89.99948
_cell_angle_gamma                 90.000281
_cell_volume                      12950.6772962

loop_
_atom_site_label
_atom_site_type_symbol
_atom_type_description
_atom_site_fract_x
_atom_site_fract_y
_atom_site_fract_z
_atom_type_partial_charge
C1    C     C_R   0.500000 0.141146 0.499996 1.024698
C2    C     C_R   0.999999 0.499998 0.215236 0.373539
C3    C     C_2   0.122255 0.563479 0.396102 0.971576
C4    C     C_2   0.437406 0.877295 0.603888 0.971039
C5    C     C_2   0.878101 0.564167 0.603904 0.971966
C6    C     C_2   0.562587 0.122708 0.603885 0.971035
C7    C     C_2   0.121901 0.435836 0.603904 0.971959
C8    C     C_2   0.937625 0.622814 0.896116 0.970936
C9    C     C_2   0.377893 0.936235 0.896100 0.971738
C10   C     C_2   0.062382 0.377188 0.896115 0.970931
C11   C     C_2   0.622108 0.063766 0.896100 0.971739
C12   C     C_2   0.936976 0.377512 0.103891 0.971292
C13   C     C_R   0.500003 0.000002 0.784757 0.373553
C14   C     C_2   0.377625 0.063239 0.103895 0.971438
C15   C     C_2   0.063023 0.622487 0.103891 0.971292
C16   C     C_2   0.622376 0.936758 0.103893 0.971439
C17   C     C_2   0.440254 0.124189 0.321169 0.983780
C18   C     C_2   0.875827 0.440215 0.321171 0.983774
C19   C     C_2   0.559745 0.875806 0.321171 0.983784
C20   C     C_2   0.124174 0.559780 0.321169 0.983779
C21   C     C_2   0.441191 0.875360 0.678823 0.983800
C22   C     C_2   0.876203 0.560562 0.678835 0.983827
C23   C     C_2   0.558815 0.124640 0.678820 0.983797
C24   C     C_R   0.999997 0.499999 0.784773 0.373507
C25   C     C_2   0.123795 0.439440 0.678835 0.983835
C26   C     C_2   0.941438 0.624757 0.821179 0.983759
C27   C     C_2   0.375986 0.939893 0.821168 0.983799
C28   C     C_2   0.058554 0.375242 0.821178 0.983768
C29   C     C_2   0.624019 0.060110 0.821168 0.983795
C30   C     C_2   0.940702 0.375590 0.178826 0.983816
C31   C     C_2   0.375703 0.059517 0.178829 0.983808
C32   C     C_2   0.059300 0.624405 0.178826 0.983815
C33   C     C_2   0.624302 0.940478 0.178827 0.983804
C34   C     C_R   0.999998 0.499999 0.715247 0.373529
C35   C     C_R   0.500004 0.000001 0.715231 0.373577
C36   C     C_R   0.999999 0.499999 0.284761 0.373526
C37   C     C_R   0.500003 0.999997 0.284762 0.373505
C38   C     C_R   0.500000 1.000000 0.432762 0.944816
C39   C     C_R   0.000000 0.500000 0.432762 0.944907
C40   C     C_R   0.500000 1.000000 0.567236 0.945041
C41   C     C_R   0.858854 0.500000 0.500003 1.024421
C42   C     C_R   0.000000 0.500000 0.567239 0.944745
C43   C     C_R   0.000000 0.500000 0.932765 0.945052
C44   C     C_R   0.500000 0.000000 0.932762 0.944804
C45   C     C_R   1.000000 0.500000 0.067237 0.944889
C46   C     C_R   0.500000 1.000000 0.067237 0.944923
C47   C     C_1   0.500000 0.217537 0.499997 -0.084986
C48   C     C_1   0.782463 0.499999 0.500002 -0.085207
C49   C     C_1   0.499999 0.782463 0.499997 -0.084986
C50   C     C_1   0.217537 0.500000 0.500003 -0.085209
C51   C     C_1   0.000000 0.717537 0.000002 -0.084890
C52   C     C_R   0.500000 0.858854 0.499996 1.024708
C53   C     C_1   0.282463 1.000000 0.999998 -0.085109
C54   C     C_1   1.000000 0.282463 0.000002 -0.084889
C55   C     C_1   0.717537 0.000000 0.999998 -0.085105
C56   C     C_1   0.500000 0.282255 0.499999 -0.142374
C57   C     C_1   0.717745 0.500000 0.500000 -0.142280
C58   C     C_1   0.499999 0.717745 0.499999 -0.142375
C59   C     C_1   0.282255 0.500000 0.500001 -0.142284
C60   C     C_1   0.000000 0.782255 0.000001 -0.142422
C61   C     C_1   0.217745 1.000000 0.999999 -0.142326
C62   C     C_1   1.000000 0.217745 0.000000 -0.142423
C63   C     C_R   0.141146 0.500000 0.500003 1.024434
C64   C     C_1   0.782255 0.000000 1.000000 -0.142326
C65   C     C_R   0.469530 0.059986 0.376879 -0.093919
C66   C     C_R   0.940022 0.469512 0.376879 -0.093931
C67   C     C_R   0.530472 0.940013 0.376879 -0.093918
C68   C     C_R   0.059978 0.530488 0.376878 -0.093934
C69   C     C_R   0.469961 0.939797 0.623115 -0.093786
C70   C     C_R   0.940199 0.530834 0.623126 -0.094061
C71   C     C_R   0.530038 0.060204 0.623114 -0.093783
C72   C     C_R   0.059800 0.469165 0.623126 -0.094065
C73   C     C_R   0.970069 0.560257 0.876887 -0.093735
C74   C     C_R   0.000000 0.641146 0.000003 1.024802
C75   C     C_R   0.440097 0.969368 0.876876 -0.093986
C76   C     C_R   0.029932 0.439743 0.876887 -0.093735
C77   C     C_R   0.559905 0.030634 0.876877 -0.093986
C78   C     C_R   0.969739 0.439906 0.123118 -0.093857
C79   C     C_R   0.439962 0.030366 0.123120 -0.093891
C80   C     C_R   0.030259 0.560093 0.123118 -0.093857
C81   C     C_R   0.560040 0.969631 0.123119 -0.093891
C82   C     C_R   0.469937 0.060225 0.340492 -0.078897
C83   C     C_R   0.939783 0.469917 0.340492 -0.078881
C84   C     C_R   0.530066 0.939773 0.340492 -0.078891
C85   C     C_R   0.358854 1.000000 0.999997 1.024537
C86   C     C_R   0.060217 0.530081 0.340491 -0.078881
C87   C     C_R   0.470381 0.939555 0.659502 -0.078817
C88   C     C_R   0.939964 0.530443 0.659514 -0.078943
C89   C     C_R   0.529623 0.060447 0.659501 -0.078817
C90   C     C_R   0.060033 0.469556 0.659514 -0.078943
C91   C     C_R   0.970489 0.560500 0.840500 -0.078801
C92   C     C_R   0.439861 0.969769 0.840489 -0.078904
C93   C     C_R   0.029507 0.439499 0.840500 -0.078798
C94   C     C_R   0.560143 0.030234 0.840489 -0.078904
C95   C     C_R   0.970149 0.439666 0.159505 -0.078858
C96   C     C_R   1.000000 0.358854 0.000003 1.024814
C97   C     C_R   0.439723 0.029955 0.159507 -0.078871
C98   C     C_R   0.029849 0.560332 0.159505 -0.078859
C99   C     C_R   0.560281 0.970040 0.159506 -0.078870
C100  C     C_R   0.500002 0.999999 0.322537 -0.103489
C101  C     C_R   0.999999 0.499999 0.322537 -0.103490
C102  C     C_R   0.500003 0.000000 0.677456 -0.103604
C103  C     C_R   0.999998 0.499999 0.677470 -0.103380
C104  C     C_R   0.999997 0.499999 0.822546 -0.103631
C105  C     C_R   0.500003 0.000002 0.822534 -0.103446
C106  C     C_R   0.999999 0.499998 0.177460 -0.103537
C107  C     C_R   0.641146 0.000000 0.999997 1.024538
C108  C     C_R   0.500002 0.999997 0.177461 -0.103512
C109  C     C_R   0.358650 0.500000 0.500000 0.912973
C110  C     C_R   0.500000 0.358650 0.500000 0.912947
C111  C     C_R   0.641350 0.500000 0.500000 0.912973
C112  C     C_R   0.500000 0.641350 0.500000 0.912949
C113  C     C_R   0.858650 0.000000 0.000000 0.912967
C114  C     C_R   0.000000 0.858650 0.000000 0.912944
C115  C     C_R   0.141350 1.000000 1.000000 0.912969
C116  C     C_R   1.000000 0.141350 1.000000 0.912945
C117  C     C_R   0.500001 0.999999 0.394902 -0.195017
C118  C     C_R   0.500003 0.999997 0.215237 0.373503
C119  C     C_R   1.000000 0.500000 0.394902 -0.195054
C120  C     C_R   0.499999 0.000001 0.605093 -0.194902
C121  C     C_R   1.000000 0.500000 0.605101 -0.195110
C122  C     C_R   0.000001 0.500000 0.894908 -0.194869
C123  C     C_R   0.500001 0.000001 0.894901 -0.195053
C124  C     C_R   0.999999 0.500000 0.105095 -0.194927
C125  C     C_R   0.500001 0.999999 0.105096 -0.195002
C126  C     C_2   0.436555 0.122270 0.396103 0.971569
C127  C     C_2   0.877746 0.436520 0.396105 0.971581
C128  C     C_2   0.563444 0.877727 0.396105 0.971554
H1    H     H_    0.349648 0.188800 0.402683 0.357965
H2    H     H_    0.311585 0.849156 0.902680 0.358018
H3    H     H_    0.148697 0.309880 0.902673 0.357909
H4    H     H_    0.688414 0.150846 0.902680 0.358016
H5    H     H_    0.850305 0.310669 0.097320 0.357961
H6    H     H_    0.310941 0.150031 0.097322 0.357965
H7    H     H_    0.149694 0.689330 0.097318 0.357961
H8    H     H_    0.689060 0.849966 0.097318 0.357965
H9    H     H_    0.437541 0.233853 0.315438 0.369083
H10   H     H_    0.766164 0.437480 0.315438 0.369079
H11   H     H_    0.562439 0.766142 0.315437 0.369082
H12   H     H_    0.811237 0.349595 0.402683 0.357955
H13   H     H_    0.233837 0.562506 0.315434 0.369079
H14   H     H_    0.439314 0.765675 0.684543 0.369036
H15   H     H_    0.766564 0.563974 0.684584 0.369117
H16   H     H_    0.560693 0.234325 0.684541 0.369035
H17   H     H_    0.233435 0.436039 0.684586 0.369117
H18   H     H_    0.939770 0.734447 0.815467 0.369036
H19   H     H_    0.266332 0.936881 0.815427 0.369099
H20   H     H_    0.060213 0.265551 0.815467 0.369036
H21   H     H_    0.733673 0.063123 0.815427 0.369098
H22   H     H_    0.938400 0.265916 0.184556 0.369067
H23   H     H_    0.650346 0.811188 0.402682 0.357966
H24   H     H_    0.266034 0.062018 0.184560 0.369081
H25   H     H_    0.061605 0.734078 0.184556 0.369068
H26   H     H_    0.733971 0.937979 0.184556 0.369081
H27   H     H_    0.188769 0.650401 0.402677 0.357956
H28   H     H_    0.350970 0.810144 0.597325 0.357901
H29   H     H_    0.812093 0.651470 0.597317 0.358022
H30   H     H_    0.649018 0.189864 0.597317 0.357899
H31   H     H_    0.187923 0.348541 0.597321 0.358025
H32   H     H_    0.851311 0.690120 0.902679 0.357908
N1    N     N_R   0.545199 0.045405 0.267149 -0.111702
N2    N     N_R   0.545679 0.955077 0.767145 -0.111784
N3    N     N_R   0.954168 0.455231 0.767162 -0.111575
N4    N     N_R   0.454328 0.044926 0.767144 -0.111785
N5    N     N_R   0.045330 0.454725 0.232848 -0.111720
N6    N     N_R   0.545326 0.045278 0.232848 -0.111696
N7    N     N_R   0.954668 0.545271 0.232848 -0.111721
N8    N     N_R   0.454680 0.954716 0.232849 -0.111697
N9    N     N_R   0.045457 0.454853 0.267149 -0.111730
N10   N     N_R   0.454808 0.954589 0.267150 -0.111703
N11   N     N_R   0.954542 0.545144 0.267149 -0.111731
N12   N     N_R   0.545553 0.954949 0.732843 -0.111699
N13   N     N_R   0.045952 0.544639 0.732860 -0.111847
N14   N     N_R   0.454454 0.045053 0.732843 -0.111700
N15   N     N_R   0.954043 0.455359 0.732861 -0.111848
N16   N     N_R   0.045826 0.544768 0.767161 -0.111575
O1    O     O_R   0.560480 0.107240 0.500130 -0.615286
O2    O     O_R   0.392760 0.060480 0.000130 -0.615119
O3    O     O_R   0.305045 0.960867 0.830356 -0.764014
O4    O     O_2   0.101357 0.384163 0.797289 -0.558035
O5    O     O_R   0.036741 0.304572 0.830399 -0.764004
O6    O     O_2   0.614546 0.102863 0.797306 -0.557966
O7    O     O_R   0.694960 0.039137 0.830357 -0.764013
O8    O     O_2   0.897912 0.384777 0.202698 -0.558007
O9    O     O_R   0.962121 0.304789 0.169625 -0.764002
O10   O     O_2   0.384968 0.102288 0.202702 -0.558015
O11   O     O_R   0.304863 0.038229 0.169628 -0.764000
O12   O     O_2   0.102090 0.615216 0.202697 -0.558007
O13   O     O_R   0.939520 0.392760 0.000130 -0.614795
O14   O     O_R   0.037882 0.695207 0.169625 -0.764001
O15   O     O_2   0.615039 0.897707 0.202700 -0.558021
O16   O     O_R   0.695141 0.961768 0.169624 -0.764001
O17   O     O_R   0.607240 0.939520 0.000130 -0.615120
O18   O     O_R   0.060480 0.392760 0.999870 -0.615233
O19   O     O_R   0.392760 0.939520 0.999870 -0.614751
O20   O     O_R   0.939520 0.607240 0.999870 -0.615240
O21   O     O_R   0.607240 0.060480 0.999870 -0.614752
O22   O     O_R   0.560480 0.999920 0.449200 -0.609756
O23   O     O_R   0.000080 0.560480 0.449200 -0.609726
O24   O     O_R   0.439520 0.000080 0.449200 -0.609755
O25   O     O_R   0.892760 0.560480 0.500130 -0.614667
O26   O     O_R   0.999920 0.439520 0.449200 -0.609727
O27   O     O_R   0.560480 0.000080 0.550800 -0.609645
O28   O     O_R   0.000080 0.439520 0.550800 -0.609810
O29   O     O_R   0.439520 0.999920 0.550800 -0.609641
O30   O     O_R   0.999920 0.560480 0.550800 -0.609809
O31   O     O_R   0.060480 0.499920 0.949200 -0.609625
O32   O     O_R   0.500080 0.060480 0.949200 -0.609770
O33   O     O_R   0.939520 0.500080 0.949200 -0.609629
O34   O     O_R   0.499920 0.939520 0.949200 -0.609769
O35   O     O_R   0.060480 0.500080 0.050800 -0.609710
O36   O     O_R   0.439520 0.892760 0.500130 -0.615280
O37   O     O_R   0.500080 0.939520 0.050800 -0.609707
O38   O     O_R   0.939520 0.499920 0.050800 -0.609709
O39   O     O_R   0.499920 0.060480 0.050800 -0.609706
O40   O     O_R   0.392500 0.499870 0.471390 -0.606986
O41   O     O_R   0.500130 0.392500 0.471390 -0.606985
O42   O     O_R   0.607500 0.500130 0.471390 -0.606987
O43   O     O_R   0.499870 0.607500 0.471390 -0.606986
O44   O     O_R   0.392500 0.500130 0.528610 -0.606988
O45   O     O_R   0.500130 0.607500 0.528610 -0.607000
O46   O     O_R   0.607500 0.499870 0.528610 -0.606986
O47   O     O_R   0.107240 0.439520 0.500130 -0.614665
O48   O     O_R   0.499870 0.392500 0.528610 -0.607000
O49   O     O_R   0.892500 0.999870 0.971390 -0.606993
O50   O     O_R   0.000130 0.892500 0.971390 -0.607006
O51   O     O_R   0.107500 0.000130 0.971390 -0.606993
O52   O     O_R   0.999870 0.107500 0.971390 -0.607008
O53   O     O_R   0.892500 0.000130 0.028610 -0.606993
O54   O     O_R   0.000130 0.107500 0.028610 -0.606994
O55   O     O_R   0.107500 0.999870 0.028610 -0.606994
O56   O     O_R   0.999870 0.892500 0.028610 -0.606994
O57   O     O_2   0.471334 0.152992 0.418817 -0.640567
O58   O     O_R   0.560480 0.892760 0.499870 -0.614697
O59   O     O_R   0.365907 0.145944 0.387954 -0.763101
O60   O     O_2   0.847018 0.471290 0.418820 -0.640512
O61   O     O_R   0.854088 0.365866 0.387954 -0.763109
O62   O     O_2   0.528665 0.847009 0.418820 -0.640573
O63   O     O_R   0.634089 0.854045 0.387953 -0.763102
O64   O     O_2   0.152980 0.528712 0.418819 -0.640514
O65   O     O_R   0.145917 0.634131 0.387949 -0.763107
O66   O     O_2   0.472374 0.846843 0.581158 -0.640692
O67   O     O_R   0.366938 0.853108 0.612054 -0.763111
O68   O     O_2   0.847160 0.529555 0.581199 -0.640405
O69   O     O_R   0.892760 0.439520 0.499870 -0.615149
O70   O     O_R   0.854861 0.634966 0.612042 -0.763105
O71   O     O_2   0.527613 0.153161 0.581158 -0.640691
O72   O     O_R   0.633055 0.146898 0.612047 -0.763111
O73   O     O_2   0.152836 0.470447 0.581197 -0.640414
O74   O     O_R   0.145153 0.365041 0.612045 -0.763104
O75   O     O_2   0.972646 0.653203 0.918846 -0.640734
O76   O     O_R   0.867202 0.647129 0.887949 -0.763092
O77   O     O_2   0.347079 0.970938 0.918813 -0.640490
O78   O     O_R   0.354404 0.865523 0.887953 -0.763083
O79   O     O_2   0.027369 0.346803 0.918849 -0.640742
O80   O     O_R   0.439520 0.107240 0.499870 -0.614695
O81   O     O_R   0.132801 0.352870 0.887943 -0.763093
O82   O     O_2   0.652922 0.029063 0.918812 -0.640490
O83   O     O_R   0.645596 0.134480 0.887954 -0.763082
O84   O     O_2   0.971851 0.346925 0.081170 -0.640650
O85   O     O_R   0.866416 0.353580 0.112048 -0.763088
O86   O     O_2   0.346972 0.028416 0.081176 -0.640564
O87   O     O_R   0.353822 0.133842 0.112051 -0.763093
O88   O     O_2   0.028147 0.653075 0.081170 -0.640651
O89   O     O_R   0.133582 0.646418 0.112047 -0.763088
O90   O     O_2   0.653030 0.971582 0.081173 -0.640566
O91   O     O_R   0.107240 0.560480 0.499870 -0.615146
O92   O     O_R   0.646179 0.866155 0.112047 -0.763094
O93   O     O_2   0.397503 0.114843 0.297295 -0.558018
O94   O     O_R   0.461406 0.195070 0.330371 -0.764019
O95   O     O_2   0.885185 0.397455 0.297302 -0.557996
O96   O     O_R   0.804941 0.461357 0.330369 -0.764028
O97   O     O_2   0.602506 0.885148 0.297301 -0.558013
O98   O     O_R   0.538578 0.804927 0.330369 -0.764020
O99   O     O_2   0.114818 0.602540 0.297299 -0.557993
O100  O     O_R   0.195059 0.538633 0.330366 -0.764028
O101  O     O_2   0.398385 0.884375 0.702703 -0.558007
O102  O     O_R   0.060480 0.607240 0.000130 -0.614793
O103  O     O_R   0.462875 0.804645 0.669612 -0.764021
O104  O     O_2   0.885840 0.603301 0.702688 -0.557966
O105  O     O_R   0.805184 0.539834 0.669657 -0.764030
O106  O     O_2   0.601625 0.115625 0.702699 -0.558009
O107  O     O_R   0.537130 0.195356 0.669611 -0.764018
O108  O     O_2   0.114159 0.396698 0.702687 -0.557964
O109  O     O_R   0.194813 0.460176 0.669658 -0.764028
O110  O     O_2   0.898638 0.615832 0.797289 -0.558040
O111  O     O_R   0.963245 0.695428 0.830400 -0.764000
O112  O     O_2   0.385460 0.897140 0.797306 -0.557963
Zn1   Zn    Zn3+2 0.580810 0.000000 0.500000 1.058730
Zn2   Zn    Zn3+2 0.500000 0.500000 0.538260 1.060641
Zn3   Zn    Zn3+2 0.000000 0.000000 0.961740 1.060577
Zn4   Zn    Zn3+2 1.000000 0.000000 0.038260 1.060599
Zn5   Zn    Zn3+2 0.000000 0.580810 0.500000 1.058701
Zn6   Zn    Zn3+2 0.419190 0.000000 0.500000 1.058735
Zn7   Zn    Zn3+2 1.000000 0.419190 0.500000 1.058700
Zn8   Zn    Zn3+2 0.080810 0.500000 0.000000 1.058780
Zn9   Zn    Zn3+2 0.500000 0.080810 0.000000 1.058742
Zn10  Zn    Zn3+2 0.919190 0.500000 0.000000 1.058778
Zn11  Zn    Zn3+2 0.500000 0.919190 0.000000 1.058743
Zn12  Zn    Zn3+2 0.500000 0.500000 0.461740 1.060667

loop_
_geom_bond_atom_site_label_1
_geom_bond_atom_site_label_2
_ccdc_geom_bond_type
O80   Zn6   S    
C21   C87   S    
C8    O75   D    
H7    O89   S    
H6    O87   S    
O40   Zn12  S    
O26   Zn7   S    
C89   C102  A    
C68   C86   A    
C112  O45   A    
H32   O76   S    
C46   C125  S    
C60   C114  S    
C9    O78   S    
C51   C74   S    
C107  O17   A    
C5    O70   S    
C109  O40   A    
C70   C88   A    
C47   C56   T    
H22   O9    S    
C18   O96   S    
C52   O58   A    
C48   C57   T    
C94   C105  A    
O21   Zn9   S    
C128  O63   S    
H5    O85   S    
C99   C108  A    
C25   C90   S    
C45   O35   A    
H30   O72   S    
C71   C120  A    
H1    O59   S    
C33   O16   S    
C75   C123  A    
C50   C59   T    
C37   C100  S    
C6    O72   S    
H28   O67   S    
C27   O3    S    
C26   O110  D    
C21   O101  D    
C21   O103  S    
C68   C119  A    
C114  O56   A    
C29   C94   S    
C72   C121  A    
C22   O104  D    
C23   O106  D    
C19   O98   S    
C128  O62   D    
O25   Zn5   S    
O39   Zn9   S    
O22   Zn1   S    
C77   C94   A    
C44   O32   A    
C72   C90   A    
C66   C127  S    
O28   Zn7   S    
C17   C82   S    
C3    O65   S    
O58   Zn1   S    
C4    O66   D    
O91   Zn5   S    
C110  O41   A    
O34   Zn11  S    
C16   C81   S    
O30   Zn5   S    
C39   O23   A    
H18   O111  S    
C14   O86   D    
C44   C123  S    
C66   C83   A    
H3    O81   S    
C97   C108  A    
C1    O1    A    
C41   C48   S    
C74   O102  A    
C3    C68   S    
O48   Zn2   S    
C85   O2    A    
O49   Zn3   S    
C12   C78   S    
C61   C115  S    
C81   C125  A    
C23   C89   S    
H11   O98   S    
N4    N14   A    
C34   N15   A    
C111  O42   A    
C22   C88   S    
O31   Zn8   S    
H31   O74   S    
H17   O109  S    
O35   Zn8   S    
C91   C104  A    
C4    O67   S    
C54   C96   S    
N1    N6    A    
C69   C87   A    
C1    O80   A    
O18   Zn8   S    
C3    O64   D    
C80   C98   A    
C35   C102  S    
N8    N10   A    
C79   C125  A    
C110  O48   A    
C67   C84   A    
C34   N13   A    
C8    C73   S    
C46   O37   A    
C15   O88   D    
C50   C63   S    
C38   C117  S    
C10   C76   S    
O32   Zn9   S    
H24   O11   S    
C27   C92   S    
C93   C104  A    
C56   C110  S    
C18   O95   D    
O46   Zn2   S    
N3    N15   A    
C18   C83   S    
H4    O83   S    
H25   O14   S    
C45   C124  S    
N5    N9    A    
C6    C71   S    
C74   O20   A    
H15   O105  S    
C29   O6    D    
C32   O12   D    
C7    O74   S    
C43   O31   A    
C10   O79   D    
C84   C100  A    
C30   O9    S    
C63   O47   A    
C6    O71   D    
C13   N2    A    
C85   O19   A    
O36   Zn6   S    
C73   C91   A    
C13   C105  S    
C14   O87   S    
O42   Zn12  S    
C7    C72   S    
C107  O21   A    
C44   O34   A    
C1    C47   S    
H20   O5    S    
H10   O96   S    
O13   Zn10  S    
C81   C99   A    
O19   Zn11  S    
C26   C91   S    
O33   Zn10  S    
C54   C62   T    
C2    C106  S    
C49   C52   S    
C57   C111  S    
C49   C58   T    
C20   C86   S    
C28   C93   S    
C33   C99   S    
C111  O46   A    
C11   O83   S    
C96   O13   A    
C82   C100  A    
C28   O5    S    
C11   O82   D    
C115  O51   A    
C30   C95   S    
C77   C123  A    
C95   C106  A    
C108  C118  S    
C76   C93   A    
C114  O50   A    
C87   C102  A    
C28   O4    D    
C116  O54   A    
C15   C80   S    
C71   C89   A    
C40   O27   A    
C78   C95   A    
O51   Zn3   S    
O102  Zn8   S    
C55   C64   T    
H16   O107  S    
C38   O22   A    
C45   O38   A    
C36   N9    A    
C10   O81   S    
C32   O14   S    
C20   O100  S    
C16   O92   S    
C14   C79   S    
C25   O108  D    
C126  O59   S    
C67   C117  A    
C2    N5    A    
C118  N6    A    
O55   Zn4   S    
O37   Zn11  S    
C35   N12   A    
C75   C92   A    
O17   Zn11  S    
H27   O65   S    
O54   Zn4   S    
C40   C120  S    
O52   Zn3   S    
C116  O52   A    
C127  O61   S    
C66   C119  A    
C22   O105  S    
C58   C112  S    
C24   N3    A    
C41   O25   A    
C19   C84   S    
C24   N16   A    
H2    O78   S    
C37   N10   A    
C88   C103  A    
C78   C124  A    
C115  O55   A    
C13   N4    A    
C37   N1    A    
H29   O70   S    
N13   N16   A    
O44   Zn2   S    
H26   O16   S    
C40   O29   A    
C8    O76   S    
C36   N11   A    
C64   C113  S    
C83   C101  A    
C17   O93   D    
C41   O69   A    
C35   N14   A    
O24   Zn6   S    
C53   C61   T    
C79   C97   A    
O53   Zn4   S    
C9    O77   D    
O41   Zn12  S    
C17   O94   S    
C15   O89   S    
C5    C70   S    
C118  N8    A    
H14   O103  S    
O56   Zn4   S    
N7    N11   A    
H9    O94   S    
C113  O53   A    
C24   C104  S    
C23   O107  S    
H23   O63   S    
C42   O28   A    
C30   O8    D    
C69   C120  A    
O1    Zn1   S    
C34   C103  S    
C98   C106  A    
H21   O7    S    
H8    O92   S    
C33   O15   D    
C76   C122  A    
C65   C126  S    
C7    O73   D    
C46   O39   A    
C11   C77   S    
C126  O57   D    
C20   O99   D    
C4    C69   S    
C109  O44   A    
C67   C128  S    
O47   Zn7   S    
C70   C121  A    
C65   C82   A    
C19   O97   D    
O20   Zn10  S    
O45   Zn2   S    
O69   Zn7   S    
C39   C119  S    
C31   O10   D    
C96   O18   A    
H12   O61   S    
C59   C109  S    
C112  O43   A    
C32   C98   S    
O43   Zn12  S    
C42   O30   A    
O2    Zn9   S    
C38   O24   A    
C12   O85   S    
C31   C97   S    
C5    O68   D    
C25   O109  S    
C43   O33   A    
C12   O84   D    
C90   C103  A    
C80   C124  A    
C62   C116  S    
C29   O7    S    
C27   O112  D    
H19   O3    S    
C92   C105  A    
C26   O111  S    
N2    N12   A    
O50   Zn3   S    
C73   C122  A    
O23   Zn5   S    
C39   O26   A    
C55   C107  S    
C52   O36   A    
C65   C117  A    
C36   C101  S    
O27   Zn1   S    
C53   C85   S    
C51   C60   T    
C9    C75   S    
H13   O100  S    
C31   O11   S    
O29   Zn6   S    
C127  O60   D    
C86   C101  A    
C63   O91   A    
C2    N7    A    
O38   Zn10  S    
C16   O90   D    
C42   C121  S    
C43   C122  S    
C113  O49   A    
