data_mof_unit_57388.cif
_audit_creation_date              2012-12-10T17:50:41-0500
_audit_creation_method            fapswitch 2.2
_symmetry_space_group_name_H-M    P1
_symmetry_Int_Tables_number       1
_space_group_crystal_system       triclinic
_cell_length_a                    15.717944
_cell_length_b                    10.629127
_cell_length_c                    9.934366
_cell_angle_alpha                 89.905556
_cell_angle_beta                  89.863681
_cell_angle_gamma                 91.598587
_cell_volume                      1659.06179471

loop_
_atom_site_label
_atom_site_type_symbol
_atom_type_description
_atom_site_fract_x
_atom_site_fract_y
_atom_site_fract_z
_atom_type_partial_charge
C1    C     C_R   0.502145 0.260763 0.500117 0.844868
C2    C     C_R   0.713008 0.073807 0.679280 -0.138776
C3    C     C_R   0.713137 0.942890 0.678867 -0.145044
C4    C     C_R   0.338058 0.499713 0.500143 0.889267
C5    C     C_R   0.645906 0.874555 0.620267 -0.188352
C6    C     C_R   0.576649 0.937050 0.561959 0.094054
C7    C     C_R   0.576513 0.068959 0.562347 0.097813
C8    C     C_R   0.507877 0.128656 0.499942 -0.083171
C9    C     C_R   0.443064 0.062014 0.434000 -0.218464
C10   C     C_R   0.443189 0.933456 0.433694 -0.201133
C11   C     C_R   0.508132 0.871949 0.499298 -0.096281
C12   C     C_3   0.082818 0.498445 0.501050 0.182515
C13   C     C_R   0.389020 0.334357 0.140422 -0.144366
C14   C     C_R   0.334566 0.252463 0.070657 -0.199072
C15   C     C_R   0.334544 0.252510 0.931327 -0.190565
C16   C     C_R   0.502377 0.739386 0.499847 0.865117
C17   C     C_R   0.389016 0.334399 0.860876 -0.141957
C18   C     C_R   0.445384 0.418348 0.928089 0.164928
C19   C     C_R   0.445393 0.418370 0.072550 0.169150
C20   C     C_R   0.552251 0.578140 0.071074 -0.108564
C21   C     C_R   0.552234 0.578110 0.928105 -0.107019
C22   C     C_R   0.661923 0.500219 0.499881 0.876807
C23   C     C_3   0.973850 0.592686 0.570803 0.151851
C24   C     C_3   0.969966 0.388864 0.554832 -0.196001
C25   C     C_3   0.027138 0.399593 0.427631 -0.154896
C26   C     C_1   0.249074 0.499217 0.500589 -0.189121
C27   C     C_1   0.750821 0.498819 0.499618 -0.187805
C28   C     C_3   0.027634 0.487445 0.628664 -0.168733
C29   C     C_3   0.916977 0.496413 0.499379 0.192845
C30   C     C_3   0.030302 0.606542 0.445312 -0.216663
C31   C     C_3   0.972603 0.507424 0.372364 -0.187129
C32   C     C_1   0.173725 0.498815 0.500960 -0.075143
C33   C     C_1   0.826102 0.497477 0.499476 -0.066393
C34   C     C_R   0.645651 0.136849 0.621097 -0.171276
H1    H     H_    0.051513 0.319738 0.368371 0.132730
H2    H     H_    0.594934 0.642065 0.874230 0.147325
H3    H     H_    0.943379 0.299968 0.598647 0.135153
H4    H     H_    0.948194 0.514761 0.267955 0.142165
H5    H     H_    0.056401 0.696239 0.402700 0.134462
H6    H     H_    0.051689 0.481400 0.733391 0.135593
H7    H     H_    0.391410 0.109806 0.385146 0.135894
H8    H     H_    0.649111 0.238515 0.620879 0.152043
H9    H     H_    0.765656 0.126746 0.723616 0.134085
H10   H     H_    0.995192 0.749654 0.683067 0.176096
H11   H     H_    0.909175 0.755027 0.583747 0.176513
H12   H     H_    0.765884 0.894120 0.722869 0.139273
H13   H     H_    0.649557 0.773135 0.619305 0.142491
H14   H     H_    0.391596 0.881522 0.384722 0.151273
H15   H     H_    0.594977 0.642092 0.124316 0.148817
H16   H     H_    0.384892 0.329115 0.247165 0.196644
H17   H     H_    0.291983 0.188742 0.125244 0.142219
H18   H     H_    0.291922 0.188849 0.877294 0.146890
H19   H     H_    0.384947 0.329258 0.754134 0.201423
N1    N     N_R   0.499210 0.498800 0.142780 -0.121939
N2    N     N_R   0.499180 0.498720 0.857170 -0.121693
N3    N     N_3   0.942252 0.697138 0.649396 -0.469735
O1    O     O_R   0.500000 0.316780 0.614690 -0.640954
O2    O     O_R   0.499990 0.316750 0.385360 -0.629200
O3    O     O_R   0.376780 0.500000 0.614650 -0.627845
O4    O     O_R   0.376770 0.499980 0.385310 -0.631981
O5    O     O_R   0.500010 0.683250 0.614640 -0.614900
O6    O     O_R   0.500000 0.683220 0.385310 -0.611947
O7    O     O_R   0.623230 0.500020 0.614690 -0.623909
O8    O     O_R   0.623220 0.500000 0.385350 -0.606125
Zn1   Zn    Zn3+2 0.500010 0.500020 0.653130 0.934419
Zn2   Zn    Zn3+2 0.499990 0.499980 0.346870 0.941426

loop_
_geom_bond_atom_site_label_1
_geom_bond_atom_site_label_2
_ccdc_geom_bond_type
C25   C31   S    
C4    C26   S    
C24   C25   S    
O7    Zn1   S    
C26   C32   T    
C6    C7    A    
N1    Zn2   S    
C17   H19   S    
C1    C8    S    
C9    C10   A    
H10   N3    S    
C3    H12   S    
C9    H7    S    
C14   H17   S    
C34   H8    S    
C31   H4    S    
C2    H9    S    
C4    O4    A    
C17   C18   A    
O4    Zn2   S    
C23   N3    S    
C29   C31   S    
C21   H2    S    
C1    O2    A    
C27   C33   T    
C24   C29   S    
C5    H13   S    
C30   C31   S    
C2    C34   A    
C20   H15   S    
C16   O6    A    
C18   N2    A    
C25   H1    S    
C23   C29   S    
C4    O3    A    
H11   N3    S    
N2    Zn1   S    
C12   C28   S    
C30   H5    S    
C24   H3    S    
C1    O1    A    
C22   C27   S    
C12   C32   S    
C10   H14   S    
C5    C6    A    
C7    C34   A    
C11   C16   S    
C23   C28   S    
C16   O5    A    
C28   H6    S    
C12   C25   S    
C22   O8    A    
C13   H16   S    
C23   C30   S    
O5    Zn1   S    
C7    C8    A    
C20   C21   A    
C19   N1    A    
C20   N1    A    
C18   C19   A    
C10   C11   A    
C6    C11   A    
C15   C17   A    
C13   C19   A    
O6    Zn2   S    
C14   C15   A    
C21   N2    A    
C2    C3    A    
C13   C14   A    
C12   C30   S    
C22   O7    A    
C15   H18   S    
O2    Zn2   S    
O3    Zn1   S    
C24   C28   S    
C29   C33   S    
O1    Zn1   S    
C8    C9    A    
C3    C5    A    
O8    Zn2   S    
