data_mof_unit_43365.cif
_audit_creation_date              2012-12-11T14:48:00-0500
_audit_creation_method            fapswitch 2.2
_symmetry_space_group_name_H-M    P1
_symmetry_Int_Tables_number       1
_space_group_crystal_system       triclinic
_cell_length_a                    11.487282
_cell_length_b                    11.48527
_cell_length_c                    19.450276
_cell_angle_alpha                 90.593335
_cell_angle_beta                  89.57731
_cell_angle_gamma                 60.243513
_cell_volume                      2227.44456789

loop_
_atom_site_label
_atom_site_type_symbol
_atom_type_description
_atom_site_fract_x
_atom_site_fract_y
_atom_site_fract_z
_atom_type_partial_charge
C1    C     C_R   0.640604 0.118297 0.598920 0.548821
C2    C     C_1   0.651271 0.682241 0.663620 0.001271
C3    C     C_1   0.059931 0.236146 0.850754 -0.002030
C4    C     C_1   0.129830 0.192007 0.721113 -0.029178
C5    C     C_1   0.090057 0.215155 0.790755 -0.029468
C6    C     C_1   0.172385 0.172073 0.662995 -0.001049
C7    C     C_1   0.679176 0.190375 0.860949 0.003985
C8    C     C_1   0.658413 0.168653 0.728867 -0.030476
C9    C     C_1   0.666024 0.180916 0.800342 -0.030740
C10   C     C_1   0.652645 0.151560 0.668285 0.004556
C11   C     C_R   0.598364 0.591105 0.315727 -0.141040
C12   C     C_R   0.613663 0.742974 0.597734 0.549148
C13   C     C_R   0.611778 0.559090 0.246422 -0.138899
C14   C     C_R   0.709704 0.565857 0.206772 0.024845
C15   C     C_R   0.803811 0.591665 0.238901 -0.136778
C16   C     C_R   0.785447 0.631745 0.307756 -0.138440
C17   C     C_R   0.674929 0.642682 0.344486 0.024420
C18   C     C_R   0.226357 0.264272 0.286715 0.004473
C19   C     C_R   0.197013 0.277370 0.217625 -0.113628
C20   C     C_R   0.168024 0.188584 0.183832 -0.012537
C21   C     C_R   0.196801 0.068400 0.213037 -0.116270
C22   C     C_R   0.247709 0.037611 0.279374 -0.031092
C23   C     C_R   0.237161 0.147066 0.597198 0.558545
C24   C     C_R   0.253950 0.140130 0.319523 0.018218
C25   C     C_R   0.759380 0.033426 0.285576 0.027257
C26   C     C_R   0.734669 0.045808 0.214707 0.030839
C27   C     C_R   0.658713 0.176071 0.188396 0.028245
C28   C     C_R   0.570743 0.280655 0.231814 -0.158991
C29   C     C_R   0.574359 0.262171 0.302260 -0.159972
C30   C     C_R   0.667278 0.138958 0.330195 0.022542
C31   C     C_R   0.023168 0.264217 0.921863 0.540224
C32   C     C_R   0.709587 0.545921 0.922417 0.541903
C33   C     C_R   0.708333 0.206240 0.930340 0.530738
C34   C     C_R   0.645923 0.110548 0.401263 0.532604
C35   C     C_R   0.088901 0.233692 0.122485 0.551273
C36   C     C_R   0.711754 0.545756 0.132549 0.572416
C37   C     C_R   0.703466 0.208154 0.124368 0.539373
C38   C     C_R   0.621890 0.730215 0.405135 0.529738
C39   C     C_R   0.296198 0.118264 0.392686 0.547528
C40   C     C_1   0.700446 0.579921 0.851388 -0.005578
C41   C     C_1   0.673461 0.643171 0.721751 -0.028564
C42   C     C_1   0.690623 0.607204 0.791406 -0.030437
Cr1   Cr    Cr6+3 0.404720 0.198220 0.499960 1.009612
Cr2   Cr    Cr6+3 0.698290 0.897110 0.500380 1.013771
Cr3   Cr    Cr6+3 0.396970 0.904720 0.499610 1.010780
Cr4   Cr    Cr6+3 0.926180 0.152240 0.028110 1.011429
Cr5   Cr    Cr6+3 0.921340 0.452070 0.027460 1.009019
Cr6   Cr    Cr6+3 0.626260 0.447120 0.028700 1.009291
H1    H     H_    0.517548 0.590875 0.344599 0.126578
H2    H     H_    0.501552 0.376887 0.211016 0.113484
H3    H     H_    0.507555 0.345545 0.335229 0.113871
H4    H     H_    0.539091 0.539348 0.222704 0.119724
H5    H     H_    0.885256 0.590139 0.209893 0.123344
H6    H     H_    0.851453 0.662606 0.330520 0.108926
H7    H     H_    0.182483 0.365097 0.190815 0.151806
H8    H     H_    0.178314 0.000064 0.182834 0.142599
O1    O     O_R   0.267740 0.231990 0.575440 -0.499253
O2    O     O_R   0.685970 0.784630 0.430010 -0.507003
O3    O     O_R   0.502530 0.766960 0.423990 -0.545548
O4    O     O_R   0.288330 0.026310 0.429250 -0.510335
O5    O     O_3   0.499990 0.000020 0.499980 -0.255835
O6    O     O_R   0.821500 0.119550 0.952820 -0.510665
O7    O     O_R   0.037130 0.162750 0.957360 -0.481505
O8    O     O_R   0.056440 0.344950 0.951330 -0.499793
O9    O     O_R   0.797900 0.560570 0.957460 -0.495674
O10   O     O_R   0.596140 0.579600 0.952720 -0.484148
O11   O     O_R   0.639070 0.321380 0.958660 -0.510188
O12   O     O_R   0.527280 0.186680 0.570530 -0.491049
O13   O     O_R   0.821240 0.124490 0.104360 -0.517010
O14   O     O_R   0.036900 0.167320 0.097830 -0.496576
O15   O     O_R   0.056190 0.349890 0.102870 -0.533039
O16   O     O_R   0.797670 0.565150 0.097930 -0.509159
O17   O     O_R   0.595880 0.584540 0.104260 -0.513661
O18   O     O_R   0.638830 0.325960 0.099140 -0.520769
O19   O     O_3   0.824590 0.350480 0.028090 -0.307062
O20   O     O_R   0.728090 0.003480 0.576380 -0.502733
O21   O     O_R   0.682970 0.789220 0.570490 -0.490591
O22   O     O_R   0.499290 0.771920 0.575530 -0.503351
O23   O     O_R   0.285330 0.030900 0.569730 -0.485529
O24   O     O_R   0.270980 0.227040 0.423900 -0.537278
O25   O     O_R   0.530280 0.182090 0.430050 -0.522621
O26   O     O_R   0.731330 0.998530 0.424830 -0.524140
C43   C     C_3   0.783574 0.921547 0.168406 -0.275721
C44   C     C_3   0.672348 0.929812 0.122421 -0.411834
H9    H     H_    0.584420 0.946572 0.154230 0.159334
H10   H     H_    0.640585 0.012065 0.085011 0.155924
H11   H     H_    0.709732 0.834270 0.093007 0.177778
H12   H     H_    0.871649 0.903809 0.136711 0.170267
H13   H     H_    0.815620 0.830886 0.199830 0.127575
C45   C     C_3   0.216991 0.387922 0.324329 -0.247015
C46   C     C_3   0.188734 0.511591 0.282477 -0.491813
H14   H     H_    0.268261 0.486090 0.242976 0.144813
H15   H     H_    0.089104 0.555704 0.258093 0.138853
H16   H     H_    0.187295 0.589328 0.317491 0.131811
H17   H     H_    0.134097 0.424431 0.363052 0.179129
H18   H     H_    0.312329 0.358150 0.350529 0.181606
C47   C     C_3   0.299650 0.895608 0.304888 -0.260395
C48   C     C_3   0.284829 0.797402 0.256442 -0.473592
H19   H     H_    0.178329 0.834924 0.243536 0.144791
H20   H     H_    0.345141 0.779756 0.208613 0.171917
H21   H     H_    0.320283 0.700218 0.282220 0.128096
H22   H     H_    0.407575 0.854531 0.313766 0.182209
H23   H     H_    0.248385 0.896965 0.353264 0.183325
C49   C     C_3   0.890528 0.916130 0.310607 -0.260723
C50   C     C_3   0.974034 0.964504 0.349646 -0.412393
H24   H     H_    0.064036 0.875954 0.369960 0.125037
H25   H     H_    0.004764 0.020228 0.314474 0.159858
H26   H     H_    0.918973 0.031744 0.393750 0.177934
H27   H     H_    0.872553 0.847018 0.342122 0.172314
H28   H     H_    0.955568 0.853944 0.267201 0.113403

loop_
_geom_bond_atom_site_label_1
_geom_bond_atom_site_label_2
_ccdc_geom_bond_type
C37   O18   A    
Cr3   O4    S    
C26   C43   S    
C37   O13   A    
C41   C42   S    
C19   C20   A    
C44   H11   S    
C2    C12   S    
C1    O12   A    
C47   C48   S    
C45   H17   S    
C50   H25   S    
C33   O11   A    
C26   C27   A    
Cr4   O6    S    
C18   C24   A    
C15   H5    S    
Cr2   O21   S    
C44   H10   S    
C33   O6    A    
Cr2   O26   S    
C14   C36   S    
C49   H27   S    
C6    C23   S    
C2    C41   T    
C15   C16   A    
C24   C39   S    
C7    C9    T    
C18   C19   A    
Cr2   O20   S    
Cr4   O19   S    
Cr4   O13   S    
C38   O2    A    
C20   C35   S    
C28   H2    S    
C11   C17   A    
C35   O14   A    
Cr2   O2    S    
C8    C9    S    
C12   O22   A    
Cr3   O22   S    
C34   O25   A    
C47   H22   S    
C40   C42   T    
C43   H12   S    
C35   O15   A    
C22   C47   S    
C21   C22   A    
C7    C33   S    
Cr6   O19   S    
Cr6   O17   S    
C49   C50   S    
C43   H13   S    
C50   H26   S    
C30   C34   S    
C18   C45   S    
Cr6   O18   S    
C44   H9    S    
C4    C6    T    
Cr5   O8    S    
Cr1   O12   S    
Cr1   O24   S    
C29   C30   A    
C11   H1    S    
C31   O7    A    
C46   H15   S    
C13   H4    S    
C43   C44   S    
C12   O21   A    
Cr3   O23   S    
C3    C31   S    
Cr5   O15   S    
C47   H23   S    
C8    C10   T    
C48   H20   S    
Cr1   O25   S    
C22   C24   A    
C46   H14   S    
Cr1   O5    S    
C32   O10   A    
C29   H3    S    
C19   H7    S    
C25   C30   A    
C23   O1    A    
C28   C29   A    
C1    O20   A    
C31   O8    A    
C1    C10   S    
C4    C5    S    
C3    C5    T    
C21   H8    S    
C25   C49   S    
C45   H18   S    
Cr2   O5    S    
C48   H21   S    
C50   H24   S    
Cr4   O7    S    
Cr6   O10   S    
C39   O24   A    
C25   C26   A    
Cr5   O19   S    
C46   H16   S    
C49   H28   S    
C11   C13   A    
C45   C46   S    
C16   C17   A    
C27   C37   S    
C39   O4    A    
Cr3   O5    S    
C17   C38   S    
C32   C40   S    
Cr6   O11   S    
C16   H6    S    
Cr5   O16   S    
Cr4   O14   S    
C36   O17   A    
Cr1   O1    S    
C38   O3    A    
C20   C21   A    
Cr3   O3    S    
C48   H19   S    
C27   C28   A    
C14   C15   A    
C34   O26   A    
C23   O23   A    
C13   C14   A    
Cr5   O9    S    
C36   O16   A    
C32   O9    A    
