data_mof_unit_45330.cif
_audit_creation_date              2012-12-10T20:31:00-0500
_audit_creation_method            fapswitch 2.2
_symmetry_space_group_name_H-M    P1
_symmetry_Int_Tables_number       1
_space_group_crystal_system       triclinic
_cell_length_a                    14.853001
_cell_length_b                    10.667511
_cell_length_c                    9.874228
_cell_angle_alpha                 89.833077
_cell_angle_beta                  90.532306
_cell_angle_gamma                 90.16509
_cell_volume                      1564.43709594

loop_
_atom_site_label
_atom_site_type_symbol
_atom_type_description
_atom_site_fract_x
_atom_site_fract_y
_atom_site_fract_z
_atom_type_partial_charge
C1    C     C_R   0.502218 0.260059 0.500266 0.868345
C2    C     C_R   0.906720 0.616373 0.507073 0.048958
C3    C     C_R   0.953266 0.272211 0.506351 -0.218435
C4    C     C_R   0.046789 0.272400 0.506201 -0.218270
C5    C     C_R   0.093785 0.386207 0.506265 0.165421
C6    C     C_R   0.047255 0.501746 0.507217 -0.001283
C7    C     C_R   0.094514 0.617281 0.505923 -0.001599
C8    C     C_R   0.047360 0.731904 0.510723 0.494765
C9    C     C_R   0.953516 0.730328 0.508225 -0.307556
C10   C     C_R   0.186818 0.386695 0.504651 -0.257887
C11   C     C_R   0.232200 0.500451 0.499387 -0.034471
C12   C     C_R   0.327224 0.499865 0.499577 0.875926
C13   C     C_R   0.187829 0.614913 0.498863 -0.239046
C14   C     C_R   0.506105 0.063276 0.623185 0.153433
C15   C     C_R   0.514759 0.128588 0.501821 -0.125035
C16   C     C_R   0.538528 0.065352 0.383100 -0.227473
C17   C     C_R   0.537937 0.935764 0.382621 -0.236896
C18   C     C_R   0.513786 0.871530 0.500934 -0.103829
C19   C     C_R   0.505335 0.935598 0.622522 0.142315
C20   C     C_3   0.432841 0.927825 0.726253 -0.485551
C21   C     C_3   0.434052 0.069806 0.727740 -0.512142
C22   C     C_R   0.420859 0.490298 0.069829 0.128112
C23   C     C_R   0.501891 0.739943 0.499853 0.867378
C24   C     C_R   0.577021 0.520934 0.072844 -0.122283
C25   C     C_R   0.577001 0.521020 0.929114 -0.122572
C26   C     C_R   0.421239 0.489973 0.927349 0.143569
C27   C     C_3   0.355527 0.384699 0.918740 -0.625567
C28   C     C_3   0.353634 0.385179 0.073666 0.421363
C29   C     C_R   0.672929 0.500310 0.500610 0.874489
C30   C     C_R   0.813437 0.615031 0.504459 -0.236546
C31   C     C_R   0.768231 0.500676 0.502468 -0.039412
C32   C     C_R   0.813301 0.386628 0.504050 -0.264235
C33   C     C_R   0.906530 0.385937 0.506432 0.149347
C34   C     C_R   0.953580 0.501414 0.507610 0.052061
H1    H     H_    0.775809 0.702129 0.503773 0.128956
H2    H     H_    0.551001 0.886904 0.288833 0.173388
H3    H     H_    0.368965 0.887692 0.685330 0.191887
H4    H     H_    0.457179 0.885302 0.822736 0.207398
H5    H     H_    0.370663 0.112613 0.688723 0.192858
H6    H     H_    0.459831 0.108607 0.824993 0.207614
H7    H     H_    0.639555 0.536075 0.127250 0.154846
H8    H     H_    0.639492 0.536192 0.876209 0.154722
H9    H     H_    0.291386 0.414152 0.869204 0.187260
H10   H     H_    0.385947 0.299497 0.874452 0.214566
H11   H     H_    0.775626 0.299272 0.502931 0.130076
H12   H     H_    0.917521 0.183488 0.505410 0.145746
H13   H     H_    0.082472 0.183952 0.504541 0.159431
H14   H     H_    0.224135 0.299362 0.506619 0.113561
H15   H     H_    0.226664 0.701066 0.494444 0.151592
H16   H     H_    0.917335 0.818464 0.507123 0.162695
H17   H     H_    0.551695 0.115037 0.289465 0.193863
N1    N     N_R   0.499390 0.499140 0.142800 -0.090802
N2    N     N_R   0.499390 0.499180 0.857150 -0.091068
O1    O     O_R   0.500010 0.316790 0.614690 -0.615113
O2    O     O_R   0.500000 0.316760 0.385350 -0.575889
O3    O     O_R   0.367850 0.499990 0.614680 -0.619608
O4    O     O_R   0.367840 0.499950 0.385340 -0.603712
O5    O     O_R   0.500000 0.683240 0.614650 -0.617261
O6    O     O_R   0.499990 0.683210 0.385310 -0.628767
O7    O     O_R   0.632160 0.500050 0.614660 -0.625618
O8    O     O_R   0.632150 0.500010 0.385320 -0.628391
Zn1   Zn    Zn3+2 0.500010 0.500020 0.653130 0.946747
Zn2   Zn    Zn3+2 0.499990 0.499980 0.346870 0.978188
C35   C     C_1   0.266988 0.426568 0.130486 0.120344
N3    N     N_1   0.198847 0.458979 0.173960 -0.201881
O9    O     O_3   0.390806 0.277067 0.136591 -0.608743
C36   C     C_3   0.336618 0.168854 0.116586 0.084795
H18   H     H_    0.381098 0.092704 0.080177 0.157625
H19   H     H_    0.282197 0.180662 0.038937 0.126911
C37   C     C_3   0.295122 0.128773 0.251329 -0.351262
H20   H     H_    0.348682 0.121152 0.330114 0.235681
H21   H     H_    0.246160 0.200745 0.284111 0.222116
C38   C     C_3   0.246759 0.002870 0.239187 -0.924856
H22   H     H_    0.191780 0.008619 0.162357 0.270394
H23   H     H_    0.217135 0.977363 0.338386 0.288213
H24   H     H_    0.294901 0.928408 0.209800 0.262197
O10   O     O_3   0.091497 0.846337 0.505355 -0.656446
C39   C     C_3   0.124676 0.879002 0.635561 0.038653
H25   H     H_    0.182716 0.943434 0.620676 0.162976
H26   H     H_    0.150987 0.797230 0.694324 0.130235
C40   C     C_3   0.052690 0.947185 0.717493 -0.351320
H27   H     H_    0.021942 0.022644 0.654906 0.228899
H28   H     H_    0.998775 0.879976 0.746076 0.213586
C41   C     C_3   0.092865 0.004538 0.846107 -0.945811
H29   H     H_    0.123515 0.930416 0.910837 0.264902
H30   H     H_    0.039034 0.051649 0.904158 0.270626
H31   H     H_    0.145112 0.075210 0.820172 0.257605

loop_
_geom_bond_atom_site_label_1
_geom_bond_atom_site_label_2
_ccdc_geom_bond_type
C24   N1    A    
C23   O5    A    
O5    Zn1   S    
C38   H22   S    
C19   C20   S    
C41   H31   S    
C40   H27   S    
C7    C8    A    
O10   C39   S    
C23   O6    A    
C26   C27   S    
C30   H1    S    
C14   C21   S    
C41   H30   S    
C30   C31   A    
C39   H26   S    
C3    C33   A    
C15   C16   A    
O7    Zn1   S    
C18   C19   A    
C32   H11   S    
O8    Zn2   S    
C27   H10   S    
C8    C9    A    
O2    Zn2   S    
C16   H17   S    
C37   H20   S    
C1    C15   S    
C17   H2    S    
C2    C34   A    
O9    C36   S    
C22   C28   S    
C24   H7    S    
C38   H23   S    
C40   H28   S    
O4    Zn2   S    
C29   O8    A    
C36   H18   S    
C41   H29   S    
C39   H25   S    
C16   C17   A    
O1    Zn1   S    
C18   C23   S    
C36   H19   S    
C28   O9    S    
C1    O1    A    
C27   H9    S    
C20   H4    S    
N2    Zn1   S    
C31   C32   A    
C21   H5    S    
C29   O7    A    
C37   C38   S    
C17   C18   A    
C24   C25   A    
C12   O3    A    
C13   H15   S    
C12   O4    A    
C28   C35   S    
C10   H14   S    
C8    O10   S    
C38   H24   S    
O3    Zn1   S    
C3    C4    A    
C26   N2    A    
C40   C41   S    
C22   N1    A    
C14   C19   A    
C9    H16   S    
C25   N2    A    
C4    C5    A    
N1    Zn2   S    
C25   H8    S    
C11   C12   S    
C6    C7    A    
C3    H12   S    
O6    Zn2   S    
C2    C30   A    
C36   C37   S    
C35   N3    T    
C1    O2    A    
C5    C10   A    
C29   C31   S    
C32   C33   A    
C20   H3    S    
C11   C13   A    
C39   C40   S    
C5    C6    A    
C21   H6    S    
C33   C34   A    
C10   C11   A    
C6    C34   A    
C7    C13   A    
C20   C21   S    
C22   C26   A    
C27   C28   S    
C14   C15   A    
C37   H21   S    
C2    C9    A    
C4    H13   S    
