data_mof_unit_32197.cif
_audit_creation_date              2012-12-10T20:49:28-0500
_audit_creation_method            fapswitch 2.2
_symmetry_space_group_name_H-M    P1
_symmetry_Int_Tables_number       1
_space_group_crystal_system       triclinic
_cell_length_a                    15.735857
_cell_length_b                    8.932539
_cell_length_c                    8.126561
_cell_angle_alpha                 89.996204
_cell_angle_beta                  91.958548
_cell_angle_gamma                 89.999588
_cell_volume                      1141.61150586

loop_
_atom_site_label
_atom_site_type_symbol
_atom_type_description
_atom_site_fract_x
_atom_site_fract_y
_atom_site_fract_z
_atom_type_partial_charge
C1    C     C_1   0.499988 0.065204 0.500005 -0.194581
C2    C     C_3   0.973872 0.641910 0.551176 -0.215814
C3    C     C_1   0.248512 0.501320 0.489422 -0.186313
C4    C     C_1   0.751461 0.501661 0.510468 -0.186180
C5    C     C_3   0.035069 0.535830 0.647022 0.168548
C6    C     C_3   0.964910 0.476800 0.352682 0.176840
C7    C     C_3   0.082502 0.506014 0.489234 0.169839
C8    C     C_3   0.917473 0.505580 0.510592 0.165752
C9    C     C_1   0.173237 0.503250 0.485060 -0.082082
C10   C     C_1   0.826727 0.503518 0.514661 -0.089832
C11   C     C_3   0.922057 0.439464 0.186018 -0.441358
C12   C     C_1   0.499983 0.934791 0.499996 -0.194695
C13   C     C_3   0.874022 0.574929 0.113009 -0.355433
C14   C     C_3   0.824458 0.532779 0.955396 -0.839515
C15   C     C_3   0.077782 0.567994 0.815217 -0.440684
C16   C     C_3   0.123922 0.719327 0.817850 -0.340295
C17   C     C_3   0.175426 0.741113 0.978464 -0.857052
C18   C     C_R   0.500000 0.218059 0.500004 0.932217
C19   C     C_R   0.499987 0.781939 0.499996 0.931594
C20   C     C_R   0.337422 0.499894 0.497054 0.902900
C21   C     C_R   0.662571 0.500022 0.502935 0.903054
C22   C     C_3   0.977269 0.399780 0.608312 -0.250745
C23   C     C_3   0.022944 0.612367 0.391557 -0.217771
C24   C     C_3   0.025774 0.370210 0.448598 -0.229781
H1    H     H_    0.048473 0.260041 0.404596 0.137395
H2    H     H_    0.971402 0.402128 0.100686 0.188000
H3    H     H_    0.877268 0.344978 0.203154 0.209263
H4    H     H_    0.133155 0.737115 0.084616 0.250570
H5    H     H_    0.224677 0.652588 0.992917 0.272947
H6    H     H_    0.207474 0.851803 0.977458 0.248371
H7    H     H_    0.167858 0.726984 0.714232 0.233050
H8    H     H_    0.076586 0.811233 0.804227 0.211987
H9    H     H_    0.028480 0.569027 0.909078 0.203329
H10   H     H_    0.123364 0.476161 0.845259 0.210648
H11   H     H_    0.950689 0.751870 0.594781 0.134136
H12   H     H_    0.957394 0.313795 0.697832 0.137358
H13   H     H_    0.042674 0.699196 0.303319 0.126952
H14   H     H_    0.868089 0.486172 0.864452 0.259248
H15   H     H_    0.774927 0.448350 0.981793 0.268828
H16   H     H_    0.793028 0.633703 0.901721 0.253115
H17   H     H_    0.828547 0.619414 0.202270 0.238511
H18   H     H_    0.919791 0.665483 0.085379 0.212155
N1    N     N_1   0.500010 0.500000 0.073640 -0.034497
N2    N     N_1   0.499990 0.500000 0.926360 -0.034556
O1    O     O_R   0.500000 0.285340 0.636850 -0.615652
O2    O     O_R   0.500000 0.714660 0.363150 -0.615408
O3    O     O_R   0.500000 0.285340 0.363150 -0.615629
O4    O     O_R   0.500000 0.714660 0.636850 -0.615410
O5    O     O_R   0.376770 0.500000 0.636850 -0.614264
O6    O     O_R   0.623230 0.500000 0.363150 -0.615372
O7    O     O_R   0.376780 0.500000 0.363100 -0.617476
O8    O     O_R   0.623220 0.500000 0.636900 -0.617832
Zn1   Zn    Zn3+2 0.499990 0.500000 0.682780 0.985529
Zn2   Zn    Zn3+2 0.500010 0.500000 0.317220 0.986089

loop_
_geom_bond_atom_site_label_1
_geom_bond_atom_site_label_2
_ccdc_geom_bond_type
C2    H11   S    
C8    C22   S    
N1    N2    T    
C5    C7    S    
C20   O5    A    
C3    C9    T    
C16   H8    S    
C22   H12   S    
C15   H10   S    
C11   H3    S    
O7    Zn2   S    
C6    C24   S    
C18   O3    A    
O2    Zn2   S    
C13   H17   S    
C19   O2    A    
O1    Zn1   S    
C3    C20   S    
C13   C14   S    
C24   H1    S    
C16   H7    S    
C4    C21   S    
C11   C13   S    
C1    C18   S    
O6    Zn2   S    
C1    C12   T    
C17   H6    S    
O3    Zn2   S    
O5    Zn1   S    
C6    C23   S    
C12   C19   S    
C13   H18   S    
C20   O7    A    
C22   C24   S    
O4    Zn1   S    
C7    C23   S    
C5    C15   S    
C2    C5    S    
C14   H14   S    
C4    C10   T    
C15   C16   S    
C18   O1    A    
C2    C23   S    
C17   H5    S    
O8    Zn1   S    
C8    C10   S    
C6    C11   S    
C7    C9    S    
C19   O4    A    
C21   O6    A    
C6    C8    S    
N1    Zn2   S    
C11   H2    S    
C14   H15   S    
C23   H13   S    
C17   H4    S    
C14   H16   S    
N2    Zn1   S    
C15   H9    S    
C21   O8    A    
C2    C8    S    
C5    C22   S    
C7    C24   S    
C16   C17   S    
