data_mof_unit_15640.cif
_audit_creation_date              2012-12-10T17:42:13-0500
_audit_creation_method            fapswitch 2.2
_symmetry_space_group_name_H-M    P1
_symmetry_Int_Tables_number       1
_space_group_crystal_system       triclinic
_cell_length_a                    15.071051
_cell_length_b                    13.83249
_cell_length_c                    10.797034
_cell_angle_alpha                 90.976865
_cell_angle_beta                  88.423469
_cell_angle_gamma                 90.24954
_cell_volume                      2249.66338707

loop_
_atom_site_label
_atom_site_type_symbol
_atom_type_description
_atom_site_fract_x
_atom_site_fract_y
_atom_site_fract_z
_atom_type_partial_charge
C1    C     C_R   0.329061 0.499425 0.501822 0.786742
C2    C     C_3   0.592499 0.551606 0.930495 -0.033159
C3    C     C_R   0.815975 0.437937 0.430375 -0.168863
C4    C     C_R   0.768149 0.503749 0.505583 -0.095324
C5    C     C_R   0.813325 0.571420 0.581794 -0.030457
C6    C     C_R   0.906439 0.565928 0.589019 0.080448
C7    C     C_R   0.953913 0.500267 0.510684 0.067871
C8    C     C_R   0.908432 0.438092 0.428968 0.002692
C9    C     C_R   0.953769 0.626467 0.670170 -0.182631
C10   C     C_R   0.045241 0.619583 0.677276 -0.107080
C11   C     C_R   0.093117 0.553613 0.601538 0.139675
C12   C     C_R   0.500553 0.499081 0.260348 0.917458
C13   C     C_R   0.047290 0.497575 0.512725 -0.030644
C14   C     C_R   0.094676 0.438589 0.426044 -0.047068
C15   C     C_R   0.048636 0.378744 0.343116 0.648922
C16   C     C_R   0.956095 0.377176 0.346538 -0.239771
C17   C     C_R   0.185955 0.544013 0.609209 -0.097290
C18   C     C_R   0.232531 0.497253 0.510393 -0.144515
C19   C     C_R   0.187183 0.442475 0.422187 -0.051347
C20   C     C_R   0.440438 0.796184 0.572200 0.065499
C21   C     C_R   0.436996 0.205933 0.567185 0.017888
C22   C     C_R   0.561335 0.791303 0.427077 0.828660
C23   C     C_R   0.561954 0.207362 0.428054 0.796939
C24   C     C_R   0.567019 0.895094 0.426743 -0.117296
C25   C     C_R   0.564102 0.103642 0.421809 -0.123178
C26   C     C_R   0.671176 0.500787 0.502133 0.787782
C27   C     C_R   0.504052 0.948538 0.498601 0.023037
C28   C     C_R   0.502824 0.051941 0.496685 0.027687
C29   C     C_R   0.441082 0.898547 0.572636 -0.028058
C30   C     C_R   0.438914 0.103585 0.569539 -0.012036
C31   C     C_R   0.631158 0.947170 0.354449 -0.076108
C32   C     C_R   0.626766 0.050010 0.346991 -0.088234
C33   C     C_R   0.378644 0.051837 0.644807 -0.112350
C34   C     C_R   0.379014 0.951976 0.645272 -0.120743
C35   C     C_R   0.501916 0.500581 0.740376 0.768295
C36   C     C_3   0.422202 0.556101 0.076487 1.074788
C37   C     C_3   0.498958 0.392229 0.068931 1.100476
C38   C     C_3   0.419737 0.549385 0.934458 -0.406199
C39   C     C_3   0.501810 0.394458 0.926532 -0.491772
C40   C     C_3   0.589854 0.544980 0.075344 -0.502709
C41   C     C_3   0.502341 0.497577 0.122964 -0.297413
C42   C     C_3   0.505122 0.500936 0.879355 -0.195195
Cu1   Cu    Cu3+1 0.499990 0.597420 0.500010 1.079976
Cu2   Cu    Cu3+1 0.499990 0.402580 0.500010 1.049453
H1    H     H_    0.078113 0.669854 0.738721 0.195746
H2    H     H_    0.224550 0.402221 0.351336 0.234007
H3    H     H_    0.921655 0.329585 0.282990 0.192943
H4    H     H_    0.330311 0.087671 0.705338 0.179053
H5    H     H_    0.329346 0.917587 0.703948 0.176295
H6    H     H_    0.360908 0.505881 0.907329 0.184760
H7    H     H_    0.441888 0.356736 0.891890 0.192937
H8    H     H_    0.409646 0.621883 0.897301 0.282332
H9    H     H_    0.559670 0.352354 0.889521 0.208725
H10   H     H_    0.597141 0.617784 0.119878 0.245566
H11   H     H_    0.646592 0.502614 0.109487 0.252622
H12   H     H_    0.780879 0.388381 0.369826 0.202938
H13   H     H_    0.920927 0.679739 0.729626 0.157066
N1    N     N_R   0.499930 0.743810 0.499950 -0.267744
N2    N     N_R   0.499930 0.256190 0.499950 -0.276628
O1    O     O_R   0.370250 0.582280 0.500040 -0.616608
O2    O     O_R   0.370250 0.417720 0.500040 -0.571662
O3    O     O_R   0.499970 0.582270 0.317700 -0.515360
O4    O     O_R   0.499970 0.417730 0.317700 -0.481451
O5    O     O_R   0.629730 0.582260 0.499980 -0.499564
O6    O     O_R   0.629730 0.417740 0.499980 -0.550114
O7    O     O_R   0.500000 0.582270 0.682320 -0.538451
O8    O     O_R   0.500000 0.417730 0.682320 -0.639099
F1    F     F_    0.429397 0.652651 0.112230 -0.609964
F2    F     F_    0.570710 0.339280 0.108084 -0.584874
C43   C     C_2   0.233764 0.569237 0.724722 0.371060
H14   H     H_    0.305390 0.571923 0.723496 0.065732
O9    O     O_2   0.194739 0.579690 0.824612 -0.487115
F3    F     F_    0.093032 0.320924 0.259757 -0.612770
C44   C     C_2   0.371438 0.747149 0.646163 0.449091
H15   H     H_    0.312022 0.721508 0.602025 0.047424
O10   O     O_2   0.375097 0.747009 0.758691 -0.516496
C45   C     C_2   0.364654 0.258270 0.634409 0.463187
H16   H     H_    0.378526 0.310232 0.706808 0.075973
O11   O     O_2   0.287449 0.243620 0.607789 -0.523215
F4    F     F_    0.613923 0.736760 0.350224 -0.617072
F5    F     F_    0.622417 0.260684 0.363895 -0.607834
C46   C     C_2   0.704827 0.896404 0.286607 0.473394
H17   H     H_    0.717608 0.909905 0.189003 0.054697
O12   O     O_2   0.754818 0.843677 0.341216 -0.443704
C47   C     C_2   0.688847 0.099170 0.259223 0.475745
H18   H     H_    0.759806 0.087553 0.264408 0.047454
O13   O     O_2   0.660594 0.148152 0.176075 -0.407623
F6    F     F_    0.343249 0.520425 0.127079 -0.615983
F7    F     F_    0.421795 0.345928 0.109225 -0.600069
C48   C     C_2   0.604479 0.658130 0.899018 0.449976
H19   H     H_    0.666280 0.693923 0.922116 0.085267
O14   O     O_2   0.546728 0.706373 0.853531 -0.464523
C49   C     C_2   0.674645 0.500102 0.877271 0.300062
H20   H     H_    0.671045 0.456036 0.793434 0.072953
O15   O     O_2   0.747026 0.511133 0.924014 -0.528007
C50   C     C_2   0.765008 0.646973 0.655492 0.366202
H21   H     H_    0.768279 0.647790 0.755412 0.063125
O16   O     O_2   0.728309 0.713409 0.604715 -0.455251

loop_
_geom_bond_atom_site_label_1
_geom_bond_atom_site_label_2
_ccdc_geom_bond_type
C39   H7    S    
C49   H20   S    
C37   F2    S    
C27   C29   A    
C24   C27   A    
C6    C9    A    
C36   C41   S    
C19   H2    S    
C7    C8    A    
C45   H16   S    
C36   F6    S    
C25   C28   A    
C23   N2    A    
C1    C18   S    
C31   C46   S    
C44   O10   D    
C21   N2    A    
C5    C6    A    
C38   H8    S    
Cu2   N2    S    
C15   C16   A    
C18   C19   A    
C2    C48   S    
C35   C42   S    
C26   O5    A    
Cu1   N1    S    
C50   O16   D    
C43   H14   S    
C9    C10   A    
C25   C32   A    
C45   O11   D    
C17   C43   S    
C49   O15   D    
C13   C14   A    
Cu2   O6    S    
C16   H3    S    
Cu1   O5    S    
C17   C18   A    
C39   C42   S    
C20   C29   A    
C47   O13   D    
Cu2   O4    S    
C44   H15   S    
C3    C8    A    
C1    O1    A    
C12   O4    A    
C35   O7    A    
C47   H18   S    
C29   C34   A    
Cu1   Cu2   S    
C12   C41   S    
C12   O3    A    
C3    H12   S    
C48   O14   D    
C31   C32   A    
C35   O8    A    
C40   H11   S    
C50   H21   S    
C10   H1    S    
C33   C34   A    
C20   C44   S    
Cu1   O1    S    
C40   C41   S    
C15   F3    S    
C46   O12   D    
C22   C24   A    
C20   N1    A    
C3    C4    A    
C5    C50   S    
C11   C17   A    
C34   H5    S    
C23   F5    S    
C30   C33   A    
C26   O6    A    
C14   C19   A    
C2    C49   S    
C4    C5    A    
C1    O2    A    
C22   N1    A    
C4    C26   S    
C36   F1    S    
C38   C42   S    
C6    C7    A    
C38   H6    S    
Cu2   O2    S    
C21   C30   A    
C40   H10   S    
C37   F7    S    
C28   C30   A    
C24   C31   A    
C22   F4    S    
C37   C39   S    
C11   C13   A    
C48   H19   S    
C39   H9    S    
C2    C42   S    
Cu1   O7    S    
C32   C47   S    
C36   C38   S    
C9    H13   S    
C23   C25   A    
C37   C41   S    
C10   C11   A    
C2    C40   S    
C7    C13   A    
C8    C16   A    
C46   H17   S    
C21   C45   S    
C27   C28   A    
C33   H4    S    
C14   C15   A    
Cu2   O8    S    
C43   O9    D    
Cu1   O3    S    
