data_mof_unit_47447.cif
_audit_creation_date              2012-12-11T14:01:21-0500
_audit_creation_method            fapswitch 2.2
_symmetry_space_group_name_H-M    P1
_symmetry_Int_Tables_number       1
_space_group_crystal_system       triclinic
_cell_length_a                    18.983564
_cell_length_b                    11.044396
_cell_length_c                    18.776873
_cell_angle_alpha                 90.441797
_cell_angle_beta                  90.584595
_cell_angle_gamma                 90.733636
_cell_volume                      3936.14804955

loop_
_atom_site_label
_atom_site_type_symbol
_atom_type_description
_atom_site_fract_x
_atom_site_fract_y
_atom_site_fract_z
_atom_type_partial_charge
C1    C     C_R   0.292108 0.992265 0.860329 0.578227
C2    C     C_R   0.709379 0.998050 0.139390 0.579813
C3    C     C_R   0.789204 0.499775 0.861596 0.576222
C4    C     C_R   0.228404 0.542882 0.147719 0.571276
C5    C     C_R   0.470182 0.036059 0.076639 -0.086554
C6    C     C_R   0.496346 0.061838 0.932034 -0.085984
C7    C     C_R   0.963776 0.523884 0.078296 -0.083369
C8    C     C_R   0.986820 0.562677 0.934256 -0.080336
C9    C     C_R   0.952371 0.636837 0.049283 -0.140092
C10   C     C_R   0.964911 0.657421 0.977616 -0.138622
C11   C     C_R   0.463371 0.148816 0.044745 -0.138647
C12   C     C_R   0.478156 0.162276 0.972919 -0.143410
C13   C     C_2   0.249354 0.578695 0.917664 -0.103551
C14   C     C_2   0.761194 0.561053 0.089581 -0.134896
C15   C     C_2   0.745665 0.068807 0.912971 -0.107909
C16   C     C_2   0.264587 0.055759 0.090870 -0.144099
C17   C     C_2   0.258124 0.597090 0.084464 -0.087852
C18   C     C_2   0.772881 0.525701 0.936431 -0.095184
C19   C     C_2   0.721159 0.022946 0.064629 -0.067555
C20   C     C_2   0.284591 0.997657 0.938818 -0.099998
C21   C     C_2   0.290365 0.529884 0.034789 0.084429
C22   C     C_2   0.726054 0.461001 0.976403 0.098905
C23   C     C_2   0.785576 0.039347 0.037048 0.103368
C24   C     C_2   0.231895 0.944953 0.977943 0.103146
C25   C     C_2   0.301169 0.585031 0.965992 -0.129972
C26   C     C_2   0.714835 0.495217 0.052181 -0.139834
C27   C     C_2   0.795815 0.074541 0.963188 -0.137666
C28   C     C_2   0.224259 0.974098 0.056076 -0.165577
C29   C     C_2   0.502453 0.831389 0.579572 -0.072975
C30   C     C_2   0.503069 0.831351 0.422955 -0.054904
C31   C     C_2   0.010777 0.338101 0.584215 -0.111901
C32   C     C_2   0.012925 0.329328 0.427836 -0.086166
C33   C     C_2   0.507898 0.732401 0.463226 -0.138346
C34   C     C_2   0.496903 0.732397 0.538272 -0.127526
C35   C     C_2   0.040707 0.245420 0.471212 -0.100225
C36   C     C_2   0.026512 0.239741 0.546558 -0.149845
C37   C     C_2   0.247463 0.598553 0.570723 -0.091038
C38   C     C_2   0.734126 0.659962 0.438469 -0.084873
C39   C     C_2   0.771990 0.171622 0.559736 -0.105166
C40   C     C_2   0.254126 0.064260 0.413833 0.008172
C41   C     C_2   0.259423 0.614640 0.412832 0.028154
C42   C     C_2   0.735888 0.626959 0.595330 0.006388
C43   C     C_2   0.766620 0.131242 0.402745 0.004405
C44   C     C_2   0.255043 0.091249 0.581614 -0.039285
C45   C     C_R   0.472671 0.824072 0.852189 0.546503
C46   C     C_R   0.530693 0.819934 0.144970 0.539647
C47   C     C_R   0.972641 0.324568 0.851852 0.552723
C48   C     C_R   0.034110 0.319528 0.143524 0.562283
C49   C     C_2   0.215442 0.684830 0.451112 -0.004689
C50   C     C_2   0.774035 0.714783 0.562487 -0.044699
C51   C     C_2   0.730067 0.219101 0.435507 -0.032108
C52   C     C_2   0.294580 0.039125 0.530269 -0.004562
C53   C     C_2   0.202098 0.662007 0.528416 0.090358
C54   C     C_2   0.767658 0.738292 0.484118 0.036962
C55   C     C_2   0.725038 0.226462 0.514943 0.046667
C56   C     C_2   0.302278 0.096345 0.462311 0.189191
C57   C     C_R   0.260609 0.635947 0.850216 0.548647
C58   C     C_R   0.740887 0.631462 0.151468 0.559296
C59   C     C_R   0.759361 0.131983 0.847954 0.577567
C60   C     C_R   0.241378 0.130008 0.151601 0.565399
C61   C     C_R   0.270039 0.051750 0.652117 0.489352
C62   C     C_R   0.730896 0.052851 0.348304 0.620203
C63   C     C_R   0.769299 0.552654 0.651700 0.600210
C64   C     C_R   0.229686 0.549528 0.350388 0.607680
C65   C     C_R   0.471099 0.823780 0.648838 0.557445
C66   C     C_R   0.530298 0.823462 0.352086 0.541715
C67   C     C_R   0.971892 0.324492 0.649413 0.530377
C68   C     C_R   0.032297 0.323166 0.353688 0.571854
C69   C     C_R   0.259804 0.639058 0.644487 0.536858
C70   C     C_R   0.726287 0.688010 0.362588 0.599680
C71   C     C_R   0.774480 0.189525 0.637967 0.574750
C72   C     C_R   0.240019 0.135374 0.352323 0.594128
C73   C     C_R   0.508329 0.822668 0.069481 -0.016304
C74   C     C_R   0.509540 0.839258 0.920883 -0.019904
C75   C     C_R   0.017297 0.322770 0.067114 -0.007961
C76   C     C_R   0.010589 0.343177 0.919220 -0.012363
C77   C     C_R   0.492770 0.934480 0.036956 -0.024288
C78   C     C_R   0.499678 0.945279 0.962544 -0.023975
C79   C     C_R   0.991804 0.429930 0.036573 -0.017835
C80   C     C_R   0.996580 0.445561 0.962463 -0.018609
C81   C     C_R   0.531847 0.732571 0.952834 0.125190
C82   C     C_R   0.524015 0.719723 0.026218 0.124803
C83   C     C_R   0.042651 0.242747 0.948388 0.120716
C84   C     C_R   0.045193 0.230654 0.022315 0.114328
Cr1   Cr    Cr6+3 0.230530 0.836340 0.748870 0.982904
Cr2   Cr    Cr6+3 0.769470 0.836340 0.251130 1.046333
Cr3   Cr    Cr6+3 0.730530 0.336340 0.748870 1.030546
Cr4   Cr    Cr6+3 0.269470 0.336340 0.251130 1.070606
Cr5   Cr    Cr6+3 0.387420 0.989430 0.750820 1.000317
Cr6   Cr    Cr6+3 0.612580 0.989430 0.249180 1.024754
Cr7   Cr    Cr6+3 0.887420 0.489430 0.750820 1.017946
Cr8   Cr    Cr6+3 0.112580 0.489430 0.249180 1.048712
Cr9   Cr    Cr6+3 0.385640 0.677860 0.749230 1.032632
Cr10  Cr    Cr6+3 0.614360 0.677860 0.250770 1.058605
Cr11  Cr    Cr6+3 0.885640 0.177860 0.749230 1.044755
Cr12  Cr    Cr6+3 0.114360 0.177860 0.250770 1.070166
H1    H     H_    0.287976 0.541921 0.549219 0.081106
H2    H     H_    0.710618 0.575976 0.456675 0.065473
H3    H     H_    0.814163 0.117919 0.538514 0.052741
H4    H     H_    0.215498 0.995035 0.426843 0.100956
H5    H     H_    0.456418 0.028990 0.132208 0.132172
H6    H     H_    0.509969 0.077238 0.877044 0.137559
H7    H     H_    0.950961 0.511825 0.133792 0.134098
H8    H     H_    0.998913 0.583701 0.879569 0.137418
H9    H     H_    0.935026 0.707705 0.083794 0.103824
H10   H     H_    0.957632 0.746478 0.955378 0.105554
H11   H     H_    0.447180 0.226088 0.076039 0.106564
H12   H     H_    0.475392 0.250714 0.948700 0.103656
H13   H     H_    0.351378 0.629427 0.955278 0.138002
H14   H     H_    0.665906 0.470795 0.077485 0.149479
H15   H     H_    0.847376 0.112683 0.950723 0.148563
H16   H     H_    0.176895 0.944885 0.082338 0.150467
H17   H     H_    0.248255 0.691850 0.074884 0.079298
H18   H     H_    0.802031 0.601796 0.959213 0.082867
H19   H     H_    0.673812 0.036138 0.033235 0.049417
H20   H     H_    0.327837 0.044755 0.964543 0.077594
H21   H     H_    0.198213 0.539270 0.930129 0.093395
H22   H     H_    0.814036 0.575990 0.070343 0.106638
H23   H     H_    0.693184 0.032840 0.921836 0.078114
H24   H     H_    0.316238 0.079080 0.071703 0.106623
H25   H     H_    0.520762 0.644247 0.441118 0.174392
H26   H     H_    0.481518 0.644510 0.559120 0.181986
H27   H     H_    0.072078 0.171770 0.450304 0.177564
H28   H     H_    0.024052 0.149939 0.569756 0.144148
H29   H     H_    0.489510 0.919071 0.444518 0.122067
H30   H     H_    0.519158 0.918872 0.559389 0.084578
H31   H     H_    0.981740 0.404157 0.447184 0.082086
H32   H     H_    0.017140 0.428300 0.562280 0.109839
O1    O     O_R   0.215090 0.709860 0.828130 -0.506595
O2    O     O_R   0.784910 0.709860 0.171870 -0.549532
O3    O     O_R   0.715090 0.209860 0.828130 -0.505773
O4    O     O_R   0.284910 0.209860 0.171870 -0.529536
O5    O     O_R   0.445660 0.919250 0.676780 -0.508359
O6    O     O_R   0.554340 0.919250 0.323220 -0.515760
O7    O     O_R   0.945660 0.419250 0.676780 -0.509944
O8    O     O_R   0.054340 0.419250 0.323220 -0.502049
O9    O     O_R   0.456260 0.718170 0.670000 -0.501356
O10   O     O_R   0.543740 0.718170 0.330000 -0.511540
O11   O     O_R   0.956260 0.218170 0.670000 -0.524321
O12   O     O_R   0.043740 0.218170 0.330000 -0.491567
O13   O     O_R   0.320940 0.626760 0.674370 -0.502264
O14   O     O_R   0.679060 0.626760 0.325630 -0.484355
O15   O     O_R   0.820940 0.126760 0.674370 -0.467037
O16   O     O_R   0.179060 0.126760 0.325630 -0.503501
O17   O     O_3   0.334530 0.834540 0.749640 -0.273762
O18   O     O_3   0.665470 0.834540 0.250360 -0.312081
O19   O     O_3   0.834530 0.334540 0.749640 -0.298498
O20   O     O_3   0.165470 0.334540 0.250360 -0.272217
O21   O     O_R   0.236990 0.958390 0.823710 -0.509208
O22   O     O_R   0.763010 0.958390 0.176290 -0.451888
O23   O     O_R   0.736990 0.458390 0.823710 -0.505665
O24   O     O_R   0.263010 0.458390 0.176290 -0.494727
O25   O     O_R   0.332380 0.074750 0.830850 -0.523461
O26   O     O_R   0.667620 0.074750 0.169150 -0.496294
O27   O     O_R   0.832380 0.574750 0.830850 -0.502595
O28   O     O_R   0.167620 0.574750 0.169150 -0.512003
O29   O     O_R   0.445800 0.917770 0.825070 -0.535852
O30   O     O_R   0.554200 0.917770 0.174930 -0.530413
O31   O     O_R   0.945800 0.417770 0.825070 -0.538483
O32   O     O_R   0.054200 0.417770 0.174930 -0.511401
O33   O     O_R   0.456410 0.716580 0.829970 -0.471755
O34   O     O_R   0.543590 0.716580 0.170030 -0.466919
O35   O     O_R   0.956410 0.216580 0.829970 -0.478327
O36   O     O_R   0.043590 0.216580 0.170030 -0.485179
O37   O     O_R   0.321080 0.625290 0.822650 -0.499534
O38   O     O_R   0.678920 0.625290 0.177350 -0.474573
O39   O     O_R   0.821080 0.125290 0.822650 -0.488273
O40   O     O_R   0.178920 0.125290 0.177350 -0.473844
O41   O     O_R   0.214930 0.711450 0.668160 -0.509697
O42   O     O_R   0.785070 0.711450 0.331840 -0.490390
O43   O     O_R   0.714930 0.211450 0.668160 -0.509488
O44   O     O_R   0.285070 0.211450 0.331840 -0.474741
O45   O     O_R   0.236850 0.959870 0.675420 -0.527298
O46   O     O_R   0.763150 0.959870 0.324580 -0.461370
O47   O     O_R   0.736850 0.459870 0.675420 -0.496130
O48   O     O_R   0.263150 0.459870 0.324580 -0.446349
O49   O     O_R   0.332230 0.076350 0.670880 -0.509453
O50   O     O_R   0.667770 0.076350 0.329120 -0.492734
O51   O     O_R   0.832230 0.576350 0.670880 -0.488708
O52   O     O_R   0.167770 0.576350 0.329120 -0.492301
N1    N     N_2   0.555963 0.635229 0.908980 -0.503816
H33   H     H_    0.551743 0.547528 0.926585 0.241547
C85   C     C_3   0.617850 0.661829 0.867309 -0.265042
H34   H     H_    0.664095 0.676308 0.903043 0.141155
H35   H     H_    0.610337 0.744128 0.834668 0.157575
H36   H     H_    0.627466 0.585544 0.830172 0.179429
N2    N     N_2   0.533470 0.603580 0.056983 -0.474966
H37   H     H_    0.574212 0.554767 0.036818 0.241520
C86   C     C_3   0.469577 0.532903 0.064461 -0.295896
H38   H     H_    0.448389 0.506758 0.011149 0.131003
H39   H     H_    0.429717 0.585262 0.094241 0.168997
H40   H     H_    0.481158 0.449384 0.094678 0.132088
N3    N     N_2   0.069348 0.151830 0.901911 -0.504617
H41   H     H_    0.067554 0.063992 0.919321 0.246069
C87   C     C_3   0.132841 0.185375 0.864626 -0.291490
H42   H     H_    0.141411 0.120044 0.820560 0.171996
H43   H     H_    0.178619 0.184396 0.901825 0.138967
H44   H     H_    0.128222 0.276839 0.840901 0.139358
N4    N     N_2   0.079934 0.129130 0.051414 -0.468411
H45   H     H_    0.123759 0.105870 0.023300 0.261531
C88   C     C_3   0.033600 0.027596 0.065486 -0.286278
H46   H     H_    0.008990 0.993899 0.015336 0.109085
H47   H     H_    0.992273 0.054795 0.102871 0.183951
H48   H     H_    0.062624 0.953655 0.091531 0.130705
C89   C     C_2   0.166796 0.767670 0.412102 0.246129
H49   H     H_    0.114704 0.786898 0.431499 0.126550
O53   O     O_2   0.184642 0.813666 0.355978 -0.518926
C90   C     C_2   0.824207 0.792521 0.604940 0.260783
H50   H     H_    0.871778 0.828520 0.581517 0.099957
O54   O     O_2   0.811251 0.820252 0.666508 -0.478359
C91   C     C_2   0.688952 0.307111 0.392088 0.262996
H51   H     H_    0.649315 0.363313 0.416470 0.135109
O55   O     O_2   0.701082 0.321341 0.328896 -0.477104
C92   C     C_2   0.329068 0.919412 0.538495 0.202667
H52   H     H_    0.325201 0.867901 0.587175 0.149983
O56   O     O_2   0.361276 0.875560 0.489009 -0.572055
N5    N     N_2   0.135511 0.699449 0.556371 -0.514934
H53   H     H_    0.112239 0.642873 0.593034 0.266243
C93   C     C_3   0.123707 0.827802 0.567858 -0.272229
H54   H     H_    0.167535 0.883990 0.546778 0.145323
H55   H     H_    0.073836 0.853907 0.541109 0.108142
H56   H     H_    0.117891 0.847493 0.625526 0.176787
N6    N     N_2   0.802466 0.842903 0.456433 -0.487198
H57   H     H_    0.793078 0.920879 0.485042 0.236242
C94   C     C_3   0.876317 0.827439 0.438957 -0.229681
H58   H     H_    0.884254 0.845593 0.381625 0.222899
H59   H     H_    0.909841 0.892692 0.469836 0.113269
H60   H     H_    0.894661 0.734123 0.450171 0.129894
N7    N     N_2   0.666254 0.291233 0.541588 -0.517525
H61   H     H_    0.675442 0.348681 0.583689 0.325915
C95   C     C_3   0.601164 0.221925 0.544923 -0.279523
H62   H     H_    0.557748 0.282079 0.561438 0.161186
H63   H     H_    0.587500 0.182740 0.491796 0.133067
H64   H     H_    0.606083 0.147590 0.584100 0.172169
N8    N     N_2   0.349262 0.197251 0.454809 -0.439540
H65   H     H_    0.352029 0.252059 0.499518 0.269562
C96   C     C_3   0.418605 0.164923 0.430673 -0.259269
H66   H     H_    0.449436 0.248518 0.419233 0.157375
H67   H     H_    0.446642 0.113792 0.472802 0.122866
H68   H     H_    0.414912 0.109442 0.381093 0.169989
C97   C     C_2   0.334875 0.600018 0.433397 0.210407
H69   H     H_    0.357298 0.652027 0.477308 0.148642
O57   O     O_2   0.373236 0.531479 0.400962 -0.493995
C98   C     C_2   0.658986 0.614346 0.579847 0.178291
H70   H     H_    0.634952 0.669234 0.539000 0.104475
O58   O     O_2   0.621014 0.548186 0.614866 -0.514808
C99   C     C_2   0.844966 0.138493 0.406587 0.195728
H71   H     H_    0.870920 0.201321 0.443389 0.097649
O59   O     O_2   0.881425 0.079590 0.366319 -0.499378
C100  C     C_2   0.212591 0.203175 0.574222 0.166713
H72   H     H_    0.189447 0.243178 0.621373 0.106789
O60   O     O_2   0.202337 0.251423 0.516869 -0.529070
N9    N     N_2   0.305279 0.404355 0.044762 -0.479919
H73   H     H_    0.342246 0.389133 0.084153 0.265937
C101  C     C_3   0.315968 0.331252 0.981605 -0.290953
H74   H     H_    0.327026 0.237825 0.997440 0.136786
H75   H     H_    0.361683 0.365715 0.951013 0.138002
H76   H     H_    0.267794 0.330193 0.947639 0.159082
N10   N     N_2   0.681682 0.369247 0.944442 -0.477438
H77   H     H_    0.649274 0.400418 0.904485 0.268935
C102  C     C_3   0.644792 0.286201 0.990634 -0.301333
H78   H     H_    0.625695 0.207211 0.958939 0.154775
H79   H     H_    0.598321 0.330622 0.014365 0.118991
H80   H     H_    0.680455 0.254106 0.033429 0.181898
N11   N     N_2   0.846608 0.030585 0.080410 -0.466605
H81   H     H_    0.882623 0.099611 0.072488 0.240759
C103  C     C_3   0.876886 0.911936 0.076580 -0.278613
H82   H     H_    0.913832 0.900229 0.122060 0.138421
H83   H     H_    0.904030 0.900154 0.025103 0.104197
H84   H     H_    0.835503 0.840476 0.079529 0.184285
N12   N     N_2   0.176344 0.878013 0.942243 -0.476740
H85   H     H_    0.149271 0.923934 0.903553 0.269680
C104  C     C_3   0.131812 0.792319 0.979384 -0.296613
H86   H     H_    0.124344 0.710040 0.945981 0.165592
H87   H     H_    0.079205 0.831280 0.987507 0.112548
H88   H     H_    0.153602 0.765318 0.031294 0.149866

loop_
_geom_bond_atom_site_label_1
_geom_bond_atom_site_label_2
_ccdc_geom_bond_type
Cr12  O12   S    
C16   C28   D    
C101  H75   S    
Cr10  O18   S    
Cr4   O44   S    
C37   C69   S    
Cr8   O20   S    
N8    C96   S    
C88   H46   S    
C55   N7    S    
C67   O7    A    
C35   C36   S    
C35   H27   S    
C81   N1    S    
C38   H2    S    
Cr9   O13   S    
C94   H60   S    
Cr7   O19   S    
C81   C82   A    
C17   H17   S    
C47   O31   A    
C77   C78   A    
C28   H16   S    
Cr5   O17   S    
C48   O32   A    
C59   O3    A    
C60   O40   A    
Cr3   O19   S    
C2    O22   A    
C83   C84   A    
C72   O44   A    
C32   H31   S    
C7    C79   A    
C36   H28   S    
Cr1   O17   S    
C47   C76   S    
C5    C11   A    
C85   H35   S    
C6    C12   A    
C102  H78   S    
C64   O52   A    
C103  H84   S    
C92   O56   D    
C75   C84   A    
C6    C78   A    
C13   C57   S    
C69   O13   A    
N12   H85   S    
C46   O30   A    
C101  H74   S    
C104  H88   S    
C63   O51   A    
C98   H70   S    
C3    C18   S    
N12   C104  S    
C97   H69   S    
C16   C60   S    
Cr3   O3    S    
C86   H39   S    
C99   H71   S    
C45   O33   A    
C21   C25   S    
Cr8   O52   S    
Cr1   O1    S    
C19   H19   S    
C66   O6    A    
Cr5   O25   S    
C41   C49   D    
C51   C91   S    
C39   C55   D    
C20   C24   D    
C43   C99   S    
C90   H50   S    
N3    C87   S    
C104  H87   S    
C66   O10   A    
Cr1   O45   S    
N8    H65   S    
Cr12  O40   S    
C56   N8    S    
Cr9   O17   S    
N9    H73   S    
C89   H49   S    
C23   C27   S    
Cr6   O26   S    
C67   O11   A    
N11   H81   S    
Cr10  O34   S    
C102  H79   S    
C25   H13   S    
C32   C68   S    
C87   H44   S    
C37   C53   D    
C44   C52   D    
C89   O53   D    
C30   H29   S    
Cr9   O37   S    
N4    H45   S    
C34   H26   S    
Cr3   O23   S    
C96   H66   S    
C33   H25   S    
C88   H47   S    
C48   C75   S    
C13   C25   D    
Cr8   O8    S    
C15   C59   S    
C31   H32   S    
C4    O24   A    
Cr2   O18   S    
C76   C83   A    
C37   H1    S    
C33   C34   S    
Cr1   O21   S    
C99   O59   D    
C84   N4    S    
C53   N5    S    
C14   C58   S    
C44   C61   S    
C5    H5    S    
C70   O14   A    
Cr5   O5    S    
C24   N12   S    
Cr10  O14   S    
C32   C35   D    
C76   C80   A    
C68   O8    A    
Cr11  O19   S    
C79   C80   A    
N6    H57   S    
Cr8   O28   S    
C85   H36   S    
C93   H54   S    
C12   H12   S    
C92   H52   S    
Cr2   O2    S    
N9    C101  S    
Cr6   O18   S    
C40   C56   D    
C100  H72   S    
N1    H33   S    
C29   C34   D    
C23   N11   S    
Cr1   O41   S    
Cr12  O36   S    
Cr12  O20   S    
C41   C97   S    
C45   C74   S    
Cr2   O46   S    
C83   N3    S    
C86   H40   S    
C19   C23   D    
C85   H34   S    
C62   O50   A    
N7    H61   S    
Cr11  O35   S    
C93   H55   S    
C8    H8    S    
C15   C27   D    
C91   H51   S    
C38   C54   D    
Cr9   O33   S    
C61   O49   A    
C103  H82   S    
C91   O55   D    
Cr3   O43   S    
C3    O27   A    
C104  H86   S    
Cr4   O20   S    
C45   O29   A    
Cr5   O29   S    
C95   H63   S    
C69   O41   A    
C14   C26   D    
C1    O25   A    
N11   C103  S    
N4    C88   S    
C30   C66   S    
C42   C50   D    
C29   C65   S    
C4    C17   S    
C44   C100  S    
C38   C70   S    
C4    O28   A    
C49   C89   S    
C52   C92   S    
C14   H22   S    
C100  O60   D    
Cr5   O49   S    
C96   H67   S    
C46   O34   A    
Cr10  O10   S    
C88   H48   S    
C71   O43   A    
Cr11  O11   S    
C68   O12   A    
C64   O48   A    
Cr7   O27   S    
Cr4   O4    S    
C74   C81   A    
C5    C77   A    
N10   H77   S    
C10   H10   S    
C73   C82   A    
C50   C54   S    
C59   O39   A    
C18   H18   S    
C71   O15   A    
C9    C10   A    
C57   O1    A    
C72   O16   A    
C98   O58   D    
C26   H14   S    
C1    C20   S    
C39   C71   S    
C60   O4    A    
C40   C72   S    
C30   C33   D    
C94   H58   S    
C2    C19   S    
C18   C22   D    
Cr7   O31   S    
C8    C10   A    
Cr11  O15   S    
C24   C28   S    
C20   H20   S    
C1    O21   A    
N10   C102  S    
Cr11  O39   S    
C40   H4    S    
C102  H80   S    
C13   H21   S    
C11   C12   A    
N6    C94   S    
C63   O47   A    
C48   O36   A    
C22   N10   S    
N5    C93   S    
Cr3   O47   S    
C74   C78   A    
C3    O23   A    
Cr4   O48   S    
C82   N2    S    
Cr8   O32   S    
Cr7   O51   S    
Cr2   O22   S    
C70   O42   A    
C65   O9    A    
N2    H37   S    
N7    C95   S    
C93   H56   S    
C11   H11   S    
C103  H83   S    
C43   C51   D    
C54   N6    S    
C2    O26   A    
C75   C79   A    
Cr2   O42   S    
C58   O2    A    
C47   O35   A    
Cr6   O6    S    
C42   C63   S    
N5    H53   S    
C42   C98   S    
C94   H59   S    
C15   H23   S    
C95   H64   S    
C51   C55   S    
C6    H6    S    
C86   H38   S    
C58   O38   A    
C17   C21   D    
Cr10  O38   S    
C101  H76   S    
C49   C53   S    
Cr9   O9    S    
C31   C67   S    
C21   N9    S    
C87   H42   S    
Cr4   O24   S    
C7    C9    A    
C39   H3    S    
N1    C85   S    
Cr7   O7    S    
Cr6   O30   S    
C90   O54   D    
N3    H41   S    
C22   C26   S    
C96   H68   S    
C95   H62   S    
C8    C80   A    
C61   O45   A    
C73   C77   A    
C31   C36   D    
C57   O37   A    
C7    H7    S    
C41   C64   S    
C97   O57   D    
C29   H30   S    
C16   H24   S    
C9    H9    S    
N2    C86   S    
C27   H15   S    
C46   C73   S    
C65   O5    A    
C52   C56   S    
C43   C62   S    
C50   C90   S    
Cr6   O50   S    
C87   H43   S    
Cr12  O16   S    
C62   O46   A    
