data_mof_unit_49911.cif
_audit_creation_date              2012-12-11T14:52:42-0500
_audit_creation_method            fapswitch 2.2
_symmetry_space_group_name_H-M    P1
_symmetry_Int_Tables_number       1
_space_group_crystal_system       triclinic
_cell_length_a                    18.911906
_cell_length_b                    10.874204
_cell_length_c                    18.764644
_cell_angle_alpha                 89.947558
_cell_angle_beta                  90.968967
_cell_angle_gamma                 89.736152
_cell_volume                      3858.39049447

loop_
_atom_site_label
_atom_site_type_symbol
_atom_type_description
_atom_site_fract_x
_atom_site_fract_y
_atom_site_fract_z
_atom_type_partial_charge
C1    C     C_R   0.271932 0.042772 0.853372 0.558914
C2    C     C_R   0.703097 0.522493 0.038209 -0.166016
C3    C     C_3   0.997100 0.329671 0.073185 0.058543
C4    C     C_R   0.807617 0.043471 0.963520 -0.112184
C5    C     C_R   0.203097 0.022493 0.038209 -0.166016
C6    C     C_R   0.300195 0.530011 0.036752 -0.206483
C7    C     C_R   0.707310 0.505910 0.964878 -0.204426
C8    C     C_R   0.800195 0.030011 0.036752 -0.206483
C9    C     C_R   0.207310 0.005910 0.964878 -0.204426
C10   C     C_R   0.235579 0.558781 0.068180 0.018098
C11   C     C_R   0.751873 0.581305 0.924390 0.028696
C12   C     C_R   0.735579 0.058781 0.068180 0.018098
C13   C     C_R   0.724676 0.035902 0.143597 0.564802
C14   C     C_R   0.251873 0.081305 0.924390 0.028696
C15   C     C_R   0.176914 0.592371 0.024806 0.341726
C16   C     C_R   0.788488 0.677976 0.957139 0.361077
C17   C     C_R   0.676914 0.092371 0.024806 0.341726
C18   C     C_R   0.288488 0.177976 0.957139 0.361077
C19   C     C_R   0.183896 0.601231 0.952208 -0.108814
C20   C     C_R   0.785681 0.691903 0.029919 -0.100624
C21   C     C_R   0.683896 0.101231 0.952208 -0.108814
C22   C     C_R   0.285681 0.191903 0.029919 -0.100624
C23   C     C_R   0.249789 0.583267 0.921454 -0.015938
C24   C     C_R   0.771932 0.542772 0.853372 0.558913
C25   C     C_R   0.744336 0.612946 0.071233 -0.038508
C26   C     C_R   0.749789 0.083267 0.921454 -0.015937
C27   C     C_R   0.244336 0.112946 0.071233 -0.038509
C28   C     C_R   0.547853 0.730853 0.554609 0.230729
C29   C     C_R   0.559418 0.723019 0.481035 0.294320
C30   C     C_R   0.047850 0.230849 0.554608 0.230727
C31   C     C_R   0.059413 0.223016 0.481034 0.294318
C32   C     C_R   0.545114 0.825714 0.437125 0.024116
C33   C     C_R   0.511431 0.834110 0.581742 -0.021235
C34   C     C_R   0.045114 0.325714 0.437125 0.024118
C35   C     C_R   0.224676 0.535902 0.143597 0.564801
C36   C     C_R   0.011431 0.334109 0.581742 -0.021237
C37   C     C_R   0.516946 0.933356 0.466567 -0.204777
C38   C     C_R   0.499099 0.936791 0.537991 -0.191134
C39   C     C_R   0.016951 0.433359 0.466569 -0.204774
C40   C     C_R   0.999105 0.436793 0.537992 -0.191130
C41   C     C_R   0.438343 0.817238 0.862514 0.551297
C42   C     C_R   0.527134 0.822164 0.145751 0.556681
C43   C     C_R   0.938343 0.317238 0.862514 0.551297
C44   C     C_R   0.027134 0.322164 0.145751 0.556681
C45   C     C_R   0.183859 0.589112 0.543713 -0.104343
C46   C     C_3   0.509568 0.731345 0.974210 -0.116554
C47   C     C_R   0.769194 0.707016 0.475685 -0.140454
C48   C     C_R   0.683859 0.089102 0.543714 -0.104342
C49   C     C_R   0.269213 0.207005 0.475684 -0.140481
C50   C     C_R   0.178330 0.586916 0.471039 -0.161295
C51   C     C_R   0.772377 0.688257 0.547819 -0.195915
C52   C     C_R   0.678329 0.086905 0.471041 -0.161291
C53   C     C_R   0.272393 0.188251 0.547818 -0.195930
C54   C     C_R   0.238686 0.568009 0.429703 0.034137
C55   C     C_R   0.752254 0.574800 0.574229 0.057971
C56   C     C_R   0.738685 0.068007 0.429703 0.034139
C57   C     C_3   0.458216 0.722599 0.036902 -0.125655
C58   C     C_R   0.252250 0.074808 0.574231 0.057959
C59   C     C_R   0.304922 0.549267 0.461999 0.349084
C60   C     C_R   0.725952 0.481432 0.528657 0.387285
C61   C     C_R   0.804923 0.049273 0.461998 0.349094
C62   C     C_R   0.225930 0.981452 0.528662 0.387312
C63   C     C_R   0.310750 0.554926 0.535316 -0.100766
C64   C     C_R   0.724136 0.499982 0.456255 -0.069394
C65   C     C_R   0.810752 0.054933 0.535315 -0.100746
C66   C     C_R   0.224118 0.999996 0.456259 -0.069372
C67   C     C_R   0.250478 0.580708 0.575704 -0.020126
C68   C     C_3   0.009568 0.231345 0.974210 -0.116554
C69   C     C_R   0.746663 0.611812 0.430217 0.005453
C70   C     C_R   0.750479 0.080708 0.575704 -0.020104
C71   C     C_R   0.246664 0.111811 0.430218 0.005431
C72   C     C_R   0.260559 0.634282 0.851011 0.536650
C73   C     C_R   0.738033 0.641307 0.146461 0.544265
C74   C     C_R   0.760559 0.134282 0.851011 0.536648
C75   C     C_R   0.238033 0.141307 0.146461 0.544266
C76   C     C_R   0.271455 0.044012 0.645657 0.566335
C77   C     C_R   0.727204 0.043294 0.355497 0.566662
C78   C     C_R   0.771456 0.544010 0.645657 0.566348
C79   C     C_3   0.958216 0.222599 0.036902 -0.125655
C80   C     C_R   0.227204 0.543294 0.355497 0.566663
C81   C     C_R   0.472780 0.823966 0.648533 0.549863
C82   C     C_R   0.561162 0.819208 0.360929 0.583022
C83   C     C_R   0.972780 0.323966 0.648533 0.549867
C84   C     C_R   0.061162 0.319208 0.360929 0.583024
C85   C     C_R   0.259696 0.633345 0.645015 0.576616
C86   C     C_R   0.739786 0.639176 0.356781 0.544474
C87   C     C_R   0.759696 0.133345 0.645015 0.576640
C88   C     C_R   0.239786 0.139177 0.356782 0.544473
C89   C     C_3   0.447177 0.924101 0.037902 -0.094658
C90   C     C_R   0.307617 0.543471 0.963520 -0.112185
C91   C     C_3   0.498364 0.932709 0.974411 -0.058285
C92   C     C_3   0.947177 0.424101 0.037902 -0.094658
C93   C     C_3   0.998364 0.432709 0.974411 -0.058285
C94   C     C_3   0.407753 0.816655 0.000290 -0.160330
C95   C     C_3   0.548579 0.838593 0.010916 -0.085896
C96   C     C_3   0.907753 0.316655 0.000290 -0.160330
C97   C     C_3   0.048579 0.338593 0.010916 -0.085896
C98   C     C_3   0.459580 0.825074 0.938308 0.029474
C99   C     C_3   0.497100 0.829671 0.073185 0.058543
C100  C     C_3   0.959580 0.325074 0.938308 0.029474
Cr1   Cr    Cr6+3 0.229630 0.835900 0.747350 1.071133
Cr2   Cr    Cr6+3 0.614200 0.677120 0.250660 1.073867
Cr3   Cr    Cr6+3 0.885800 0.177120 0.749340 1.051055
Cr4   Cr    Cr6+3 0.114200 0.177120 0.250660 1.073865
Cr5   Cr    Cr6+3 0.770370 0.835900 0.252650 1.065775
Cr6   Cr    Cr6+3 0.729630 0.335900 0.747350 1.071125
Cr7   Cr    Cr6+3 0.270370 0.335900 0.252650 1.065775
Cr8   Cr    Cr6+3 0.387410 0.989850 0.750850 1.057403
Cr9   Cr    Cr6+3 0.612590 0.989850 0.249150 1.067591
Cr10  Cr    Cr6+3 0.887410 0.489850 0.750850 1.057411
Cr11  Cr    Cr6+3 0.112590 0.489850 0.249150 1.067590
Cr12  Cr    Cr6+3 0.385800 0.677120 0.749340 1.051050
F1    F     F_    0.363501 0.527851 0.422926 -0.606403
F2    F     F_    0.705711 0.370073 0.553225 -0.616380
F3    F     F_    0.863502 0.027865 0.422924 -0.606400
F4    F     F_    0.205665 0.870108 0.553233 -0.616367
F5    F     F_    0.111991 0.615641 0.051782 -0.632213
F6    F     F_    0.829544 0.755855 0.919379 -0.628600
F7    F     F_    0.611991 0.115641 0.051782 -0.632213
F8    F     F_    0.329544 0.255855 0.919379 -0.628600
H1    H     H_    0.349468 0.807875 0.994427 0.116507
H2    H     H_    0.792622 0.760010 0.582560 0.136768
H3    H     H_    0.626187 0.098735 0.447420 0.154899
H4    H     H_    0.292651 0.259996 0.582556 0.136786
H5    H     H_    0.362973 0.548228 0.559696 0.177036
H6    H     H_    0.704977 0.428342 0.420830 0.148192
H7    H     H_    0.862975 0.048241 0.559695 0.177035
H8    H     H_    0.204944 0.928365 0.420836 0.148202
H9    H     H_    0.421731 0.002725 0.065305 0.141847
H10   H     H_    0.514851 0.018668 0.947564 0.168293
H11   H     H_    0.921731 0.502725 0.065305 0.141847
H12   H     H_    0.606926 0.847069 0.016351 0.131375
H13   H     H_    0.014851 0.518668 0.947564 0.168293
H14   H     H_    0.535627 0.652201 0.947866 0.145078
H15   H     H_    0.442566 0.636643 0.064081 0.130877
H16   H     H_    0.035627 0.152201 0.947866 0.145078
H17   H     H_    0.942566 0.136643 0.064081 0.130877
H18   H     H_    0.359213 0.529270 0.940642 0.181064
H19   H     H_    0.669143 0.463609 0.069070 0.165864
H20   H     H_    0.859213 0.029270 0.940642 0.181064
H21   H     H_    0.169143 0.963609 0.069070 0.165863
H22   H     H_    0.344894 0.498984 0.068873 0.136492
H23   H     H_    0.849468 0.307875 0.994427 0.116507
H24   H     H_    0.678674 0.430239 0.940657 0.161287
H25   H     H_    0.844894 0.998984 0.068873 0.136492
H26   H     H_    0.178674 0.930239 0.940657 0.161287
H27   H     H_    0.138309 0.630228 0.920582 0.154484
H28   H     H_    0.815596 0.766361 0.053733 0.164286
H29   H     H_    0.638309 0.130228 0.920582 0.154484
H30   H     H_    0.315596 0.266361 0.053733 0.164286
H31   H     H_    0.505238 0.012970 0.433655 0.158277
H32   H     H_    0.471769 0.017243 0.557806 0.163808
H33   H     H_    0.005247 0.512975 0.433658 0.158274
H34   H     H_    0.106926 0.347069 0.016351 0.131375
H35   H     H_    0.971778 0.517247 0.557809 0.163809
H36   H     H_    0.580201 0.668603 0.646434 0.331298
H37   H     H_    0.579577 0.546853 0.484503 0.381529
H38   H     H_    0.080198 0.168593 0.646432 0.331299
H39   H     H_    0.079549 0.046843 0.484496 0.381538
H40   H     H_    0.136965 0.607943 0.574391 0.162562
H41   H     H_    0.784373 0.795939 0.455247 0.173151
H42   H     H_    0.636964 0.107928 0.574393 0.162543
H43   H     H_    0.284408 0.295919 0.455244 0.173191
H44   H     H_    0.126189 0.598753 0.447418 0.154902
O1    O     O_R   0.214270 0.709000 0.827470 -0.534845
O2    O     O_R   0.543270 0.717630 0.330160 -0.426270
O3    O     O_R   0.956730 0.217630 0.669840 -0.484731
O4    O     O_R   0.043270 0.217630 0.330160 -0.426268
O5    O     O_R   0.320620 0.625640 0.672920 -0.513356
O6    O     O_R   0.679380 0.625640 0.327080 -0.483491
O7    O     O_R   0.820620 0.125640 0.672920 -0.513357
O8    O     O_R   0.179380 0.125640 0.327080 -0.483497
O9    O     O_3   0.334280 0.834290 0.749180 -0.287233
O10   O     O_3   0.665720 0.834290 0.250820 -0.305924
O11   O     O_3   0.834280 0.334290 0.749180 -0.287228
O12   O     O_R   0.785730 0.709000 0.172530 -0.523622
O13   O     O_3   0.165720 0.334290 0.250820 -0.305923
O14   O     O_R   0.236160 0.958490 0.823130 -0.532444
O15   O     O_R   0.763840 0.958490 0.176870 -0.519802
O16   O     O_R   0.736160 0.458490 0.823130 -0.532446
O17   O     O_R   0.263840 0.458490 0.176870 -0.519803
O18   O     O_R   0.332080 0.075470 0.831280 -0.448453
O19   O     O_R   0.667920 0.075470 0.168720 -0.432873
O20   O     O_R   0.832080 0.575470 0.831280 -0.448453
O21   O     O_R   0.167920 0.575470 0.168720 -0.432874
O22   O     O_R   0.446300 0.918110 0.826620 -0.503405
O23   O     O_R   0.714270 0.209000 0.827470 -0.534848
O24   O     O_R   0.553700 0.918110 0.173380 -0.466150
O25   O     O_R   0.946300 0.418110 0.826620 -0.503406
O26   O     O_R   0.053700 0.418110 0.173380 -0.466150
O27   O     O_R   0.457110 0.716200 0.831760 -0.518345
O28   O     O_R   0.542890 0.716200 0.168240 -0.519370
O29   O     O_R   0.957110 0.216200 0.831760 -0.518346
O30   O     O_R   0.042890 0.216200 0.168240 -0.519369
O31   O     O_R   0.320980 0.624310 0.823030 -0.510004
O32   O     O_R   0.679020 0.624310 0.176970 -0.499035
O33   O     O_R   0.820980 0.124310 0.823030 -0.510006
O34   O     O_R   0.285730 0.209000 0.172530 -0.523621
O35   O     O_R   0.179020 0.124310 0.176970 -0.499035
O36   O     O_R   0.213890 0.710430 0.665540 -0.448677
O37   O     O_R   0.786110 0.710430 0.334460 -0.507190
O38   O     O_R   0.713890 0.210430 0.665540 -0.448674
O39   O     O_R   0.286110 0.210430 0.334460 -0.507193
O40   O     O_R   0.235810 0.959820 0.673020 -0.428342
O41   O     O_R   0.764190 0.959820 0.326980 -0.448602
O42   O     O_R   0.735810 0.459820 0.673020 -0.428352
O43   O     O_R   0.264190 0.459820 0.326980 -0.448598
O44   O     O_R   0.331700 0.076900 0.669350 -0.530436
O45   O     O_R   0.445950 0.919440 0.676520 -0.502933
O46   O     O_R   0.668300 0.076900 0.330650 -0.547220
O47   O     O_R   0.831700 0.576900 0.669350 -0.530430
O48   O     O_R   0.168300 0.576900 0.330650 -0.547224
O49   O     O_3   0.570954 0.635540 0.597973 -0.690210
O50   O     O_3   0.584097 0.615956 0.450509 -0.664621
O51   O     O_3   0.070948 0.135532 0.597971 -0.690185
O52   O     O_3   0.084085 0.115950 0.450506 -0.664619
O53   O     O_R   0.554050 0.919440 0.323480 -0.527178
O54   O     O_R   0.945950 0.419440 0.676520 -0.502930
O55   O     O_R   0.054050 0.419440 0.323480 -0.527176
O56   O     O_R   0.456730 0.717630 0.669840 -0.484731

loop_
_geom_bond_atom_site_label_1
_geom_bond_atom_site_label_2
_ccdc_geom_bond_type
C58   C62   A    
C81   O45   A    
C21   C26   A    
C22   H30   S    
Cr2   O6    S    
C88   O8    A    
C53   C58   A    
C93   C97   S    
C24   O20   A    
C72   O1    A    
C9    H26   S    
C60   F2    S    
C2    C7    A    
C4    C8    A    
C3    C79   S    
C72   O31   A    
C68   C100  S    
Cr8   O45   S    
Cr1   O36   S    
C58   C76   S    
C91   H10   S    
Cr10  O11   S    
C7    C11   A    
H37   O50   S    
C50   C54   A    
C34   C84   S    
Cr7   O17   S    
C2    H19   S    
C65   H7    S    
Cr8   O22   S    
C28   C29   A    
C25   C73   S    
Cr5   O15   S    
Cr6   O23   S    
C29   C32   A    
C93   H13   S    
C10   C15   A    
C30   C31   A    
C52   H3    S    
C95   C99   S    
Cr6   O38   S    
C20   C25   A    
C94   C98   S    
C36   C83   S    
C65   C70   A    
C57   C99   S    
C11   C24   S    
C92   C96   S    
C89   H9    S    
C76   O44   A    
C96   H23   S    
Cr3   O33   S    
Cr6   O16   S    
C89   C94   S    
C14   C18   A    
C68   C97   S    
C47   C69   A    
Cr1   O14   S    
C44   O26   A    
C30   O51   S    
C5    C27   A    
Cr1   O9    S    
Cr8   O18   S    
C46   C95   S    
Cr4   O13   S    
C13   O19   A    
Cr5   O12   S    
C12   C17   A    
C61   F3    S    
Cr2   O28   S    
Cr8   O44   S    
C20   H28   S    
C40   H35   S    
C10   C35   S    
H39   O52   S    
C21   H29   S    
C89   C91   S    
C87   O38   A    
Cr7   O43   S    
C16   C20   A    
C80   O48   A    
Cr9   O19   S    
C68   C79   S    
Cr12  O9    S    
C46   C98   S    
Cr10  O20   S    
Cr2   O2    S    
C86   O6    A    
C55   C60   A    
Cr7   O13   S    
Cr3   O7    S    
Cr6   O42   S    
C45   H40   S    
Cr11  O55   S    
C37   H31   S    
C27   C75   S    
C70   C87   S    
C38   H32   S    
C7    H24   S    
C90   H18   S    
C54   C80   S    
C54   C59   A    
Cr9   O24   S    
Cr11  O48   S    
C63   C67   A    
C3    C44   S    
C67   C85   S    
Cr11  O21   S    
C62   C66   A    
C50   H44   S    
C34   C39   A    
C32   C37   A    
C68   H16   S    
C92   H11   S    
C43   C100  S    
C39   C40   A    
C83   O54   A    
C41   O27   A    
Cr9   O10   S    
C47   C51   A    
C31   O52   S    
H38   O51   S    
C6    C90   A    
C81   O56   A    
C83   O3    A    
Cr1   O40   S    
C42   O28   A    
C85   O5    A    
C56   C77   S    
C15   F5    S    
C3    C92   S    
C15   C19   A    
C9    C14   A    
C78   O42   A    
Cr12  O31   S    
Cr7   O39   S    
C37   C38   A    
C84   O4    A    
C84   O55   A    
C77   O41   A    
C46   H14   S    
C1    O14   A    
C16   F6    S    
C85   O36   A    
Cr5   O37   S    
Cr12  O5    S    
C93   C100  S    
C74   O33   A    
C36   C40   A    
C8    C12   A    
C87   O7    A    
Cr8   O9    S    
C8    H25   S    
Cr3   O11   S    
Cr12  O56   S    
C23   C90   A    
C56   C61   A    
Cr3   O3    S    
Cr1   O1    S    
C86   O37   A    
C63   H5    S    
C66   C71   A    
C77   O46   A    
C79   H17   S    
C39   H33   S    
C28   C33   A    
C64   H6    S    
C22   C27   A    
C46   C57   S    
C95   H12   S    
Cr4   O35   S    
C35   O17   A    
Cr9   O46   S    
Cr5   O10   S    
C18   F8    S    
Cr4   O8    S    
C31   C34   A    
C19   C23   A    
C74   O23   A    
C82   O2    A    
C75   O34   A    
C42   O24   A    
C28   O49   S    
C55   C78   S    
C3    C97   S    
C18   C22   A    
C44   O30   A    
C23   C72   S    
C5    H21   S    
C48   C70   A    
C59   F1    S    
C89   C99   S    
C53   H4    S    
Cr2   O32   S    
C97   H34   S    
C6    C10   A    
Cr6   O11   S    
C4    C26   A    
C1    O18   A    
C76   O40   A    
Cr5   O41   S    
C45   C67   A    
C1    C14   S    
C75   O35   A    
Cr2   O10   S    
C64   C69   A    
C43   O29   A    
Cr10  O25   S    
C59   C63   A    
C33   C38   A    
C30   C36   A    
C60   C64   A    
Cr10  O47   S    
Cr4   O4    S    
C13   O15   A    
C42   C99   S    
C32   C82   S    
C91   C98   S    
C29   O50   S    
C82   O53   A    
C45   C50   A    
C73   O12   A    
C49   C53   A    
C24   O16   A    
C96   C100  S    
C92   C93   S    
C57   C94   S    
C66   H8    S    
C41   O22   A    
C2    C25   A    
C51   C55   A    
C88   O39   A    
C4    H20   S    
Cr10  O54   S    
C19   H27   S    
C49   H43   S    
C11   C16   A    
Cr9   O53   S    
C62   F4    S    
C17   F7    S    
C91   C95   S    
C71   C88   S    
C47   H41   S    
C94   H1    S    
C61   C65   A    
C6    H22   S    
C79   C96   S    
C80   O43   A    
C48   H42   S    
C12   C13   S    
C43   O25   A    
Cr11  O26   S    
C26   C74   S    
C49   C71   A    
C73   O32   A    
H36   O49   S    
Cr11  O13   S    
C51   H2    S    
Cr4   O30   S    
C41   C98   S    
C57   H15   S    
C5    C9    A    
Cr3   O29   S    
C48   C52   A    
C35   O21   A    
C33   C81   S    
C78   O47   A    
C69   C86   S    
C52   C56   A    
Cr7   O34   S    
Cr12  O27   S    
C17   C21   A    
