data_mof_unit_46481.cif
_audit_creation_date              2012-12-10T20:10:39-0500
_audit_creation_method            fapswitch 2.2
_symmetry_space_group_name_H-M    P1
_symmetry_Int_Tables_number       1
_space_group_crystal_system       triclinic
_cell_length_a                    15.869356
_cell_length_b                    15.869358
_cell_length_c                    43.12894
_cell_angle_alpha                 89.999986
_cell_angle_beta                  89.999948
_cell_angle_gamma                 90.0
_cell_volume                      10861.4409357

loop_
_atom_site_label
_atom_site_type_symbol
_atom_type_description
_atom_site_fract_x
_atom_site_fract_y
_atom_site_fract_z
_atom_type_partial_charge
C1    C     C_R   0.500000 0.000000 0.131281 -0.004960
C2    C     C_R   0.500000 1.000000 0.665473 0.498435
C3    C     C_R   0.256545 0.196427 0.163606 -0.087559
C4    C     C_R   0.340445 0.222864 0.161873 -0.107868
C5    C     C_R   0.399724 0.174209 0.145894 -0.086520
C6    C     C_R   0.648970 0.058693 0.869815 0.067267
C7    C     C_R   0.721733 0.008672 0.867422 -0.061383
C8    C     C_R   0.793392 0.039919 0.852445 -0.105524
C9    C     C_R   0.792738 0.120952 0.839720 -0.090167
C10   C     C_R   0.720551 0.171021 0.842054 -0.095164
C11   C     C_R   0.648863 0.140179 0.857116 -0.078921
C12   C     C_R   0.901419 0.375250 0.131595 0.063646
C13   C     C_R   1.000000 0.500000 0.334348 0.503642
C14   C     C_R   0.927801 0.290932 0.133511 -0.059596
C15   C     C_R   0.878844 0.231822 0.149438 -0.098434
C16   C     C_R   0.803574 0.256545 0.163606 -0.087559
C17   C     C_R   0.777136 0.340444 0.161872 -0.107868
C18   C     C_R   0.825791 0.399724 0.145893 -0.086520
C19   C     C_R   0.941307 0.648970 0.869815 0.067266
C20   C     C_R   0.991327 0.721733 0.867421 -0.061383
C21   C     C_R   0.960080 0.793392 0.852445 -0.105523
C22   C     C_R   0.879046 0.792737 0.839720 -0.090168
C23   C     C_R   0.828977 0.720550 0.842055 -0.095165
C24   C     C_R   1.000000 0.500000 0.665473 0.498436
C25   C     C_R   0.859821 0.648862 0.857116 -0.078922
C26   C     C_R   0.624750 0.901420 0.131595 0.063645
C27   C     C_R   0.709069 0.927801 0.133510 -0.059596
C28   C     C_R   0.768178 0.878845 0.149438 -0.098434
C29   C     C_R   0.743455 0.803574 0.163606 -0.087559
C30   C     C_R   0.659556 0.777137 0.161872 -0.107868
C31   C     C_R   0.600276 0.825792 0.145893 -0.086520
C32   C     C_R   0.351029 0.941308 0.869815 0.067266
C33   C     C_R   0.278267 0.991328 0.867422 -0.061384
C34   C     C_R   0.206607 0.960082 0.852445 -0.105523
C35   C     C_R   1.000000 0.500000 0.834527 0.498435
C36   C     C_R   0.207262 0.879048 0.839720 -0.090167
C37   C     C_R   0.279449 0.828979 0.842055 -0.095165
C38   C     C_R   0.351137 0.859822 0.857116 -0.078921
C39   C     C_R   0.098581 0.624750 0.131595 0.063645
C40   C     C_R   0.072199 0.709069 0.133510 -0.059596
C41   C     C_R   0.121156 0.768178 0.149438 -0.098434
C42   C     C_R   0.196426 0.743455 0.163606 -0.087559
C43   C     C_R   0.222863 0.659555 0.161872 -0.107868
C44   C     C_R   0.174209 0.600276 0.145894 -0.086520
C45   C     C_R   0.058693 0.351030 0.869815 0.067267
C46   C     C_R   0.000000 0.500000 0.165652 0.503644
C47   C     C_R   0.008673 0.278267 0.867422 -0.061384
C48   C     C_R   0.039920 0.206608 0.852445 -0.105524
C49   C     C_R   0.120953 0.207263 0.839720 -0.090167
C50   C     C_R   0.171022 0.279450 0.842054 -0.095164
C51   C     C_R   0.140179 0.351138 0.857116 -0.078921
C52   C     C_R   0.851031 0.558693 0.630185 0.067266
C53   C     C_R   0.778267 0.508675 0.632578 -0.061383
C54   C     C_R   0.706609 0.539922 0.647555 -0.105523
C55   C     C_R   0.707264 0.620956 0.660280 -0.090168
C56   C     C_R   0.779452 0.671024 0.657945 -0.095164
C57   C     C_R   0.500000 0.000000 0.834527 0.498436
C58   C     C_R   0.851139 0.640180 0.642884 -0.078921
C59   C     C_R   0.124754 0.598577 0.368404 0.063644
C60   C     C_R   0.209073 0.572196 0.366492 -0.059599
C61   C     C_R   0.268184 0.621151 0.350564 -0.098439
C62   C     C_R   0.243463 0.696418 0.336394 -0.087559
C63   C     C_R   0.159563 0.722855 0.338125 -0.107864
C64   C     C_R   0.100282 0.674202 0.354104 -0.086518
C65   C     C_R   0.441310 0.851029 0.630185 0.067266
C66   C     C_R   0.491331 0.778266 0.632578 -0.061385
C67   C     C_R   0.460085 0.706607 0.647554 -0.105524
C68   C     C_R   0.500000 0.000000 0.165652 0.503644
C69   C     C_R   0.379051 0.707261 0.660279 -0.090168
C70   C     C_R   0.328981 0.779448 0.657945 -0.095164
C71   C     C_R   0.359824 0.851136 0.642884 -0.078920
C72   C     C_R   0.401425 0.124755 0.368405 0.063647
C73   C     C_R   0.427812 0.209072 0.366489 -0.059594
C74   C     C_R   0.378858 0.268183 0.350562 -0.098434
C75   C     C_R   0.303585 0.243465 0.336394 -0.087558
C76   C     C_R   0.277143 0.159566 0.338129 -0.107866
C77   C     C_R   0.325795 0.100285 0.354107 -0.086519
C78   C     C_R   0.148969 0.441304 0.630185 0.067268
C79   C     C_R   0.339914 0.160086 0.250000 0.509683
C80   C     C_R   0.221733 0.491323 0.632580 -0.061380
C81   C     C_R   0.293391 0.460074 0.647557 -0.105521
C82   C     C_R   0.292734 0.379040 0.660281 -0.090167
C83   C     C_R   0.220547 0.328972 0.657945 -0.095167
C84   C     C_R   0.148860 0.359817 0.642884 -0.078923
C85   C     C_R   0.875247 0.401424 0.368405 0.063646
C86   C     C_R   0.790929 0.427809 0.366490 -0.059596
C87   C     C_R   0.731818 0.378854 0.350563 -0.098436
C88   C     C_R   0.756537 0.303583 0.336395 -0.087558
C89   C     C_R   0.840436 0.277143 0.338128 -0.107865
C90   C     C_R   0.660093 0.839907 0.750000 0.501680
C91   C     C_R   0.899717 0.325795 0.354107 -0.086518
C92   C     C_R   0.558691 0.148971 0.630185 0.067267
C93   C     C_R   0.508670 0.221734 0.632578 -0.061385
C94   C     C_R   0.539916 0.293393 0.647555 -0.105524
C95   C     C_R   0.620949 0.292739 0.660280 -0.090167
C96   C     C_R   0.671019 0.220553 0.657946 -0.095164
C97   C     C_R   0.640177 0.148865 0.642884 -0.078920
C98   C     C_R   0.598575 0.875246 0.368405 0.063647
C99   C     C_R   0.572188 0.790929 0.366489 -0.059595
C100  C     C_R   0.621141 0.731817 0.350562 -0.098435
C101  C     C_R   0.839914 0.339914 0.250000 0.509683
C102  C     C_R   0.696414 0.756535 0.336394 -0.087557
C103  C     C_R   0.722857 0.840433 0.338128 -0.107866
C104  C     C_R   0.674205 0.899714 0.354107 -0.086518
C105  C     C_R   0.370861 0.091367 0.065069 0.051047
C106  C     C_R   0.375857 0.179013 0.061157 -0.065998
C107  C     C_R   0.309588 0.222715 0.047083 -0.103060
C108  C     C_R   0.237813 0.179308 0.037186 -0.112164
C109  C     C_R   0.232579 0.091997 0.041050 -0.117542
C110  C     C_R   0.299252 0.047883 0.054652 -0.081359
C111  C     C_R   0.651757 0.040346 0.936095 0.046017
C112  C     C_R   0.500000 0.000000 0.869187 -0.011210
C113  C     C_R   0.160093 0.660093 0.750000 0.501680
C114  C     C_R   0.681156 0.122993 0.940282 -0.065021
C115  C     C_R   0.753902 0.137652 0.957796 -0.108621
C116  C     C_R   0.797342 0.069936 0.971057 -0.108139
C117  C     C_R   0.768619 0.987735 0.966584 -0.100103
C118  C     C_R   0.696005 0.972792 0.949273 -0.080563
C119  C     C_R   0.908635 0.370861 0.065068 0.051046
C120  C     C_R   0.820990 0.375857 0.061156 -0.065998
C121  C     C_R   0.777288 0.309588 0.047081 -0.103061
C122  C     C_R   0.820696 0.237812 0.037186 -0.112164
C123  C     C_R   0.908006 0.232579 0.041050 -0.117541
C124  C     C_R   0.660086 0.839914 0.250000 0.509683
C125  C     C_R   0.952120 0.299252 0.054652 -0.081359
C126  C     C_R   0.959655 0.651758 0.936095 0.046018
C127  C     C_R   0.877007 0.681157 0.940282 -0.065020
C128  C     C_R   0.862349 0.753902 0.957796 -0.108621
C129  C     C_R   0.930064 0.797343 0.971056 -0.108139
C130  C     C_R   0.012266 0.768620 0.966584 -0.100103
C131  C     C_R   0.027208 0.696006 0.949273 -0.080564
C132  C     C_R   0.629139 0.908636 0.065068 0.051046
C133  C     C_R   0.624145 0.820991 0.061157 -0.065998
C134  C     C_R   0.690414 0.777289 0.047082 -0.103060
C135  C     C_R   0.339907 0.160093 0.750000 0.501680
C136  C     C_R   0.762189 0.820698 0.037186 -0.112164
C137  C     C_R   0.767421 0.908008 0.041049 -0.117541
C138  C     C_R   0.700748 0.952121 0.054652 -0.081359
C139  C     C_R   0.348242 0.959656 0.936095 0.046017
C140  C     C_R   0.318844 0.877009 0.940282 -0.065020
C141  C     C_R   0.246098 0.862350 0.957796 -0.108621
C142  C     C_R   0.202657 0.930065 0.971057 -0.108139
C143  C     C_R   0.231380 0.012266 0.966584 -0.100102
C144  C     C_R   0.303994 0.027210 0.949273 -0.080563
C145  C     C_R   0.091365 0.629139 0.065068 0.051046
C146  C     C_R   0.160086 0.660086 0.250000 0.509682
C147  C     C_R   0.179011 0.624144 0.061157 -0.065999
C148  C     C_R   0.222713 0.690414 0.047082 -0.103060
C149  C     C_R   0.179304 0.762189 0.037186 -0.112164
C150  C     C_R   0.091994 0.767421 0.041049 -0.117541
C151  C     C_R   0.047880 0.700748 0.054652 -0.081359
C152  C     C_R   0.040346 0.348243 0.936095 0.046018
C153  C     C_R   0.122993 0.318845 0.940282 -0.065020
C154  C     C_R   0.137652 0.246100 0.957796 -0.108621
C155  C     C_R   0.069937 0.202659 0.971058 -0.108139
C156  C     C_R   0.987735 0.231381 0.966584 -0.100102
C157  C     C_R   0.839907 0.339907 0.750000 0.501680
C158  C     C_R   0.972792 0.303995 0.949273 -0.080563
C159  C     C_R   0.848244 0.540345 0.563905 0.046017
C160  C     C_R   0.818847 0.622992 0.559717 -0.065021
C161  C     C_R   0.746101 0.637650 0.542203 -0.108621
C162  C     C_R   0.702659 0.569935 0.528943 -0.108140
C163  C     C_R   0.731381 0.487734 0.533417 -0.100103
C164  C     C_R   0.803995 0.472791 0.550727 -0.080564
C165  C     C_R   0.129145 0.591359 0.434931 0.051045
C166  C     C_R   0.124166 0.679008 0.438836 -0.066001
C167  C     C_R   0.190441 0.722705 0.452910 -0.103060
C168  C     C_R   0.339914 0.839914 0.750000 0.504111
C169  C     C_R   0.262205 0.679288 0.462812 -0.112163
C170  C     C_R   0.267421 0.591974 0.458955 -0.117537
C171  C     C_R   0.200743 0.547865 0.445354 -0.081357
C172  C     C_R   0.459659 0.848243 0.563905 0.046016
C173  C     C_R   0.377012 0.818844 0.559717 -0.065019
C174  C     C_R   0.362356 0.746100 0.542202 -0.108620
C175  C     C_R   0.430072 0.702661 0.528941 -0.108140
C176  C     C_R   0.512272 0.731383 0.533415 -0.100100
C177  C     C_R   0.527214 0.803996 0.550727 -0.080563
C178  C     C_R   0.408643 0.129145 0.434932 0.051046
C179  C     C_R   0.660095 0.160095 0.250000 0.498379
C180  C     C_R   0.320998 0.124155 0.438844 -0.065998
C181  C     C_R   0.277300 0.190428 0.452918 -0.103061
C182  C     C_R   0.320712 0.262202 0.462813 -0.112167
C183  C     C_R   0.408023 0.267429 0.458949 -0.117541
C184  C     C_R   0.452132 0.200753 0.445347 -0.081358
C185  C     C_R   0.151759 0.459654 0.563906 0.046018
C186  C     C_R   0.181154 0.377006 0.559716 -0.065020
C187  C     C_R   0.253901 0.362349 0.542203 -0.108621
C188  C     C_R   0.297348 0.430066 0.528945 -0.108142
C189  C     C_R   0.268628 0.512268 0.533421 -0.100106
C190  C     C_R   0.839914 0.660086 0.750000 0.504111
C191  C     C_R   0.196012 0.527209 0.550731 -0.080565
C192  C     C_R   0.870860 0.408638 0.434932 0.051047
C193  C     C_R   0.875851 0.320992 0.438843 -0.065997
C194  C     C_R   0.809580 0.277292 0.452917 -0.103060
C195  C     C_R   0.737808 0.320703 0.462814 -0.112164
C196  C     C_R   0.732579 0.408014 0.458951 -0.117540
C197  C     C_R   0.799253 0.452126 0.445349 -0.081357
C198  C     C_R   0.540345 0.151759 0.563905 0.046016
C199  C     C_R   0.622992 0.181159 0.559719 -0.065021
C200  C     C_R   0.637649 0.253904 0.542204 -0.108620
C201  C     C_R   0.160095 0.339905 0.250000 0.498378
C202  C     C_R   0.569934 0.297343 0.528943 -0.108139
C203  C     C_R   0.487734 0.268619 0.533415 -0.100101
C204  C     C_R   0.472791 0.196005 0.550726 -0.080563
C205  C     C_R   0.591360 0.870858 0.434932 0.051047
C206  C     C_R   0.679006 0.875850 0.438844 -0.065998
C207  C     C_R   0.722705 0.809578 0.452918 -0.103060
C208  C     C_R   0.679295 0.737803 0.462813 -0.112166
C209  C     C_R   0.591984 0.732574 0.458949 -0.117541
C210  C     C_R   0.547873 0.799249 0.445347 -0.081357
C211  C     C_R   0.660086 0.160086 0.750000 0.504110
C212  C     C_R   0.000000 0.500000 0.131281 -0.004961
C213  C     C_R   0.339905 0.839905 0.250000 0.498379
C214  C     C_R   0.160086 0.339914 0.750000 0.504111
C215  C     C_R   0.839905 0.660095 0.250000 0.498379
C216  C     C_1   0.276647 0.776647 0.250000 -0.049453
C217  C     C_1   0.723331 0.223331 0.750000 -0.040697
C218  C     C_1   0.223353 0.276647 0.250000 -0.049453
C219  C     C_1   0.776669 0.723331 0.750000 -0.040697
C220  C     C_1   0.723353 0.223353 0.250000 -0.049453
C221  C     C_1   0.276669 0.776669 0.750000 -0.040697
C222  C     C_1   0.776647 0.723352 0.250000 -0.049453
C223  C     C_R   1.000000 0.500000 0.869187 -0.011210
C224  C     C_1   0.223331 0.276669 0.750000 -0.040696
C225  C     C_1   0.276649 0.223351 0.750000 -0.042980
C226  C     C_1   0.723330 0.776670 0.250000 -0.039552
C227  C     C_1   0.223351 0.723351 0.750000 -0.042980
C228  C     C_1   0.776670 0.276670 0.250000 -0.039552
C229  C     C_1   0.723351 0.776649 0.750000 -0.042980
C230  C     C_1   0.276670 0.223330 0.250000 -0.039552
C231  C     C_1   0.776649 0.276649 0.750000 -0.042980
C232  C     C_1   0.223330 0.723330 0.250000 -0.039552
C233  C     C_R   0.438365 0.046585 0.114797 -0.047555
C234  C     C_R   0.000000 0.499999 0.630813 -0.011210
C235  C     C_R   0.572844 0.026267 0.885938 -0.048027
C236  C     C_R   0.953416 0.438365 0.114797 -0.047555
C237  C     C_R   0.973733 0.572844 0.885938 -0.048027
C238  C     C_R   0.561635 0.953417 0.114797 -0.047555
C239  C     C_R   0.427156 0.973734 0.885938 -0.048027
C240  C     C_R   0.046584 0.561635 0.114797 -0.047555
C241  C     C_R   0.026266 0.427156 0.885938 -0.048027
C242  C     C_R   0.927157 0.526266 0.614062 -0.048027
C243  C     C_R   0.061637 0.546583 0.385203 -0.047555
C244  C     C_R   0.473736 0.927156 0.614062 -0.048027
C245  C     C_R   0.000000 0.500001 0.368719 -0.004960
C246  C     C_R   0.453419 0.061638 0.385203 -0.047555
C247  C     C_R   0.072844 0.473732 0.614062 -0.048027
C248  C     C_R   0.938364 0.453418 0.385203 -0.047556
C249  C     C_R   0.526266 0.072845 0.614062 -0.048026
C250  C     C_R   0.546581 0.938363 0.385203 -0.047556
C251  C     C_R   0.437950 0.045660 0.082091 -0.043585
C252  C     C_R   0.573179 0.023429 0.918618 -0.043708
C253  C     C_R   0.954342 0.437950 0.082091 -0.043584
C254  C     C_R   0.976572 0.573180 0.918618 -0.043708
C255  C     C_R   0.562050 0.954342 0.082091 -0.043584
C256  C     C_R   0.500001 0.000000 0.630813 -0.011210
C257  C     C_R   0.426820 0.976573 0.918618 -0.043708
C258  C     C_R   0.045658 0.562051 0.082091 -0.043584
C259  C     C_R   0.023428 0.426821 0.918618 -0.043708
C260  C     C_R   0.926822 0.523428 0.581381 -0.043708
C261  C     C_R   0.062054 0.545656 0.417909 -0.043583
C262  C     C_R   0.476575 0.926821 0.581381 -0.043708
C263  C     C_R   0.454346 0.062054 0.417909 -0.043585
C264  C     C_R   0.073180 0.476571 0.581382 -0.043708
C265  C     C_R   0.937950 0.454343 0.417909 -0.043584
C266  C     C_R   0.523428 0.073180 0.581382 -0.043708
C267  C     C_R   0.500000 0.000000 0.368719 -0.004962
C268  C     C_R   0.545656 0.937948 0.417909 -0.043585
C269  C     C_R   0.500000 0.000001 0.065801 -0.005063
C270  C     C_R   0.500000 0.000001 0.934844 -0.005212
C271  C     C_R   0.000000 0.500000 0.065801 -0.005062
C272  C     C_R   1.000000 0.500000 0.934844 -0.005212
C273  C     C_R   0.000002 0.499999 0.565156 -0.005210
C274  C     C_R   0.000002 0.499999 0.434199 -0.005063
C275  C     C_R   0.500002 0.000001 0.565156 -0.005211
C276  C     C_R   0.500001 0.000001 0.434199 -0.005063
C277  C     C_R   0.000003 0.499999 0.468308 0.349963
C278  C     C_R   0.500000 0.000000 0.334348 0.503644
C279  C     C_R   0.000003 0.499999 0.530971 0.349934
C280  C     C_R   0.500002 0.000001 0.468308 0.349968
C281  C     C_R   0.500002 0.000001 0.530971 0.349933
C282  C     C_R   0.500000 0.000001 0.969029 0.349932
C283  C     C_R   0.500000 0.000001 0.031692 0.349966
C284  C     C_R   1.000000 0.500000 0.969029 0.349932
C285  C     C_R   0.000000 0.500000 0.031692 0.349967
C286  C     C_R   0.375250 0.098582 0.131596 0.063646
C287  C     C_R   0.290932 0.072200 0.133511 -0.059595
C288  C     C_R   0.231822 0.121157 0.149438 -0.098434
H1    H     H_    0.271245 0.013708 0.122792 0.096314
H2    H     H_    0.593290 0.179506 0.858865 0.087488
H3    H     H_    0.091280 0.673946 0.946231 0.106371
H4    H     H_    0.569505 0.786663 0.069335 0.104506
H5    H     H_    0.686586 0.709654 0.044185 0.109440
H6    H     H_    0.813920 0.786583 0.026728 0.112997
H7    H     H_    0.823387 0.941461 0.033694 0.090187
H8    H     H_    0.705731 0.019658 0.057806 0.104548
H9    H     H_    0.352678 0.824309 0.930309 0.105496
H10   H     H_    0.223795 0.798590 0.961261 0.101865
H11   H     H_    0.147032 0.919291 0.984957 0.085057
H12   H     H_    0.197856 0.064477 0.976713 0.099694
H13   H     H_    0.986293 0.271245 0.122792 0.096314
H14   H     H_    0.326054 0.091282 0.946231 0.106371
H15   H     H_    0.213339 0.569505 0.069335 0.104506
H16   H     H_    0.290347 0.686585 0.044185 0.109440
H17   H     H_    0.213420 0.813919 0.026729 0.112998
H18   H     H_    0.058542 0.823387 0.033694 0.090187
H19   H     H_    0.980343 0.705731 0.057806 0.104548
H20   H     H_    0.175692 0.352679 0.930309 0.105496
H21   H     H_    0.201412 0.223797 0.961261 0.101865
H22   H     H_    0.080711 0.147034 0.984957 0.085057
H23   H     H_    0.935525 0.197857 0.976713 0.099694
H24   H     H_    0.899346 0.166890 0.150858 0.098975
H25   H     H_    0.908720 0.326053 0.946231 0.106370
H26   H     H_    0.852682 0.675692 0.569690 0.105497
H27   H     H_    0.723799 0.701411 0.538738 0.101865
H28   H     H_    0.647033 0.580709 0.515044 0.085056
H29   H     H_    0.697855 0.435523 0.523289 0.099694
H30   H     H_    0.826054 0.408719 0.553770 0.106371
H31   H     H_    0.069536 0.713343 0.430652 0.104503
H32   H     H_    0.186625 0.790343 0.455801 0.109440
H33   H     H_    0.313940 0.713399 0.473268 0.112991
H34   H     H_    0.323379 0.558514 0.466315 0.090189
H35   H     H_    0.765839 0.210749 0.175984 0.121006
H36   H     H_    0.205715 0.480325 0.442205 0.104554
H37   H     H_    0.324312 0.852678 0.569690 0.105497
H38   H     H_    0.298595 0.723797 0.538736 0.101867
H39   H     H_    0.419299 0.647037 0.515040 0.085053
H40   H     H_    0.564484 0.697860 0.523286 0.099696
H41   H     H_    0.591286 0.826056 0.553769 0.106371
H42   H     H_    0.286667 0.069517 0.430666 0.104507
H43   H     H_    0.209665 0.186603 0.455815 0.109441
H44   H     H_    0.286600 0.313935 0.473270 0.112989
H45   H     H_    0.441478 0.323394 0.466304 0.090188
H46   H     H_    0.718978 0.359535 0.172938 0.097908
H47   H     H_    0.519669 0.205733 0.442193 0.104548
H48   H     H_    0.147316 0.324306 0.569687 0.105498
H49   H     H_    0.276202 0.298589 0.538736 0.101866
H50   H     H_    0.352975 0.419294 0.515047 0.085056
H51   H     H_    0.302157 0.564480 0.523295 0.099692
H52   H     H_    0.173956 0.591282 0.553775 0.106369
H53   H     H_    0.930489 0.286662 0.430664 0.104505
H54   H     H_    0.813406 0.209657 0.455814 0.109441
H55   H     H_    0.686076 0.286589 0.473271 0.112995
H56   H     H_    0.676614 0.441469 0.466308 0.090187
H57   H     H_    0.804768 0.464568 0.144662 0.088898
H58   H     H_    0.794272 0.519663 0.442196 0.104548
H59   H     H_    0.675692 0.147325 0.569692 0.105496
H60   H     H_    0.701410 0.276209 0.538740 0.101865
H61   H     H_    0.580708 0.352969 0.515043 0.085055
H62   H     H_    0.435523 0.302142 0.523286 0.099697
H63   H     H_    0.408719 0.173944 0.553768 0.106373
H64   H     H_    0.713336 0.930489 0.430666 0.104507
H65   H     H_    0.790340 0.813404 0.455815 0.109442
H66   H     H_    0.713408 0.686071 0.473270 0.112993
H67   H     H_    0.558530 0.676608 0.466304 0.090188
H68   H     H_    0.054267 0.722800 0.877130 0.099718
H69   H     H_    0.480336 0.794268 0.442193 0.104546
H70   H     H_    0.998657 0.849428 0.850690 0.094005
H71   H     H_    0.855031 0.848109 0.828037 0.111744
H72   H     H_    0.766281 0.720155 0.832174 0.103498
H73   H     H_    0.166890 0.100655 0.150858 0.098975
H74   H     H_    0.820494 0.593289 0.858866 0.087489
H75   H     H_    0.728755 0.986293 0.122791 0.096314
H76   H     H_    0.833110 0.899346 0.150857 0.098975
H77   H     H_    0.789251 0.765840 0.175984 0.121006
H78   H     H_    0.640465 0.718979 0.172938 0.097908
H79   H     H_    0.535431 0.804769 0.144662 0.088898
H80   H     H_    0.277199 0.054269 0.877130 0.099718
H81   H     H_    0.150572 0.998659 0.850691 0.094005
H82   H     H_    0.151890 0.855033 0.828037 0.111743
H83   H     H_    0.279844 0.766283 0.832174 0.103498
H84   H     H_    0.210750 0.234161 0.175985 0.121006
H85   H     H_    0.406710 0.820495 0.858865 0.087489
H86   H     H_    0.013708 0.728755 0.122791 0.096314
H87   H     H_    0.100655 0.833110 0.150857 0.098975
H88   H     H_    0.234161 0.789251 0.175984 0.121006
H89   H     H_    0.281021 0.640465 0.172939 0.097908
H90   H     H_    0.195231 0.535431 0.144662 0.088898
H91   H     H_    0.945732 0.277199 0.877130 0.099718
H92   H     H_    0.001343 0.150572 0.850691 0.094005
H93   H     H_    0.144969 0.151891 0.828037 0.111744
H94   H     H_    0.233718 0.279846 0.832174 0.103498
H95   H     H_    0.359535 0.281022 0.172939 0.097908
H96   H     H_    0.179505 0.406711 0.858865 0.087489
H97   H     H_    0.777199 0.445734 0.622870 0.099718
H98   H     H_    0.650573 0.501345 0.649309 0.094005
H99   H     H_    0.651892 0.644972 0.671963 0.111744
H100  H     H_    0.779848 0.733720 0.667826 0.103498
H101  H     H_    0.906713 0.679506 0.641134 0.087489
H102  H     H_    0.228759 0.513707 0.377213 0.096319
H103  H     H_    0.333117 0.600650 0.349147 0.098973
H104  H     H_    0.289260 0.734151 0.324016 0.121007
H105  H     H_    0.140473 0.781011 0.327057 0.097907
H106  H     H_    0.464569 0.195232 0.144662 0.088898
H107  H     H_    0.035436 0.695225 0.355333 0.088896
H108  H     H_    0.554271 0.777200 0.622870 0.099718
H109  H     H_    0.498662 0.650571 0.649308 0.094006
H110  H     H_    0.355036 0.651888 0.671962 0.111742
H111  H     H_    0.266285 0.779842 0.667826 0.103498
H112  H     H_    0.320497 0.906709 0.641135 0.087489
H113  H     H_    0.486305 0.228756 0.377208 0.096314
H114  H     H_    0.399362 0.333115 0.349142 0.098974
H115  H     H_    0.265853 0.289262 0.324016 0.121007
H116  H     H_    0.218984 0.140479 0.327063 0.097908
H117  H     H_    0.722800 0.945732 0.877130 0.099718
H118  H     H_    0.304769 0.035441 0.355339 0.088897
H119  H     H_    0.222801 0.554264 0.622872 0.099716
H120  H     H_    0.349427 0.498651 0.649312 0.094004
H121  H     H_    0.348106 0.355023 0.671964 0.111745
H122  H     H_    0.220150 0.266275 0.667825 0.103498
H123  H     H_    0.093287 0.320491 0.641134 0.087489
H124  H     H_    0.771245 0.486301 0.377210 0.096315
H125  H     H_    0.666886 0.399358 0.349144 0.098973
H126  H     H_    0.710740 0.265851 0.324016 0.121006
H127  H     H_    0.859524 0.218984 0.327062 0.097908
H128  H     H_    0.849428 0.001341 0.850691 0.094005
H129  H     H_    0.964561 0.304770 0.355338 0.088897
H130  H     H_    0.445730 0.222800 0.622870 0.099718
H131  H     H_    0.501338 0.349428 0.649309 0.094006
H132  H     H_    0.644964 0.348112 0.671963 0.111743
H133  H     H_    0.733715 0.220158 0.667827 0.103498
H134  H     H_    0.679505 0.093292 0.641135 0.087489
H135  H     H_    0.513694 0.771246 0.377208 0.096313
H136  H     H_    0.600636 0.666886 0.349142 0.098973
H137  H     H_    0.734146 0.710737 0.324016 0.121006
H138  H     H_    0.781016 0.859520 0.327063 0.097908
H139  H     H_    0.848110 0.144967 0.828037 0.111744
H140  H     H_    0.695232 0.964558 0.355339 0.088898
H141  H     H_    0.430497 0.213340 0.069336 0.104506
H142  H     H_    0.313417 0.290350 0.044186 0.109440
H143  H     H_    0.186082 0.213423 0.026729 0.112998
H144  H     H_    0.176613 0.058546 0.033694 0.090187
H145  H     H_    0.294268 0.980346 0.057806 0.104548
H146  H     H_    0.647322 0.175693 0.930309 0.105496
H147  H     H_    0.776205 0.201412 0.961261 0.101865
H148  H     H_    0.852968 0.080711 0.984956 0.085056
H149  H     H_    0.802144 0.935525 0.976713 0.099694
H150  H     H_    0.720156 0.233718 0.832173 0.103498
H151  H     H_    0.673946 0.908720 0.946231 0.106371
H152  H     H_    0.786662 0.430497 0.069334 0.104507
H153  H     H_    0.709653 0.313418 0.044184 0.109440
H154  H     H_    0.786580 0.186082 0.026728 0.112997
H155  H     H_    0.941458 0.176612 0.033695 0.090187
H156  H     H_    0.019656 0.294267 0.057807 0.104547
H157  H     H_    0.824308 0.647322 0.930309 0.105496
H158  H     H_    0.798589 0.776206 0.961261 0.101865
H159  H     H_    0.919291 0.852969 0.984956 0.085057
H160  H     H_    0.064476 0.802144 0.976712 0.099694
N1    N     N_R   0.512798 0.072611 0.015789 -0.228890
N2    N     N_R   0.012797 0.427389 0.484211 -0.228893
N3    N     N_R   0.572581 0.012988 0.515061 -0.227422
N4    N     N_R   0.427392 0.987204 0.484211 -0.228890
N5    N     N_R   0.012986 0.427420 0.515061 -0.227426
N6    N     N_R   0.987209 0.572609 0.484211 -0.228883
N7    N     N_R   0.427423 0.987014 0.515061 -0.227423
N8    N     N_R   0.572611 0.012799 0.484211 -0.228891
N9    N     N_R   0.487012 0.927423 0.984939 -0.227422
N10   N     N_R   0.072609 0.487200 0.015789 -0.228890
N11   N     N_R   0.927422 0.512990 0.984939 -0.227422
N12   N     N_R   0.487201 0.927392 0.015789 -0.228890
N13   N     N_R   0.512988 0.072580 0.984939 -0.227423
N14   N     N_R   0.927391 0.512801 0.015790 -0.228891
N15   N     N_R   0.072578 0.487011 0.984939 -0.227422
N16   N     N_R   0.987020 0.572579 0.515061 -0.227421
O1    O     O_3   0.500000 0.000000 0.250000 -0.436131
O2    O     O_R   0.500000 0.930740 0.680620 -0.532560
O3    O     O_R   0.930740 0.500000 0.319380 -0.534528
O4    O     O_R   0.069260 0.500000 0.680620 -0.532561
O5    O     O_R   1.000000 0.430740 0.819380 -0.532561
O6    O     O_R   1.000000 0.569260 0.180620 -0.534528
O7    O     O_R   0.569260 1.000000 0.819380 -0.532560
O8    O     O_R   0.430740 0.000000 0.180620 -0.534528
O9    O     O_R   0.000000 0.569260 0.819380 -0.532561
O10   O     O_R   0.000000 0.430740 0.180620 -0.534528
O11   O     O_R   0.430740 1.000000 0.819380 -0.532561
O12   O     O_3   0.500000 0.000000 0.750000 -0.436806
O13   O     O_R   0.569260 0.000000 0.180620 -0.534528
O14   O     O_R   0.402540 0.166630 0.268230 -0.530802
O15   O     O_R   0.597460 0.833370 0.731770 -0.539432
O16   O     O_R   0.833370 0.402540 0.268230 -0.530802
O17   O     O_R   0.166630 0.597460 0.731770 -0.539432
O18   O     O_R   0.597460 0.833370 0.268230 -0.530802
O19   O     O_R   0.402540 0.166630 0.731770 -0.539432
O20   O     O_R   0.166630 0.597460 0.268230 -0.530801
O21   O     O_R   0.833370 0.402540 0.731770 -0.539432
O22   O     O_R   0.402540 0.833370 0.731770 -0.532488
O23   O     O_3   0.000000 0.500000 0.250000 -0.436131
O24   O     O_R   0.597460 0.166630 0.268230 -0.542099
O25   O     O_R   0.833370 0.597460 0.731770 -0.532488
O26   O     O_R   0.166630 0.402540 0.268230 -0.542099
O27   O     O_R   0.597460 0.166630 0.731770 -0.532488
O28   O     O_R   0.402540 0.833370 0.268230 -0.542099
O29   O     O_R   0.166630 0.402540 0.731770 -0.532487
O30   O     O_R   0.833370 0.597460 0.268230 -0.542099
O31   O     O_R   0.902540 0.666630 0.768230 -0.532488
O32   O     O_R   0.097460 0.333370 0.231770 -0.542099
O33   O     O_R   0.333370 0.902540 0.768230 -0.532488
O34   O     O_3   0.000000 0.500000 0.750000 -0.436806
O35   O     O_R   0.666630 0.097460 0.231770 -0.542099
O36   O     O_R   0.097460 0.333370 0.768230 -0.532488
O37   O     O_R   0.902540 0.666630 0.231770 -0.542099
O38   O     O_R   0.666630 0.097460 0.768230 -0.532487
O39   O     O_R   0.333370 0.902540 0.231770 -0.542099
O40   O     O_R   0.902540 0.333370 0.231770 -0.530802
O41   O     O_R   0.097460 0.666630 0.768230 -0.539432
O42   O     O_R   0.333370 0.097460 0.231770 -0.530801
O43   O     O_R   0.666630 0.902540 0.768230 -0.539432
O44   O     O_R   0.097460 0.666630 0.231770 -0.530802
O45   O     O_R   0.500000 0.930740 0.319380 -0.534528
O46   O     O_R   0.902540 0.333370 0.768230 -0.539432
O47   O     O_R   0.666630 0.902540 0.231770 -0.530802
O48   O     O_R   0.333370 0.097460 0.768230 -0.539432
O49   O     O_R   0.500000 0.069260 0.680620 -0.532561
O50   O     O_R   0.069260 0.500000 0.319380 -0.534526
O51   O     O_R   0.930740 0.500000 0.680620 -0.532560
O52   O     O_R   0.500000 0.069260 0.319380 -0.534528
Zn1   Zn    Zn3+2 0.401050 1.000000 0.224090 0.938045
Zn2   Zn    Zn3+2 0.098950 0.500000 0.275910 0.938045
Zn3   Zn    Zn3+2 0.500000 0.901050 0.724090 0.938948
Zn4   Zn    Zn3+2 0.500000 0.098950 0.275910 0.938044
Zn5   Zn    Zn3+2 0.098950 0.500000 0.724090 0.938948
Zn6   Zn    Zn3+2 0.901050 0.500000 0.275910 0.938044
Zn7   Zn    Zn3+2 0.500000 0.098950 0.724090 0.938948
Zn8   Zn    Zn3+2 0.500000 0.901050 0.275910 0.938044
Zn9   Zn    Zn3+2 0.598950 0.000000 0.775910 0.938948
Zn10  Zn    Zn3+2 0.000000 0.401050 0.224090 0.938045
Zn11  Zn    Zn3+2 1.000000 0.598950 0.775910 0.938948
Zn12  Zn    Zn3+2 0.598950 1.000000 0.224090 0.938045
Zn13  Zn    Zn3+2 0.401050 0.000000 0.775910 0.938948
Zn14  Zn    Zn3+2 1.000000 0.598950 0.224090 0.938044
Zn15  Zn    Zn3+2 0.000000 0.401050 0.775910 0.938948
Zn16  Zn    Zn3+2 0.901050 0.500000 0.724090 0.938949

loop_
_geom_bond_atom_site_label_1
_geom_bond_atom_site_label_2
_ccdc_geom_bond_type
C172  C177  A    
O1    Zn8   S    
C105  C110  A    
C193  H53   S    
C126  C127  A    
C279  N16   A    
O41   Zn11  S    
C195  H55   S    
C19   C20   A    
C27   H75   S    
C277  N6    A    
C87   C88   A    
C190  C219  S    
C251  C269  A    
C114  C115  A    
C33   H80   S    
C35   O5    A    
O10   Zn10  S    
C111  C118  A    
C21   H70   S    
C210  H69   S    
C250  C267  A    
C79   O42   A    
C174  H38   S    
C106  C107  A    
C280  N4    A    
C143  C144  A    
C8    H128  S    
C1    C68   S    
C108  C109  A    
O29   Zn5   S    
C5    C286  A    
C73   C74   A    
C72   C246  S    
C170  H34   S    
C182  C183  A    
C276  C280  S    
C1    C233  A    
C85   C248  S    
C287  H1    S    
C90   C229  S    
C205  C206  A    
C107  H142  S    
C236  C253  A    
C90   O43   A    
C191  H52   S    
C149  H17   S    
O12   Zn13  S    
C59   C60   A    
C21   C22   A    
O43   Zn9   S    
C111  C114  A    
C184  H47   S    
C146  O20   A    
C93   H130  S    
C129  H159  S    
O17   Zn5   S    
C143  H12   S    
C180  H42   S    
O47   Zn12  S    
C45   C47   A    
C3    C288  A    
C68   O8    A    
C65   C244  S    
C147  H15   S    
C202  C203  A    
C237  C254  A    
C137  H7    S    
C140  C141  A    
C6    C11   A    
C31   H79   S    
C206  C207  A    
C4    C5    A    
C285  N14   A    
C171  H36   S    
C80   H119  S    
C40   H86   S    
C43   C44   A    
C37   C38   A    
C46   O10   A    
C234  C247  A    
C13   O3    A    
C124  C226  S    
C68   O13   A    
C266  C275  A    
C2    O49   A    
C24   O4    A    
C109  H144  S    
C161  H27   S    
C76   C77   A    
C162  H28   S    
C258  C271  A    
C202  H61   S    
C154  C155  A    
C136  H6    S    
C30   H78   S    
C198  C204  A    
N9    N12   A    
C117  H149  S    
C282  N13   A    
C112  C235  A    
N3    N8    A    
C221  C227  T    
O24   Zn4   S    
C82   H121  S    
C239  C257  A    
C57   O7    A    
C72   C73   A    
C201  C218  S    
C139  C140  A    
O1    Zn1   S    
C6    C7    A    
C50   H94   S    
C213  O28   A    
C279  N5    A    
C131  H3    S    
C104  H140  S    
C102  H137  S    
C156  C158  A    
C130  C131  A    
C111  C252  S    
C163  H29   S    
C175  C176  A    
C175  H39   S    
C16   C17   A    
C223  C241  A    
C33   C34   A    
C69   C70   A    
C177  H41   S    
C2    O2    A    
C24   C234  S    
C195  C196  A    
O26   Zn2   S    
C214  O29   A    
O40   Zn10  S    
C20   C21   A    
C200  C202  A    
C98   C99   A    
C244  C256  A    
C245  C248  A    
C155  C156  A    
O28   Zn8   S    
C284  N15   A    
C22   C23   A    
C269  C283  S    
C186  C187  A    
C149  C150  A    
C146  O44   A    
C165  C171  A    
C40   C41   A    
C95   C96   A    
C168  O33   A    
C20   H68   S    
C168  C221  S    
O19   Zn7   S    
C128  C129  A    
O15   Zn3   S    
C7    C8    A    
C167  C169  A    
C215  O30   A    
C85   C86   A    
C41   H87   S    
C61   H103  S    
C56   H100  S    
C36   C37   A    
C55   H99   S    
C78   C80   A    
C288  H73   S    
C113  C227  S    
N2    N5    A    
C170  C171  A    
O32   Zn10  S    
C115  C116  A    
C139  C257  S    
O11   Zn13  S    
C201  O32   A    
O34   Zn5   S    
O33   Zn13  S    
C189  C191  A    
C174  C175  A    
C74   H114  S    
C11   H2    S    
C190  O31   A    
O5    Zn15  S    
C142  H11   S    
C124  O18   A    
C107  C108  A    
C37   H83   S    
C277  N2    A    
C89   C91   A    
C49   H93   S    
C9    C10   A    
C281  N3    A    
C100  H136  S    
C66   C67   A    
O50   Zn2   S    
C235  C252  A    
C212  C236  A    
C92   C97   A    
C209  C210  A    
O27   Zn7   S    
C200  H60   S    
N6    N16   A    
C283  N12   A    
C158  H25   S    
C223  C237  A    
C39   C40   A    
C91   H129  S    
C261  C274  A    
C278  O52   A    
C179  O24   A    
O9    Zn11  S    
C270  C282  S    
C71   H112  S    
C64   H107  S    
C188  C189  A    
C29   C30   A    
O36   Zn15  S    
C83   C84   A    
C268  C276  A    
C17   C18   A    
C5    H106  S    
C126  C254  S    
C181  H43   S    
O7    Zn9   S    
C9    H139  S    
C214  C224  S    
C234  C242  A    
C125  H156  S    
O23   Zn2   S    
C176  H40   S    
C193  C194  A    
C164  H30   S    
C244  C262  A    
C3    C4    A    
C120  C121  A    
C157  C231  S    
C214  O36   A    
C129  C130  A    
C189  H51   S    
C62   H104  S    
O2    Zn3   S    
C86   H124  S    
C54   C55   A    
C176  C177  A    
C285  N10   A    
C135  C225  S    
C7    H117  S    
C136  C137  A    
C46   O6    A    
C103  H138  S    
C39   C44   A    
C32   C239  S    
C267  C278  S    
C238  C255  A    
O34   Zn11  S    
C250  C268  A    
C117  C118  A    
C152  C259  S    
C148  H16   S    
C205  C210  A    
C56   C58   A    
C34   C36   A    
C192  C265  S    
C102  C103  A    
C275  C281  S    
O14   Zn4   S    
C10   C11   A    
C63   C64   A    
C199  C200  A    
C152  C153  A    
C49   C50   A    
O23   Zn6   S    
C14   C15   A    
C243  C261  A    
C240  C258  A    
C69   H110  S    
C95   H132  S    
C246  C267  A    
C194  H54   S    
C13   C245  S    
C13   O50   A    
C272  C284  S    
C274  C277  S    
C41   C42   A    
C259  C272  A    
C6    C235  S    
C224  C225  T    
C161  C162  A    
C153  H20   S    
C181  C182  A    
C52   C53   A    
C262  C275  A    
C26   C27   A    
C165  C166  A    
C28   C29   A    
C28   H76   S    
O34   Zn15  S    
C215  O37   A    
C19   C237  S    
O16   Zn6   S    
C30   C31   A    
C10   H150  S    
C123  C125  A    
C132  C138  A    
C67   H109  S    
C60   H102  S    
C199  H59   S    
C220  C228  T    
C12   C236  S    
C218  C230  T    
C147  C148  A    
C18   H57   S    
C47   H91   S    
C23   H72   S    
C208  C209  A    
C77   H118  S    
C48   H92   S    
C70   C71   A    
C81   H120  S    
C241  C259  A    
C196  H56   S    
C160  H26   S    
C15   H24   S    
C194  C195  A    
C155  H22   S    
C167  H32   S    
C284  N11   A    
C219  C229  T    
N4    N7    A    
C183  H45   S    
C17   H46   S    
C145  C147  A    
O20   Zn2   S    
C185  C191  A    
C128  H158  S    
C263  C276  A    
O45   Zn8   S    
C123  H155  S    
C211  C217  S    
C152  C158  A    
N1    N13   A    
C168  O22   A    
C207  C208  A    
C76   H116  S    
C98   C250  S    
C86   C87   A    
C114  H146  S    
C53   C54   A    
C101  O40   A    
C121  H153  S    
C94   H131  S    
O3    Zn6   S    
C115  H147  S    
C60   C61   A    
O42   Zn1   S    
C62   C63   A    
C281  N7    A    
C52   C242  S    
C26   C238  S    
C159  C160  A    
C186  H48   S    
C150  H18   S    
C36   H82   S    
C50   C51   A    
C157  O21   A    
O51   Zn16  S    
C83   H122  S    
C192  C197  A    
C24   O51   A    
C127  H157  S    
C70   H111  S    
C212  C240  A    
O13   Zn12  S    
C51   H96   S    
C119  C125  A    
C211  O38   A    
C29   H77   S    
C48   C49   A    
C156  H23   S    
O4    Zn5   S    
N10   N15   A    
C133  C134  A    
C1    C238  A    
C42   C43   A    
C127  C128  A    
C215  C222  S    
C180  C181  A    
C233  C251  A    
C162  C163  A    
C213  C216  S    
C144  H14   S    
O22   Zn3   S    
C145  C258  S    
C96   H133  S    
C178  C180  A    
C119  C120  A    
C185  C264  S    
C88   H126  S    
C105  C106  A    
C264  C273  A    
O31   Zn11  S    
C32   C33   A    
C187  C188  A    
C109  C110  A    
C192  C193  A    
O25   Zn16  S    
C252  C270  A    
C185  C186  A    
C188  H50   S    
C253  C271  A    
C182  H44   S    
C35   O9    A    
C254  C272  A    
C92   C93   A    
C14   H13   S    
C99   H135  S    
C248  C265  A    
C94   C95   A    
C197  H58   S    
C280  N8    A    
C249  C256  A    
C82   C83   A    
C103  C104  A    
C222  C226  T    
C142  C143  A    
C16   H35   S    
O44   Zn14  S    
C187  H49   S    
O18   Zn8   S    
C84   H123  S    
C203  C204  A    
O21   Zn16  S    
C93   C94   A    
C179  C220  S    
C169  C170  A    
C113  O17   A    
C163  C164  A    
O49   Zn7   S    
C75   C76   A    
O38   Zn9   S    
C81   C82   A    
C85   C91   A    
C190  O25   A    
C146  C232  S    
C173  C174  A    
C120  H152  S    
C59   C64   A    
C273  C279  S    
C101  C228  S    
C101  O16   A    
O8    Zn1   S    
C198  C266  S    
C178  C263  S    
C116  H148  S    
C286  C287  A    
C98   C104  A    
C57   C112  S    
C53   H97   S    
C45   C51   A    
C15   C16   A    
O23   Zn10  S    
C196  C197  A    
C116  C117  A    
C79   O14   A    
C59   C243  S    
O35   Zn12  S    
C278  O45   A    
C132  C255  S    
C92   C249  S    
C233  C286  S    
C203  H62   S    
C130  H160  S    
C8    C9    A    
C243  C245  A    
C198  C199  A    
C32   C38   A    
C247  C264  A    
C4    H95   S    
C88   C89   A    
C26   C31   A    
C157  O46   A    
C42   H88   S    
C201  O26   A    
C61   C62   A    
C54   H98   S    
C119  C253  S    
C44   H90   S    
C39   C240  S    
C106  H141  S    
C211  O27   A    
C271  C285  S    
C159  C260  S    
O1    Zn12  S    
C204  H63   S    
C52   C58   A    
N11   N14   A    
C74   C75   A    
C133  H4    S    
O30   Zn6   S    
C282  N9    A    
C66   H108  S    
C148  C149  A    
C105  C251  S    
C138  H8    S    
C132  C133  A    
C134  C136  A    
C65   C71   A    
C179  O35   A    
O23   Zn14  S    
C206  H64   S    
O37   Zn14  S    
C67   C69   A    
C249  C266  A    
C183  C184  A    
C72   C77   A    
O12   Zn9   S    
C35   C223  S    
C139  C144  A    
C99   C100  A    
C205  C268  S    
C112  C239  A    
C96   C97   A    
C55   C56   A    
C100  C102  A    
C78   C247  S    
C121  C122  A    
O52   Zn4   S    
O39   Zn1   S    
C118  H151  S    
C34   H81   S    
C145  C151  A    
C135  O19   A    
C283  N1    A    
C260  C273  A    
C141  H10   S    
C12   C14   A    
C166  H31   S    
C287  C288  A    
C166  C167  A    
C165  C261  S    
O48   Zn13  S    
C122  H154  S    
O12   Zn3   S    
C173  H37   S    
C97   H134  S    
C108  H143  S    
C45   C241  S    
C113  O41   A    
C172  C173  A    
O1    Zn4   S    
C255  C269  A    
C213  O39   A    
C169  H33   S    
C209  H67   S    
C159  C164  A    
C38   H85   S    
C242  C260  A    
C80   C81   A    
C47   C48   A    
C2    C256  S    
O46   Zn15  S    
C135  O48   A    
C57   O11   A    
C137  C138  A    
C43   H89   S    
C151  H19   S    
C150  C151  A    
C3    H84   S    
C208  H66   S    
C160  C161  A    
C122  C123  A    
C134  H5    S    
O34   Zn16  S    
C141  C142  A    
C217  C231  T    
C63   H105  S    
C79   C230  S    
C126  C131  A    
C124  O47   A    
C46   C212  S    
O6    Zn14  S    
C216  C232  T    
C25   H74   S    
C89   H127  S    
C23   C25   A    
C58   H101  S    
C172  C262  S    
C19   C25   A    
C246  C263  A    
C140  H9    S    
C154  H21   S    
C78   C84   A    
C265  C274  A    
C90   O15   A    
C65   C66   A    
C12   C18   A    
C27   C28   A    
C257  C270  A    
C110  H145  S    
C75   H115  S    
C153  C154  A    
O12   Zn7   S    
C207  H65   S    
C178  C184  A    
C22   H71   S    
C87   H125  S    
C73   H113  S    
