data_mof_unit_61057.cif
_audit_creation_date              2012-12-10T18:14:31-0500
_audit_creation_method            fapswitch 2.2
_symmetry_space_group_name_H-M    P1
_symmetry_Int_Tables_number       1
_space_group_crystal_system       triclinic
_cell_length_a                    42.305674
_cell_length_b                    29.205527
_cell_length_c                    30.58586
_cell_angle_alpha                 90.026223
_cell_angle_beta                  136.339693
_cell_angle_gamma                 89.981145
_cell_volume                      26089.958863

loop_
_atom_site_label
_atom_site_type_symbol
_atom_type_description
_atom_site_fract_x
_atom_site_fract_y
_atom_site_fract_z
_atom_type_partial_charge
C1    C     C_R   0.586687 0.500000 0.587103 0.908798
C2    C     C_R   0.086687 0.000000 0.587104 0.908538
C3    C     C_3   0.452231 0.506339 0.174113 -0.411283
C4    C     C_3   0.950954 0.997730 0.172953 -0.403567
C5    C     C_3   0.452848 0.509630 0.224730 -0.406442
C6    C     C_3   0.951381 0.997732 0.223519 -0.408268
C7    C     C_1   0.500934 0.498240 0.159684 -0.104506
C8    C     C_1   0.000396 0.999990 0.159170 -0.143705
C9    C     C_1   0.501072 0.499431 0.335895 -0.097454
C10   C     C_1   0.001050 0.999970 0.335896 -0.101018
C11   C     C_1   0.500441 0.499835 0.373407 -0.206895
C12   C     C_1   0.000496 0.999971 0.373480 -0.205095
C13   C     C_1   0.637269 0.500000 0.637583 -0.224199
C14   C     C_1   0.137269 0.000000 0.637584 -0.224152
C15   C     C_1   0.679406 0.500000 0.679640 0.002653
C16   C     C_1   0.179406 0.000000 0.679640 0.002631
C17   C     C_1   0.729140 0.500000 0.729286 0.005199
C18   C     C_1   0.229141 1.000000 0.729287 0.005189
C19   C     C_1   0.771277 0.500000 0.771357 0.005056
C20   C     C_1   0.271277 1.000000 0.771358 0.005051
C21   C     C_1   0.821012 0.500000 0.821030 0.003417
C22   C     C_1   0.321012 1.000000 0.821030 0.003405
C23   C     C_R   0.499707 0.499978 0.417368 0.951906
C24   C     C_R   0.999806 0.999990 0.417473 0.951920
C25   C     C_1   0.863149 0.500000 0.863137 -0.215321
C26   C     C_1   0.363149 1.000000 0.863138 -0.215338
C27   C     C_1   0.499973 0.500024 0.636030 -0.222586
C28   C     C_1   0.999973 0.000024 0.636030 -0.222595
C29   C     C_1   0.499974 0.500026 0.677207 0.015354
C30   C     C_1   0.999974 0.000026 0.677207 0.015336
C31   C     C_1   0.499977 0.500022 0.726211 0.002696
C32   C     C_1   0.999977 0.000022 0.726211 0.002673
C33   C     C_1   0.499980 0.500018 0.767390 0.002693
C34   C     C_1   0.999980 0.000018 0.767390 0.002668
C35   C     C_1   0.499985 0.500011 0.816397 0.015110
C36   C     C_1   0.999985 0.000011 0.816397 0.015084
C37   C     C_1   0.499993 0.500006 0.857580 -0.221606
C38   C     C_1   0.999993 0.000006 0.857580 -0.221639
C39   C     C_1   0.362676 0.500000 0.362992 -0.223973
C40   C     C_1   0.862676 1.000000 0.362992 -0.223962
C41   C     C_1   0.320541 0.500000 0.320801 0.002505
C42   C     C_1   0.820541 1.000000 0.320801 0.002567
C43   C     C_1   0.270810 0.500000 0.271015 0.005194
C44   C     C_1   0.770810 1.000000 0.271015 0.005230
C45   C     C_R   0.413255 0.500000 0.413650 0.907296
C46   C     C_R   0.913255 1.000000 0.413649 0.907542
C47   C     C_1   0.228675 0.500000 0.228839 0.005110
C48   C     C_1   0.728675 1.000000 0.228838 0.005127
C49   C     C_1   0.178944 0.500000 0.179062 0.003448
C50   C     C_1   0.678944 1.000000 0.179062 0.003454
C51   C     C_1   0.136808 0.500000 0.136891 -0.215285
C52   C     C_1   0.636808 1.000000 0.136891 -0.215290
C53   C     C_R   0.500031 0.586641 0.994584 0.905895
C54   C     C_R   0.500032 0.413361 0.994620 0.909033
C55   C     C_R   0.000031 0.086640 0.994589 0.907057
C56   C     C_R   0.000031 0.913359 0.994587 0.907044
C57   C     C_R   0.500050 0.500399 0.076017 0.951613
C58   C     C_R   0.000039 0.000006 0.076004 0.955221
C59   C     C_R   0.500013 0.500000 0.907486 0.892938
C60   C     C_R   0.000013 0.000000 0.907486 0.892965
C61   C     C_R   0.000015 0.413721 0.999125 0.897730
C62   C     C_R   0.000015 0.586280 0.999143 0.897739
C63   C     C_R   0.500015 0.913721 0.999125 0.897749
C64   C     C_R   0.500016 0.086280 0.999144 0.897726
C65   C     C_R   0.913731 0.500000 0.913729 0.897899
C66   C     C_R   0.413731 1.000000 0.913730 0.897905
C67   C     C_R   0.086230 0.500000 0.086272 0.897927
C68   C     C_R   0.586230 1.000000 0.086272 0.897935
C69   C     C_1   0.500043 0.637227 0.995431 -0.224262
C70   C     C_1   0.500045 0.362776 0.995505 -0.223776
C71   C     C_1   0.000043 0.137227 0.995436 -0.224244
C72   C     C_1   0.000043 0.862773 0.995447 -0.224301
C73   C     C_R   0.499972 0.500009 0.586144 0.892710
C74   C     C_R   0.999972 0.000009 0.586144 0.892698
C75   C     C_1   0.500047 0.679366 0.996176 0.002602
C76   C     C_1   0.500050 0.320638 0.996275 0.002649
C77   C     C_1   0.000046 0.179365 0.996181 0.002782
C78   C     C_1   0.000046 0.820635 0.996206 0.002758
C79   C     C_1   0.500046 0.729104 0.997051 0.005072
C80   C     C_1   0.500050 0.270900 0.997161 0.004855
C81   C     C_1   0.000044 0.229104 0.997056 0.005135
C82   C     C_1   0.000045 0.770897 0.997096 0.005137
C83   C     C_1   0.000040 0.271242 0.997754 0.004974
C84   C     C_1   0.000041 0.728759 0.997804 0.004992
C85   C     C_1   0.500042 0.771243 0.997750 0.004980
C86   C     C_1   0.500045 0.228762 0.997854 0.004925
C87   C     C_1   0.000033 0.320983 0.998477 0.003460
C88   C     C_1   0.000034 0.679018 0.998533 0.003491
C89   C     C_1   0.500034 0.820983 0.998475 0.003465
C90   C     C_1   0.500036 0.179020 0.998561 0.003459
C91   C     C_1   0.000026 0.363127 0.998928 -0.215300
C92   C     C_1   0.000026 0.636874 0.998978 -0.215282
C93   C     C_1   0.500026 0.863127 0.998927 -0.215296
C94   C     C_1   0.500028 0.136876 0.998988 -0.215329
C95   C     C_3   0.535492 0.535483 0.307629 -0.417158
C96   C     C_3   0.516195 0.450945 0.288937 -0.460813
C97   C     C_3   0.024424 0.044287 0.296864 -0.412574
C98   C     C_3   0.028329 0.957965 0.300712 -0.412830
C99   C     C_3   0.520690 0.451181 0.242990 -0.010511
C100  C     C_3   0.533994 0.537400 0.255549 -0.019760
C101  C     C_3   0.028632 0.957470 0.250421 -0.008064
C102  C     C_3   0.024679 0.044841 0.246527 -0.008268
C103  C     C_1   0.500262 0.499242 0.120881 -0.218528
C104  C     C_1   0.000134 0.999996 0.120765 -0.213822
C105  C     C_3   0.501526 0.498891 0.290328 0.305029
C106  C     C_3   0.001352 0.999988 0.290185 0.287145
C107  C     C_3   0.501628 0.498140 0.206494 0.260647
C108  C     C_3   0.000808 0.999991 0.205735 0.243045
H1    H     H_    0.569111 0.530140 0.278153 0.146328
H2    H     H_    0.558113 0.450251 0.273239 0.153153
H3    H     H_    0.061021 0.043803 0.271750 0.145259
H4    H     H_    0.064732 0.961793 0.275406 0.145326
H5    H     H_    0.570858 0.526863 0.353869 0.154577
H6    H     H_    0.549595 0.440993 0.337171 0.162277
H7    H     H_    0.060276 0.046331 0.345007 0.155445
H8    H     H_    0.064219 0.959160 0.348893 0.155355
H9    H     H_    0.490359 0.425518 0.274365 0.178167
H10   H     H_    0.526823 0.569222 0.313779 0.187544
H11   H     H_    0.012496 0.926326 0.298452 0.187901
H12   H     H_    0.005800 0.074360 0.291856 0.187863
H13   H     H_    0.442385 0.544691 0.224542 0.173813
H14   H     H_    0.427541 0.485091 0.213306 0.174695
H15   H     H_    0.931511 0.027634 0.215930 0.174616
H16   H     H_    0.934295 0.966149 0.218670 0.174761
H17   H     H_    0.437540 0.538300 0.145465 0.170182
H18   H     H_    0.428988 0.478169 0.140712 0.172458
H19   H     H_    0.930606 0.027295 0.140471 0.172337
H20   H     H_    0.933358 0.966456 0.143180 0.172218
O1    O     O_R   0.563110 0.535630 0.563620 -0.597124
O2    O     O_R   0.563110 0.464370 0.563620 -0.597143
O3    O     O_R   0.063110 0.035630 0.563620 -0.597207
O4    O     O_R   0.063110 0.964370 0.563620 -0.597195
O5    O     O_R   0.464380 0.500000 0.895240 -0.593149
O6    O     O_R   0.964380 0.000000 0.895240 -0.593055
O7    O     O_R   0.000010 0.436840 0.964010 -0.593451
O8    O     O_R   0.000010 0.563160 0.964010 -0.593414
O9    O     O_R   0.500010 0.936840 0.964010 -0.593420
O10   O     O_R   0.500010 0.063160 0.964010 -0.593404
O11   O     O_R   0.000000 0.436830 0.034310 -0.594516
O12   O     O_R   1.000000 0.563170 0.034310 -0.594532
O13   O     O_R   0.500000 0.936830 0.034310 -0.594542
O14   O     O_R   0.500000 0.063170 0.034310 -0.594563
O15   O     O_R   0.936840 0.500000 0.901700 -0.593631
O16   O     O_R   0.436840 0.000000 0.901700 -0.593616
O17   O     O_R   0.936840 0.500000 0.972000 -0.594421
O18   O     O_R   0.436840 0.000000 0.972000 -0.594447
O19   O     O_R   0.063130 0.500000 0.028000 -0.593548
O20   O     O_R   0.563130 0.000000 0.028000 -0.593527
O21   O     O_R   0.063120 0.500000 0.098300 -0.594357
O22   O     O_R   0.563120 0.000000 0.098300 -0.594383
O23   O     O_R   0.499970 0.535640 0.438200 -0.614871
O24   O     O_R   0.499970 0.464360 0.438200 -0.614521
O25   O     O_R   0.999970 0.035640 0.438200 -0.614822
O26   O     O_R   0.999970 0.964360 0.438200 -0.614817
O27   O     O_R   0.436830 0.535630 0.437320 -0.597496
O28   O     O_R   0.436830 0.464370 0.437320 -0.597621
O29   O     O_R   0.936830 0.035630 0.437320 -0.597488
O30   O     O_R   0.936830 0.964370 0.437320 -0.597467
O31   O     O_R   0.499970 0.535630 0.562740 -0.591979
O32   O     O_R   0.499970 0.464370 0.562740 -0.592013
O33   O     O_R   0.999970 0.035630 0.562740 -0.592005
O34   O     O_R   0.999970 0.964370 0.562740 -0.591984
O35   O     O_R   0.535670 0.563060 0.029670 -0.597056
O36   O     O_R   0.535670 0.436940 0.029670 -0.597112
O37   O     O_R   0.035670 0.063060 0.029670 -0.596998
O38   O     O_R   0.035670 0.936940 0.029670 -0.596976
O39   O     O_R   0.464380 0.563080 0.958370 -0.597835
O40   O     O_R   0.464380 0.436920 0.958370 -0.596465
O41   O     O_R   0.964380 0.063080 0.958370 -0.597459
O42   O     O_R   0.964380 0.936920 0.958370 -0.597407
O43   O     O_R   0.535670 0.500000 0.091080 -0.614539
O44   O     O_R   0.035670 0.000000 0.091080 -0.613071
O45   O     O_R   0.464370 0.500000 0.019780 -0.611661
O46   O     O_R   0.964370 0.000000 0.019780 -0.613912
O47   O     O_R   0.535670 0.500000 0.966540 -0.593008
O48   O     O_R   0.035670 0.000000 0.966540 -0.593113
Zn1   Zn    Zn3+2 0.499970 0.547590 0.500630 0.964099
Zn2   Zn    Zn3+2 0.499970 0.452410 0.500630 0.964024
Zn3   Zn    Zn3+2 0.999970 0.047590 0.500630 0.964059
Zn4   Zn    Zn3+2 0.999970 0.952410 0.500630 0.964110
Zn5   Zn    Zn3+2 0.547630 0.500000 0.040770 0.963073
Zn6   Zn    Zn3+2 0.047630 0.000000 0.040770 0.963847
Zn7   Zn    Zn3+2 0.452420 0.500000 0.945550 0.964059
Zn8   Zn    Zn3+2 0.952420 0.000000 0.945550 0.963128
Zn9   Zn    Zn3+2 0.999990 0.500000 0.953050 0.968151
Zn10  Zn    Zn3+2 0.499990 0.000000 0.953050 0.968191
Zn11  Zn    Zn3+2 0.999980 0.500000 0.046950 0.964628
Zn12  Zn    Zn3+2 0.499980 0.000000 0.046950 0.964503
C109  C     C_3   0.498924 0.407404 0.200386 -0.376654
C110  C     C_3   0.528123 0.387468 0.192646 -0.886710
H21   H     H_    0.533295 0.412679 0.171241 0.266625
H22   H     H_    0.562055 0.376715 0.239386 0.255824
H23   H     H_    0.510761 0.356946 0.161330 0.255206
H24   H     H_    0.495364 0.379748 0.221539 0.210221
H25   H     H_    0.464081 0.414373 0.152782 0.213788
C111  C     C_3   0.520518 0.586049 0.225708 -0.381728
C112  C     C_3   0.559319 0.620626 0.270711 -0.887273
H26   H     H_    0.568461 0.624187 0.314909 0.260689
H27   H     H_    0.590075 0.609711 0.282840 0.259404
H28   H     H_    0.548280 0.654628 0.247316 0.255614
H29   H     H_    0.512178 0.585406 0.181967 0.213596
H30   H     H_    0.489656 0.598613 0.212376 0.214286
C113  C     C_3   0.011550 0.910606 0.215334 -0.382136
C114  C     C_3   0.046168 0.872230 0.258057 -0.889024
H31   H     H_    0.079236 0.880319 0.274965 0.259468
H32   H     H_    0.052102 0.867208 0.299507 0.261046
H33   H     H_    0.032842 0.839703 0.230870 0.256147
H34   H     H_    0.978412 0.901020 0.197488 0.212791
H35   H     H_    0.005926 0.912422 0.173866 0.216947
C115  C     C_3   0.003434 0.089983 0.207342 -0.382161
C116  C     C_3   0.034448 0.131322 0.246512 -0.889257
H36   H     H_    0.039918 0.136832 0.287504 0.261105
H37   H     H_    0.068105 0.126264 0.263989 0.259437
H38   H     H_    0.018235 0.162523 0.216490 0.256186
H39   H     H_    0.997990 0.087689 0.166053 0.216955
H40   H     H_    0.969568 0.096528 0.188784 0.212857

loop_
_geom_bond_atom_site_label_1
_geom_bond_atom_site_label_2
_ccdc_geom_bond_type
C83   C87   S    
C113  C114  S    
O25   Zn3   S    
C110  H21   S    
C87   C91   T    
O8    Zn9   S    
C67   O21   A    
C41   C43   S    
C38   C60   S    
O38   Zn6   S    
C6    H16   S    
C23   O24   A    
C53   C69   S    
C3    H18   S    
C98   H11   S    
C39   C41   T    
O16   Zn10  S    
O19   Zn9   S    
C101  H4    S    
O48   Zn6   S    
C4    C108  S    
C73   O32   A    
C75   C79   S    
C64   O14   A    
C53   O39   A    
O17   Zn11  S    
O37   Zn6   S    
O13   Zn12  S    
O18   Zn12  S    
O10   Zn10  S    
C59   O47   A    
O22   Zn12  S    
C65   O15   A    
O23   Zn1   S    
C66   O16   A    
O20   Zn10  S    
C115  H39   S    
C46   O30   A    
C96   C99   S    
C5    H13   S    
C27   C29   T    
C11   C23   S    
C12   C24   S    
O29   Zn3   S    
C63   C93   S    
C62   O8    A    
C62   O12   A    
C112  H27   S    
O30   Zn4   S    
C80   C86   T    
O36   Zn5   S    
C95   C105  S    
C110  H23   S    
C17   C19   T    
O28   Zn2   S    
C109  H24   S    
O5    Zn7   S    
O39   Zn7   S    
C98   H8    S    
C88   C92   T    
C110  H22   S    
C28   C30   T    
C56   C72   S    
C62   C92   S    
C2    O4    A    
C31   C33   T    
C102  C108  S    
C45   O27   A    
C97   H7    S    
O2    Zn2   S    
O34   Zn4   S    
C97   C102  S    
C68   O20   A    
C39   C45   S    
O42   Zn8   S    
C101  C108  S    
C48   C50   S    
C63   O9    A    
C58   C104  S    
C28   C74   S    
C100  H1    S    
C7    C103  T    
C7    C107  S    
C89   C93   T    
O15   Zn9   S    
C96   H6    S    
C102  H3    S    
C58   O46   A    
C42   C44   S    
C6    H15   S    
O31   Zn1   S    
O11   Zn11  S    
C8    C108  S    
C81   C83   T    
C24   O26   A    
C90   C94   T    
C100  C111  S    
C95   H10   S    
C6    C106  S    
C57   C103  S    
C54   O36   A    
C56   O38   A    
C4    H20   S    
C26   C66   S    
C84   C88   S    
C96   H9    S    
C25   C65   S    
O35   Zn5   S    
C4    C6    S    
C1    O2    A    
C86   C90   S    
O46   Zn8   S    
C99   C109  S    
C85   C89   S    
C95   C100  S    
C102  C115  S    
O27   Zn1   S    
C5    C105  S    
C49   C51   T    
O26   Zn4   S    
C99   H2    S    
O1    Zn1   S    
C5    H14   S    
C59   O5    A    
O6    Zn8   S    
C32   C34   T    
C112  H28   S    
C58   O44   A    
O41   Zn8   S    
O44   Zn6   S    
C8    C104  T    
C109  H25   S    
C50   C52   T    
C116  H36   S    
C54   C70   S    
C114  H33   S    
C77   C81   S    
O40   Zn7   S    
C3    C5    S    
C2    O3    A    
C63   O13   A    
C45   O28   A    
C51   C67   S    
C9    C11   T    
O32   Zn2   S    
C37   C59   S    
C10   C12   T    
O4    Zn4   S    
C57   O45   A    
C97   C106  S    
C116  H37   S    
C114  H32   S    
O21   Zn11  S    
C82   C84   T    
C13   C15   T    
C67   O19   A    
C60   O48   A    
C14   C16   T    
C10   C106  S    
O33   Zn3   S    
C20   C22   S    
C70   C76   T    
C111  H30   S    
C60   O6    A    
C71   C77   T    
C99   C107  S    
C24   O25   A    
C61   O7    A    
C96   C105  S    
C74   O34   A    
O9    Zn10  S    
C35   C37   T    
C109  C110  S    
C15   C17   S    
C21   C25   T    
C100  C107  S    
O3    Zn3   S    
C4    H19   S    
C56   O42   A    
O12   Zn11  S    
O43   Zn5   S    
C53   O35   A    
C76   C80   S    
C54   O40   A    
C111  C112  S    
C78   C82   S    
C52   C68   S    
C74   O33   A    
C3    H17   S    
C18   C20   T    
C47   C49   S    
C98   C101  S    
O14   Zn12  S    
C113  H34   S    
C73   O31   A    
C1    O1    A    
C98   C106  S    
O47   Zn5   S    
C3    C107  S    
C97   H12   S    
C36   C38   T    
C64   C94   S    
C64   O10   A    
C29   C31   S    
C30   C32   S    
C46   O29   A    
C43   C47   T    
C95   H5    S    
C115  H40   S    
C40   C46   S    
C65   O17   A    
C40   C42   T    
C33   C35   S    
C79   C85   T    
O7    Zn9   S    
C69   C75   T    
C34   C36   S    
O24   Zn2   S    
C112  H26   S    
C2    C14   S    
C61   O11   A    
C66   O18   A    
C68   O22   A    
C23   O23   A    
C61   C91   S    
C116  H38   S    
C1    C13   S    
C114  H31   S    
O45   Zn7   S    
C16   C18   S    
C115  C116  S    
C22   C26   T    
C72   C78   T    
C55   O37   A    
C113  H35   S    
C57   O43   A    
C111  H29   S    
C27   C73   S    
C9    C105  S    
C55   O41   A    
C55   C71   S    
C44   C48   T    
C101  C113  S    
C19   C21   S    
