data_mof_unit_14721.cif
_audit_creation_date              2012-12-10T16:39:26-0500
_audit_creation_method            fapswitch 2.2
_symmetry_space_group_name_H-M    P1
_symmetry_Int_Tables_number       1
_space_group_crystal_system       triclinic
_cell_length_a                    16.732694
_cell_length_b                    16.826264
_cell_length_c                    16.871754
_cell_angle_alpha                 66.574835
_cell_angle_beta                  66.435158
_cell_angle_gamma                 64.489983
_cell_volume                      3780.96510893

loop_
_atom_site_label
_atom_site_type_symbol
_atom_type_description
_atom_site_fract_x
_atom_site_fract_y
_atom_site_fract_z
_atom_type_partial_charge
C1    C     C_R   0.333807 0.953030 0.441426 -0.013101
C2    C     C_R   0.666192 0.046970 0.558573 -0.013105
C3    C     C_R   0.017477 0.432538 0.308029 -0.000373
C4    C     C_R   0.982522 0.567463 0.691971 -0.000371
C5    C     C_R   0.464591 0.328709 0.935591 0.016276
C6    C     C_R   0.535409 0.671291 0.064407 0.016277
C7    C     C_R   0.570947 0.973245 0.695802 0.008748
C8    C     C_R   0.429053 0.026755 0.304198 0.008744
C9    C     C_R   0.672061 0.535241 0.063709 0.014997
C10   C     C_R   0.327939 0.464760 0.936289 0.014999
C11   C     C_R   0.997136 0.691765 0.556540 -0.006349
C12   C     C_R   0.002864 0.308235 0.443460 -0.006350
C13   C     C_R   0.453833 0.994389 0.449067 -0.025010
C14   C     C_R   0.546163 0.005613 0.550935 -0.025011
C15   C     C_R   0.008602 0.446766 0.449618 -0.026712
C16   C     C_R   0.991396 0.553234 0.550382 -0.026711
C17   C     C_R   0.459867 0.460071 0.971158 -0.027488
C18   C     C_R   0.540134 0.539930 0.028838 -0.027487
C19   C     C_R   0.973511 0.178158 0.433495 0.958692
C20   C     C_R   0.026489 0.821842 0.566505 0.958695
C21   C     C_R   0.179716 0.439348 0.958026 0.961248
C22   C     C_R   0.820284 0.560652 0.041973 0.961246
C23   C     C_R   0.424476 0.002273 0.166289 0.958566
C24   C     C_R   0.575523 0.997728 0.833710 0.958569
C25   C     C_R   0.560779 0.820045 0.042101 0.960555
C26   C     C_R   0.439221 0.179955 0.957898 0.960551
C27   C     C_R   0.016914 0.569975 0.824581 0.964582
C28   C     C_R   0.983085 0.430026 0.175419 0.964581
C29   C     C_R   0.821101 0.028687 0.566996 0.958465
C30   C     C_R   0.178899 0.971314 0.433003 0.958465
C31   C     C_R   0.406382 0.990518 0.398319 0.027071
C32   C     C_R   0.593616 0.009483 0.601682 0.027072
C33   C     C_R   0.009073 0.396329 0.400627 0.031912
C34   C     C_R   0.990926 0.603671 0.599374 0.031912
C35   C     C_R   0.417448 0.417833 0.947671 0.018299
C36   C     C_R   0.582552 0.582168 0.052326 0.018301
C37   C     C_R   0.272422 0.973195 0.390993 -0.142644
C38   C     C_R   0.727578 0.026806 0.609007 -0.142647
C39   C     C_R   0.990342 0.391508 0.267233 -0.153519
C40   C     C_R   0.009657 0.608493 0.732767 -0.153519
C41   C     C_R   0.414088 0.281356 0.928238 -0.138926
C42   C     C_R   0.585912 0.718644 0.071761 -0.138925
C43   C     C_R   0.617940 0.982571 0.744060 -0.147504
C44   C     C_R   0.382059 0.017431 0.255939 -0.147504
C45   C     C_R   0.718982 0.585454 0.071975 -0.139165
C46   C     C_R   0.281017 0.414546 0.928024 -0.139167
C47   C     C_R   0.023203 0.729301 0.601443 -0.152093
C48   C     C_R   0.976797 0.270699 0.398557 -0.152093
C49   C     C_R   0.512122 0.919498 0.736086 0.111495
C50   C     C_R   0.487887 0.080494 0.263911 0.111498
C51   C     C_R   0.982197 0.734509 0.469733 0.145206
C52   C     C_R   0.017802 0.265491 0.530267 0.145206
C53   C     C_R   0.709464 0.439852 0.067657 0.155270
C54   C     C_R   0.290536 0.560148 0.932341 0.155267
C55   C     C_R   0.322443 0.903324 0.533254 0.131165
C56   C     C_R   0.677562 0.096669 0.466742 0.131170
C57   C     C_R   0.560631 0.292137 0.929629 0.145286
C58   C     C_R   0.439370 0.707864 0.070367 0.145288
C59   C     C_R   0.047306 0.510043 0.263296 0.135781
C60   C     C_R   0.952692 0.489957 0.736704 0.135780
C61   C     C_R   0.294727 0.013859 0.298255 0.094631
C62   C     C_R   0.705272 0.986143 0.701744 0.094633
C63   C     C_R   0.947335 0.327077 0.322762 0.110006
C64   C     C_R   0.052664 0.672923 0.677238 0.110007
C65   C     C_R   0.329886 0.330412 0.909485 0.075134
C66   C     C_R   0.670113 0.669588 0.090514 0.075133
C67   C     C_R   0.633143 0.090195 0.414771 0.070233
C68   C     C_R   0.366868 0.909793 0.585225 0.070227
C69   C     C_R   0.967410 0.431948 0.687643 0.063421
C70   C     C_R   0.032589 0.568053 0.312357 0.063421
C71   C     C_R   0.401331 0.671843 0.035967 0.071782
C72   C     C_R   0.598670 0.328159 0.964029 0.071789
C73   C     C_R   0.539437 0.080336 0.312830 0.071621
C74   C     C_R   0.460574 0.919651 0.687166 0.071616
C75   C     C_R   0.326435 0.597429 0.967465 0.071065
C76   C     C_R   0.673565 0.402571 0.032532 0.071071
C77   C     C_R   0.996118 0.320586 0.584603 0.053632
C78   C     C_R   0.003881 0.679415 0.415397 0.053633
C79   C     C_R   0.651686 0.130174 0.321306 -0.149336
C80   C     C_R   0.348346 0.869792 0.678683 -0.149357
C81   C     C_R   0.962976 0.342603 0.729931 -0.151728
C82   C     C_R   0.037023 0.657397 0.270069 -0.151728
C83   C     C_R   0.313779 0.718985 0.020938 -0.174749
C84   C     C_R   0.686222 0.281017 0.979058 -0.174749
C85   C     C_R   0.605392 0.125639 0.271334 -0.166355
C86   C     C_R   0.394640 0.874328 0.728655 -0.166368
C87   C     C_R   0.278116 0.683636 0.985025 -0.176942
C88   C     C_R   0.721885 0.316364 0.014972 -0.176935
C89   C     C_R   0.980881 0.286014 0.678287 -0.153123
C90   C     C_R   0.019118 0.713986 0.321713 -0.153124
C91   C     C_R   0.521862 0.037588 0.406041 0.028120
C92   C     C_R   0.478138 0.962409 0.593961 0.028127
C93   C     C_R   0.995353 0.411244 0.542968 0.031429
C94   C     C_R   0.004645 0.588757 0.457032 0.031429
C95   C     C_R   0.412243 0.547611 0.985861 0.038307
C96   C     C_R   0.587757 0.452390 0.014136 0.038308
C97   C     C_R   0.568143 0.043172 0.457073 0.028934
C98   C     C_R   0.431856 0.956825 0.542928 0.028944
C99   C     C_R   0.451760 0.586945 0.015818 0.040193
C100  C     C_R   0.548241 0.413056 0.984178 0.040194
C101  C     C_R   0.985778 0.464953 0.593634 0.030598
C102  C     C_R   0.014221 0.535047 0.406366 0.030598
H1    H     H_    0.377044 0.843293 0.800473 0.176680
H2    H     H_    0.623004 0.156654 0.199510 0.176664
H3    H     H_    0.019245 0.783860 0.288462 0.165327
H4    H     H_    0.980754 0.216141 0.711538 0.165328
H5    H     H_    0.789465 0.276989 0.025423 0.168644
H6    H     H_    0.210536 0.723011 0.974575 0.168649
H7    H     H_    0.296770 0.835933 0.714731 0.190328
H8    H     H_    0.703281 0.164013 0.285253 0.190311
H9    H     H_    0.726425 0.214704 0.966445 0.168267
H10   H     H_    0.273576 0.785297 0.033550 0.168270
H11   H     H_    0.050235 0.684723 0.197787 0.163029
H12   H     H_    0.949764 0.315277 0.802213 0.163029
O1    O     O_R   0.982940 0.138950 0.510160 -0.622989
O2    O     O_R   0.017060 0.861050 0.489840 -0.622987
O3    O     O_R   0.138950 0.510160 0.982940 -0.607189
O4    O     O_R   0.861050 0.489840 0.017060 -0.607190
O5    O     O_R   0.510160 0.982940 0.138950 -0.615172
O6    O     O_R   0.489840 0.017060 0.861050 -0.615171
O7    O     O_R   0.489840 0.861050 0.017060 -0.617617
O8    O     O_R   0.510160 0.138950 0.982940 -0.617618
O9    O     O_R   0.017060 0.489840 0.861050 -0.618824
O10   O     O_R   0.982940 0.510160 0.138950 -0.618824
O11   O     O_R   0.861050 0.017060 0.489840 -0.599040
O12   O     O_R   0.138950 0.982940 0.510160 -0.599038
O13   O     O_R   0.867700 0.025880 0.612340 -0.598064
O14   O     O_R   0.132300 0.974120 0.387660 -0.598064
O15   O     O_R   0.025880 0.612340 0.867700 -0.590473
O16   O     O_R   0.974120 0.387660 0.132300 -0.590473
O17   O     O_R   0.612340 0.867700 0.025880 -0.598331
O18   O     O_R   0.387660 0.132300 0.974120 -0.598333
O19   O     O_R   0.387660 0.974120 0.132300 -0.585019
O20   O     O_R   0.612340 0.025880 0.867700 -0.585020
O21   O     O_R   0.132300 0.387660 0.974120 -0.595703
O22   O     O_R   0.867700 0.612340 0.025880 -0.595703
O23   O     O_R   0.974120 0.132300 0.387660 -0.586277
O24   O     O_R   0.025880 0.867700 0.612340 -0.586277
Zn1   Zn    Zn3+2 0.004880 0.004880 0.583590 1.060089
Zn2   Zn    Zn3+2 0.995120 0.995120 0.416410 1.060085
Zn3   Zn    Zn3+2 0.004880 0.583590 0.004880 1.051829
Zn4   Zn    Zn3+2 0.995120 0.416410 0.995120 1.051828
Zn5   Zn    Zn3+2 0.583590 0.004880 0.004880 1.047675
Zn6   Zn    Zn3+2 0.416410 0.995120 0.995120 1.047678
I1    I     I_    0.197465 0.099276 0.219104 -0.256440
I2    I     I_    0.802534 0.900725 0.780895 -0.256437
I3    I     I_    0.803407 0.397479 0.352425 -0.228389
I4    I     I_    0.196591 0.602518 0.647576 -0.228390
I5    I     I_    0.282081 0.282811 0.841251 -0.236184
I6    I     I_    0.717919 0.717188 0.158750 -0.236186
I7    I     I_    0.543668 0.801766 0.843241 -0.370158
I8    I     I_    0.456348 0.198230 0.156756 -0.370148
I9    I     I_    0.860082 0.848038 0.455681 -0.324686
I10   I     I_    0.139917 0.151963 0.544320 -0.324677
I11   I     I_    0.790435 0.343214 0.157933 -0.291639
I12   I     I_    0.209566 0.656786 0.842065 -0.291652
I13   I     I_    0.268506 0.794470 0.583599 -0.259082
I14   I     I_    0.731501 0.205524 0.416387 -0.259074
I15   I     I_    0.654672 0.214434 0.835101 -0.289651
I16   I     I_    0.345328 0.785566 0.164896 -0.289646
I17   I     I_    0.169704 0.496908 0.157344 -0.338539
I18   I     I_    0.830295 0.503093 0.842656 -0.338542

loop_
_geom_bond_atom_site_label_1
_geom_bond_atom_site_label_2
_ccdc_geom_bond_type
O18   Zn6   S    
C83   C87   A    
C30   O12   A    
C9    C45   A    
C29   O11   A    
C18   C96   A    
C6    C58   A    
C11   C47   A    
O6    Zn6   S    
C12   C48   A    
C55   C68   A    
C75   C95   A    
C78   C90   A    
C77   C89   A    
C17   C35   A    
C66   I6    S    
C15   C33   A    
C20   O24   A    
C23   O5    A    
C95   C99   A    
C58   C71   A    
C56   I14   S    
C3    C33   A    
C10   C54   A    
C52   I10   S    
C96   C100  A    
C1    C31   A    
O5    Zn5   S    
C2    C32   A    
C74   C92   A    
C13   C98   A    
C61   I1    S    
C21   O3    A    
C16   C34   A    
O20   Zn5   S    
C30   O14   A    
C87   H6    S    
C4    C40   A    
C80   H7    S    
C10   C46   A    
C9    C36   A    
C60   I18   S    
C43   C62   A    
C10   C35   A    
C17   C95   A    
C7    C43   A    
C76   C88   A    
C1    C37   A    
C81   C89   A    
C57   I15   S    
C3    C39   A    
C15   C102  A    
C64   I4    S    
C65   I5    S    
C82   H11   S    
O7    Zn6   S    
O13   Zn1   S    
O8    Zn5   S    
C70   C82   A    
C86   H1    S    
O17   Zn5   S    
C63   I3    S    
C12   C52   A    
C14   C92   A    
C71   C83   A    
O21   Zn4   S    
O11   Zn2   S    
O23   Zn2   S    
C4    C34   A    
O12   Zn1   S    
C24   O6    A    
C84   H9    S    
C49   I7    S    
C92   C98   A    
C8    C44   A    
C29   C38   S    
C67   C79   A    
C73   C91   A    
C46   C65   A    
C50   C73   A    
C93   C101  A    
C47   C64   A    
C20   O2    A    
C88   H5    S    
C23   O19   A    
C19   C48   S    
C48   C63   A    
C41   C65   A    
C28   C39   S    
C71   C99   A    
C91   C97   A    
C23   C44   S    
C30   C37   S    
C22   O22   A    
C81   H12   S    
O3    Zn3   S    
O22   Zn3   S    
C59   I17   S    
C2    C38   A    
C19   O1    A    
C27   C40   S    
C19   O23   A    
C73   C85   A    
C4    C60   A    
C70   C102  A    
C74   C86   A    
C7    C49   A    
C72   C84   A    
C85   H2    S    
C69   C81   A    
C75   C87   A    
O1    Zn1   S    
C53   I11   S    
C29   O13   A    
C62   I2    S    
C27   O15   A    
C89   H4    S    
O10   Zn3   S    
C53   C76   A    
C9    C53   A    
C18   C99   A    
C68   C80   A    
C25   O17   A    
C8    C50   A    
C79   C85   A    
C26   O18   A    
C14   C97   A    
C21   C46   S    
C72   C100  A    
C24   O20   A    
C22   O4    A    
C5    C41   A    
C51   I9    S    
O19   Zn6   S    
C27   O9    A    
C7    C32   A    
C79   H8    S    
C49   C74   A    
C8    C31   A    
C13   C31   A    
C11   C34   A    
C84   C88   A    
C90   H3    S    
C14   C32   A    
O4    Zn4   S    
C40   C64   A    
C25   C42   S    
C15   C93   A    
C37   C61   A    
C28   O10   A    
C69   C101  A    
C44   C61   A    
C56   C67   A    
C39   C63   A    
C16   C94   A    
C82   C90   A    
C5    C57   A    
O14   Zn2   S    
C51   C78   A    
C2    C56   A    
C80   C86   A    
C76   C96   A    
C54   I12   S    
C25   O7    A    
C60   C69   A    
C78   C94   A    
C5    C35   A    
O9    Zn4   S    
C77   C93   A    
C6    C36   A    
C28   O16   A    
C57   C72   A    
C1    C55   A    
O16   Zn4   S    
C17   C100  A    
C68   C98   A    
C20   C47   S    
C11   C51   A    
O24   Zn1   S    
C67   C97   A    
C59   C70   A    
C54   C75   A    
C50   I8    S    
C16   C101  A    
C55   I13   S    
C22   C45   S    
O15   Zn3   S    
C94   C102  A    
C6    C42   A    
C45   C66   A    
C42   C66   A    
C24   C43   S    
C83   H10   S    
C58   I16   S    
C26   O8    A    
O2    Zn2   S    
C12   C33   A    
C18   C36   A    
C21   O21   A    
C13   C91   A    
C52   C77   A    
C26   C41   S    
C38   C62   A    
C3    C59   A    
