data_mof_unit_53144.cif
_audit_creation_date              2012-12-10T18:23:11-0500
_audit_creation_method            fapswitch 2.2
_symmetry_space_group_name_H-M    P1
_symmetry_Int_Tables_number       1
_space_group_crystal_system       triclinic
_cell_length_a                    14.820174
_cell_length_b                    14.074681
_cell_length_c                    10.619881
_cell_angle_alpha                 90.549073
_cell_angle_beta                  89.049501
_cell_angle_gamma                 90.894073
_cell_volume                      2214.5219198

loop_
_atom_site_label
_atom_site_type_symbol
_atom_type_description
_atom_site_fract_x
_atom_site_fract_y
_atom_site_fract_z
_atom_type_partial_charge
C1    C     C_R   0.326718 0.499647 0.499927 0.906297
C2    C     C_R   0.959291 0.586525 0.288437 0.114721
C3    C     C_R   0.554563 0.797385 0.416903 0.595496
C4    C     C_R   0.443861 0.202239 0.580866 0.611679
C5    C     C_R   0.446548 0.797223 0.583806 0.650548
C6    C     C_R   0.555099 0.202728 0.417988 0.653006
C7    C     C_R   0.446099 0.898048 0.587494 -0.182297
C8    C     C_R   0.555068 0.101693 0.412842 -0.170848
C9    C     C_R   0.554802 0.898512 0.411340 -0.166054
C10   C     C_R   0.442926 0.100967 0.585266 -0.174831
C11   C     C_R   0.499956 0.949151 0.499068 -0.070451
C12   C     C_R   0.673122 0.500851 0.499831 0.858475
C13   C     C_R   0.499271 0.050536 0.499028 -0.073452
C14   C     C_R   0.392714 0.948334 0.676301 0.200413
C15   C     C_R   0.609261 0.050946 0.324596 0.199215
C16   C     C_R   0.607333 0.950446 0.321419 0.156321
C17   C     C_R   0.388076 0.048438 0.672257 0.182472
C18   C     C_R   0.501563 0.499715 0.257403 1.039534
C19   C     C_R   0.499021 0.500446 0.742574 1.065142
C20   C     C_3   0.566774 0.559023 0.039509 0.424097
C21   C     C_3   0.435038 0.442184 0.960419 0.460110
C22   C     C_3   0.580410 0.471394 0.954047 0.386792
C23   C     C_R   0.953347 0.533682 0.506904 -0.054427
C24   C     C_3   0.421297 0.529744 0.045652 0.408555
C25   C     C_3   0.485676 0.589047 0.961793 0.502245
C26   C     C_3   0.516053 0.412079 0.037973 0.505593
C27   C     C_3   0.499323 0.501397 0.876893 -0.555477
C28   C     C_3   0.502302 0.499582 0.123014 -0.558499
C29   C     C_R   0.815860 0.527736 0.386440 0.154003
C30   C     C_R   0.183165 0.486523 0.614453 0.134910
C31   C     C_R   0.769044 0.505242 0.498126 -0.105546
C32   C     C_R   0.230583 0.501889 0.501687 -0.099251
C33   C     C_R   0.811449 0.501668 0.612958 -0.247831
C34   C     C_R   0.047210 0.533283 0.509210 -0.050109
C35   C     C_R   0.189450 0.538358 0.396624 -0.256126
C36   C     C_R   0.904066 0.515962 0.619133 0.064977
C37   C     C_R   0.097097 0.552958 0.398255 0.059560
C38   C     C_3   0.777029 0.429636 0.207895 -0.708346
C39   C     C_3   0.191097 0.347784 0.748096 -0.573833
C40   C     C_3   0.858420 0.615962 0.875955 -0.718276
C41   C     C_3   0.142047 0.720267 0.209519 -0.712185
C42   C     C_3   0.131710 0.627984 0.860856 -0.740178
C43   C     C_3   0.872472 0.718250 0.210389 -0.702693
C44   C     C_3   0.395879 0.892290 0.889743 -0.589428
C45   C     C_R   0.908871 0.548847 0.391814 0.033184
C46   C     C_3   0.631078 0.127903 0.121824 -0.527543
C47   C     C_3   0.606004 0.871129 0.117297 -0.589972
C48   C     C_3   0.238251 0.107780 0.711080 -0.754695
C49   C     C_R   0.091290 0.510691 0.621817 0.025477
C50   C     C_R   0.947689 0.516795 0.735988 0.148486
C51   C     C_R   0.053898 0.588437 0.292207 0.161741
C52   C     C_R   0.042932 0.516550 0.737517 0.127808
F1    F     F_    0.469912 0.679997 0.920708 -0.601408
F2    F     F_    0.609590 0.255326 0.341264 -0.621114
F3    F     F_    0.531271 0.321073 0.079097 -0.603856
F4    F     F_    0.634070 0.620068 0.081211 -0.626956
F5    F     F_    0.368022 0.381253 0.918453 -0.612194
F6    F     F_    0.661619 0.441444 0.902900 -0.646329
F7    F     F_    0.339535 0.559694 0.095065 -0.634803
F8    F     F_    0.609447 0.744437 0.342187 -0.646916
F9    F     F_    0.389357 0.255033 0.656178 -0.634584
F10   F     F_    0.393024 0.744830 0.662305 -0.598139
H1    H     H_    0.771337 0.487477 0.697237 0.229014
H2    H     H_    0.171926 0.306911 0.662377 0.212171
H3    H     H_    0.918200 0.488197 0.926726 0.216242
H4    H     H_    0.912042 0.663854 0.913350 0.224712
H5    H     H_    0.802491 0.609423 0.946225 0.295706
H6    H     H_    0.830306 0.648115 0.790208 0.248171
H7    H     H_    0.074135 0.619024 0.103755 0.245595
H8    H     H_    0.185997 0.740741 0.128245 0.250045
H9    H     H_    0.183365 0.723319 0.295795 0.250450
H10   H     H_    0.086516 0.772089 0.218703 0.225377
H11   H     H_    0.061220 0.510412 0.933445 0.220401
H12   H     H_    0.230053 0.553111 0.312974 0.227969
H13   H     H_    0.181920 0.628783 0.937174 0.284534
H14   H     H_    0.079222 0.681565 0.881857 0.226312
H15   H     H_    0.168196 0.647790 0.772504 0.262736
H16   H     H_    0.884388 0.583152 0.125083 0.264216
H17   H     H_    0.850026 0.749436 0.120785 0.238849
H18   H     H_    0.919557 0.769498 0.256237 0.225410
H19   H     H_    0.812477 0.706997 0.272644 0.277272
H20   H     H_    0.280127 0.918518 0.789793 0.233641
H21   H     H_    0.359071 0.844818 0.956598 0.260570
H22   H     H_    0.403462 0.963788 0.933978 0.189862
H23   H     H_    0.705993 0.547140 0.270376 0.289700
H24   H     H_    0.463839 0.862614 0.870652 0.276554
H25   H     H_    0.732558 0.072491 0.231284 0.221126
H26   H     H_    0.663971 0.195104 0.090176 0.285199
H27   H     H_    0.557125 0.139148 0.130665 0.268049
H28   H     H_    0.644379 0.072525 0.049107 0.182665
H29   H     H_    0.706074 0.857859 0.253976 0.272855
H30   H     H_    0.652616 0.846598 0.041245 0.244129
H31   H     H_    0.564593 0.929306 0.080262 0.198342
H32   H     H_    0.560197 0.811288 0.143896 0.305017
H33   H     H_    0.354174 0.148851 0.811603 0.305340
H34   H     H_    0.745669 0.432510 0.114031 0.300453
H35   H     H_    0.194222 0.137142 0.787019 0.235792
H36   H     H_    0.208023 0.039283 0.678778 0.226329
H37   H     H_    0.240950 0.157371 0.630462 0.269066
H38   H     H_    0.741155 0.374695 0.264948 0.291674
H39   H     H_    0.848833 0.409707 0.194440 0.222012
H40   H     H_    0.248035 0.482839 0.788068 0.291180
H41   H     H_    0.131077 0.354714 0.811006 0.203348
H42   H     H_    0.242733 0.307548 0.798416 0.311876
N1    N     N_R   0.500000 0.750030 0.500000 -0.204587
N2    N     N_2   0.668978 0.100763 0.240737 -0.270233
N3    N     N_2   0.657866 0.904107 0.224111 -0.321990
N4    N     N_2   0.327863 0.093622 0.758796 -0.297238
N5    N     N_R   0.500000 0.249970 0.500000 -0.203870
N6    N     N_2   0.770717 0.521563 0.269130 -0.307082
N7    N     N_2   0.227550 0.440203 0.714251 -0.262418
N8    N     N_2   0.894847 0.522888 0.849185 -0.296477
N9    N     N_2   0.105586 0.625480 0.188958 -0.285937
N10   N     N_2   0.090724 0.534050 0.851037 -0.313768
N11   N     N_2   0.917395 0.629452 0.184291 -0.320897
N12   N     N_2   0.345920 0.898324 0.774281 -0.244265
O1    O     O_R   0.367850 0.580280 0.500030 -0.597144
O2    O     O_R   0.632150 0.419720 0.499970 -0.583419
O3    O     O_R   0.632150 0.580280 0.499970 -0.597709
O4    O     O_R   0.367850 0.419720 0.500030 -0.575950
O5    O     O_R   0.499970 0.580260 0.313950 -0.562337
O6    O     O_R   0.500030 0.419740 0.686050 -0.549844
O7    O     O_R   0.500030 0.580260 0.686050 -0.558187
O8    O     O_R   0.499970 0.419740 0.313950 -0.558366
Zn1   Zn    Zn3+2 0.500000 0.607200 0.500000 1.082242
Zn2   Zn    Zn3+2 0.500000 0.392800 0.500000 1.097304

loop_
_geom_bond_atom_site_label_1
_geom_bond_atom_site_label_2
_ccdc_geom_bond_type
C4    N5    A    
C35   H12   S    
C8    C13   A    
C23   C45   A    
C34   C37   A    
C11   C13   A    
C47   H30   S    
H16   N11   S    
C20   F4    S    
C44   H21   S    
C26   F3    S    
C39   H42   S    
C19   O6    A    
C46   H27   S    
C5    N1    A    
C3    N1    A    
C7    C11   A    
C39   H2    S    
H7    N9    S    
C42   H13   S    
C51   N9    S    
C3    C9    A    
C15   N2    S    
C35   C37   A    
C9    C16   A    
C25   F1    S    
C38   H39   S    
C37   C51   A    
O4    Zn2   S    
O7    Zn1   S    
C20   C25   S    
C10   C17   A    
C43   H17   S    
C15   C16   A    
C33   C36   A    
C16   N3    S    
C43   N11   S    
C42   N10   S    
C7    C14   A    
C40   H5    S    
C50   C52   A    
C31   C33   A    
C38   N6    S    
C19   C27   S    
C41   H9    S    
C3    F8    S    
C49   C52   A    
C39   N7    S    
C21   C27   S    
C40   H4    S    
C14   C17   A    
H40   N7    S    
C6    F2    S    
C44   H24   S    
C21   C26   S    
C46   H26   S    
C2    C45   A    
C32   C35   A    
H29   N3    S    
C29   N6    S    
C18   C28   S    
C24   C25   S    
C38   H38   S    
H23   N6    S    
C2    C51   A    
C17   N4    S    
C5    C7    A    
C6    C8    A    
C20   C28   S    
C43   H18   S    
C4    F9    S    
C1    C32   S    
H11   N10   S    
C29   C45   A    
C1    O4    A    
O6    Zn2   S    
H3    N8    S    
O5    Zn1   S    
C48   H35   S    
C12   O3    A    
C2    N11   S    
C33   H1    S    
C23   C34   A    
C19   O7    A    
C50   N8    S    
C47   H31   S    
C1    O1    A    
C9    C11   A    
C41   H10   S    
C12   O2    A    
O3    Zn1   S    
C30   C49   A    
C20   C22   S    
C8    C15   A    
C47   N3    S    
C22   C27   S    
C12   C31   S    
C22   C26   S    
C43   H19   S    
C6    N5    A    
C4    C10   A    
C36   C50   A    
O8    Zn2   S    
C48   H37   S    
C34   C49   A    
C42   H14   S    
C24   C28   S    
C41   N9    S    
C44   H22   S    
C10   C13   A    
C22   F6    S    
C39   H41   S    
C46   H28   S    
C52   N10   S    
C25   C27   S    
C48   H36   S    
C21   F5    S    
C26   C28   S    
N1    Zn1   S    
C30   N7    S    
H20   N12   S    
C29   C31   A    
C30   C32   A    
C40   N8    S    
C48   N4    S    
H25   N2    S    
C24   F7    S    
C14   N12   S    
C46   N2    S    
C47   H32   S    
C5    F10   S    
H33   N4    S    
C18   O5    A    
N5    Zn2   S    
C44   N12   S    
C42   H15   S    
C23   C36   A    
C40   H6    S    
C21   C24   S    
C38   H34   S    
O2    Zn2   S    
O1    Zn1   S    
C18   O8    A    
C41   H8    S    
