data_mof_unit_43750.cif
_audit_creation_date              2012-12-10T18:44:01-0500
_audit_creation_method            fapswitch 2.2
_symmetry_space_group_name_H-M    P1
_symmetry_Int_Tables_number       1
_space_group_crystal_system       triclinic
_cell_length_a                    18.139121
_cell_length_b                    18.108341
_cell_length_c                    22.054083
_cell_angle_alpha                 113.899165
_cell_angle_beta                  114.189276
_cell_angle_gamma                 90.121897
_cell_volume                      5917.42165905

loop_
_atom_site_label
_atom_site_type_symbol
_atom_type_description
_atom_site_fract_x
_atom_site_fract_y
_atom_site_fract_z
_atom_type_partial_charge
C1    C     C_R   0.349602 0.349479 0.699365 0.819061
C2    C     C_1   0.889310 0.888918 0.778500 -0.136639
C3    C     C_3   0.339044 0.924493 0.375917 -0.414535
C4    C     C_3   0.330708 0.834255 0.323663 -0.344939
C5    C     C_3   0.241690 0.796186 0.264346 -0.863809
C6    C     C_1   0.485392 0.055707 0.632534 0.171845
C7    C     C_1   0.514604 0.944286 0.367459 0.171790
C8    C     C_3   0.441231 0.863188 0.514750 -0.380521
C9    C     C_3   0.355545 0.862180 0.512599 -0.382517
C10   C     C_3   0.338153 0.802743 0.540492 -0.853596
C11   C     C_3   0.558766 0.136808 0.485243 -0.380528
C12   C     C_3   0.644435 0.137795 0.487364 -0.382448
C13   C     C_3   0.079010 0.032209 0.024616 -0.030507
C14   C     C_3   0.661854 0.197287 0.459531 -0.853534
C15   C     C_1   0.400512 0.589131 0.560492 0.173446
C16   C     C_1   0.599495 0.410868 0.439515 0.173463
C17   C     C_3   0.601503 0.624263 0.649329 -0.386060
C18   C     C_3   0.587268 0.612782 0.709175 -0.366020
C19   C     C_3   0.636900 0.685471 0.785351 -0.832282
C20   C     C_3   0.398500 0.375738 0.350674 -0.386072
C21   C     C_3   0.412742 0.387215 0.290831 -0.366012
C22   C     C_3   0.363088 0.314540 0.214650 -0.832295
C23   C     C_3   0.919912 0.130304 0.054717 -0.404021
C24   C     C_3   0.920990 0.967787 0.975384 -0.030509
C25   C     C_3   0.846757 0.139736 0.992998 -0.351243
C26   C     C_3   0.807137 0.209843 0.025387 -0.819796
C27   C     C_3   0.080087 0.869691 0.945283 -0.404020
C28   C     C_3   0.153247 0.860263 0.007002 -0.351244
C29   C     C_3   0.192855 0.790144 0.974613 -0.819796
C30   C     C_1   0.009452 0.113814 0.945682 0.154208
C31   C     C_1   0.990549 0.886183 0.054318 0.154213
C32   C     C_1   0.834689 0.930227 0.947409 0.160876
C33   C     C_1   0.165312 0.069769 0.052591 0.160877
C34   C     C_1   0.890773 0.465237 0.549916 0.179370
C35   C     C_3   0.036486 0.037526 0.073810 0.018661
C36   C     C_1   0.109226 0.534763 0.450084 0.179373
C37   C     C_1   0.090070 0.515201 0.644134 0.183062
C38   C     C_1   0.909930 0.484799 0.355867 0.183063
C39   C     C_1   0.093083 0.661242 0.595377 0.231381
C40   C     C_1   0.906916 0.338757 0.404624 0.231378
C41   C     C_3   0.963514 0.962470 0.926190 0.018660
C42   C     C_1   0.077197 0.077988 0.154866 -0.046448
C43   C     C_1   0.922804 0.922010 0.845133 -0.046450
C44   C     C_3   0.042816 0.507606 0.568862 -0.061637
C45   C     C_3   0.957183 0.492393 0.431138 -0.061637
C46   C     C_3   0.948028 0.483079 0.523744 -0.060414
C47   C     C_R   0.650398 0.650521 0.300635 0.819062
C48   C     C_3   0.051972 0.516921 0.476256 -0.060414
C49   C     C_3   0.949145 0.552367 0.500386 -0.109333
C50   C     C_3   0.050854 0.447633 0.499614 -0.109333
C51   C     C_R   0.150341 0.150392 0.300697 0.817441
C52   C     C_R   0.849659 0.849608 0.699303 0.817439
C53   C     C_3   0.044033 0.577015 0.545576 -0.041468
C54   C     C_3   0.955967 0.422985 0.454424 -0.041466
C55   C     C_3   0.563130 0.560013 0.023424 0.049737
C56   C     C_3   0.436871 0.439989 0.976576 0.049737
C57   C     C_3   0.553794 0.467121 0.974951 -0.030889
C58   C     C_3   0.547632 0.555677 0.570939 0.055080
C59   C     C_3   0.446207 0.532880 0.025049 -0.030892
C60   C     C_1   0.388758 0.388653 0.778542 -0.129315
C61   C     C_1   0.611243 0.611347 0.221458 -0.129312
C62   C     C_3   0.471253 0.554972 0.974602 -0.033812
C63   C     C_3   0.528749 0.445030 0.025399 -0.033809
C64   C     C_3   0.462240 0.462388 0.926196 0.018946
C65   C     C_3   0.537761 0.537613 0.073804 0.018947
C66   C     C_1   0.421757 0.421783 0.845163 -0.042928
C67   C     C_1   0.578244 0.578218 0.154837 -0.042927
C68   C     C_3   0.076582 0.002360 0.547436 0.125278
C69   C     C_3   0.452372 0.444322 0.429065 0.055086
C70   C     C_3   0.923415 0.997657 0.452577 0.125258
C71   C     C_3   0.017757 0.923871 0.478176 -0.267122
C72   C     C_3   0.982242 0.076145 0.521838 -0.267112
C73   C     C_3   0.947383 0.949644 0.499458 -0.073192
C74   C     C_3   0.052614 0.050370 0.500553 -0.073197
C75   C     C_R   0.392484 0.109265 0.500804 0.797102
C76   C     C_R   0.607515 0.890733 0.499194 0.797101
C77   C     C_3   0.005991 0.027365 0.568449 0.109295
C78   C     C_3   0.994005 0.972649 0.431563 0.109242
C79   C     C_3   0.493457 0.026382 0.563317 -0.022701
C80   C     C_3   0.003942 0.054871 0.974579 -0.027973
C81   C     C_3   0.506539 0.973614 0.436677 -0.022675
C82   C     C_3   0.574644 0.038459 0.558321 0.053124
C83   C     C_3   0.425352 0.961537 0.441673 0.053133
C84   C     C_3   0.550428 0.947755 0.499189 -0.132986
C85   C     C_3   0.449568 0.052242 0.500805 -0.132997
C86   C     C_3   0.469265 0.935622 0.504551 0.060083
C87   C     C_3   0.530732 0.064374 0.495443 0.060071
C88   C     C_R   0.108321 0.391278 0.500006 0.817512
C89   C     C_R   0.891679 0.608722 0.499994 0.817512
C90   C     C_R   0.108727 0.108145 0.500172 0.785869
C91   C     C_3   0.996058 0.945125 0.025421 -0.027979
C92   C     C_R   0.891272 0.891859 0.499831 0.785872
C93   C     C_R   0.390204 0.391724 0.498860 0.796057
C94   C     C_R   0.609797 0.608276 0.501142 0.796062
C95   C     C_3   0.453036 0.542932 0.529130 -0.025206
C96   C     C_3   0.546969 0.457068 0.470874 -0.025197
C97   C     C_3   0.458147 0.538884 0.459775 0.057743
C98   C     C_3   0.541857 0.461115 0.540229 0.057750
C99   C     C_3   0.552835 0.551208 0.501331 -0.126773
C100  C     C_3   0.447169 0.448792 0.498673 -0.126774
C101  C     C_3   0.417716 0.589795 0.418421 -0.434348
C102  C     C_3   0.961163 0.060500 0.023845 0.048518
C103  C     C_3   0.323252 0.567202 0.380963 -0.334780
C104  C     C_3   0.285359 0.615711 0.337037 -0.877972
C105  C     C_3   0.582286 0.410208 0.581587 -0.434335
C106  C     C_3   0.676750 0.432799 0.619046 -0.334780
C107  C     C_3   0.714641 0.384325 0.663008 -0.877973
C108  C     C_1   0.611613 0.429075 0.946577 0.161427
C109  C     C_1   0.388389 0.570927 0.053424 0.161431
C110  C     C_3   0.636135 0.628834 0.053652 -0.405621
C111  C     C_3   0.646160 0.638889 0.991468 -0.345385
C112  C     C_3   0.721437 0.705233 0.023050 -0.849325
C113  C     C_3   0.038837 0.939496 0.976155 0.048517
C114  C     C_3   0.363866 0.371169 0.946350 -0.405622
C115  C     C_3   0.353847 0.361111 0.008535 -0.345376
C116  C     C_3   0.278567 0.294773 0.976956 -0.849345
C117  C     C_1   0.562529 0.385944 0.054168 0.169189
C118  C     C_1   0.437473 0.614058 0.945833 0.169193
C119  C     C_3   0.165567 0.003180 0.597436 -0.392347
C120  C     C_3   0.169907 0.942260 0.630242 -0.351965
C121  C     C_3   0.258912 0.946617 0.681785 -0.842100
C122  C     C_3   0.834433 0.996843 0.402577 -0.392313
C123  C     C_3   0.830095 0.057869 0.369876 -0.351933
C124  C     C_1   0.110690 0.111080 0.221500 -0.136637
C125  C     C_3   0.741104 0.053446 0.318253 -0.842165
C126  C     C_3   0.004561 0.057164 0.643574 -0.416187
C127  C     C_3   0.065023 0.139098 0.701579 -0.360807
C128  C     C_3   0.058735 0.169841 0.774406 -0.836140
C129  C     C_3   0.995424 0.942854 0.356433 -0.416083
C130  C     C_3   0.935019 0.860880 0.298447 -0.360785
C131  C     C_3   0.941297 0.830150 0.225617 -0.836152
C132  C     C_3   0.660954 0.075499 0.624075 -0.414544
C133  C     C_3   0.669294 0.165739 0.676329 -0.344920
C134  C     C_3   0.758325 0.203826 0.735607 -0.863863
H1    H     H_    0.030699 0.860645 0.460216 0.140426
H2    H     H_    0.695012 0.398581 0.707420 0.260835
H3    H     H_    0.332574 0.373695 0.338558 0.189030
H4    H     H_    0.783823 0.197375 0.060391 0.267263
H5    H     H_    0.852668 0.269160 0.059494 0.263525
H6    H     H_    0.754471 0.215369 0.979627 0.257235
H7    H     H_    0.867677 0.153066 0.957054 0.232782
H8    H     H_    0.799385 0.081779 0.957991 0.235367
H9    H     H_    0.898380 0.117061 0.090428 0.212581
H10   H     H_    0.966787 0.188740 0.089726 0.208490
H11   H     H_    0.147320 0.730830 0.940520 0.263523
H12   H     H_    0.216158 0.802594 0.939595 0.267265
H13   H     H_    0.695464 0.317112 0.625858 0.262435
H14   H     H_    0.245526 0.784624 0.020373 0.257235
H15   H     H_    0.200624 0.918217 0.041997 0.235367
H16   H     H_    0.132334 0.846950 0.042958 0.232778
H17   H     H_    0.033212 0.811254 0.910279 0.208493
H18   H     H_    0.101614 0.882928 0.909566 0.212576
H19   H     H_    0.782969 0.401436 0.689095 0.262883
H20   H     H_    0.699024 0.418972 0.576450 0.243217
H21   H     H_    0.698554 0.499475 0.657543 0.227467
H22   H     H_    0.559898 0.419317 0.623533 0.192111
H23   H     H_    0.561712 0.343939 0.541026 0.202915
H24   H     H_    0.715677 0.765369 0.061168 0.265552
H25   H     H_    0.778502 0.687560 0.053657 0.260457
H26   H     H_    0.726418 0.712229 0.977034 0.256329
H27   H     H_    0.969306 0.139372 0.539803 0.140416
H28   H     H_    0.653618 0.579868 0.953403 0.232200
H29   H     H_    0.590611 0.656616 0.958778 0.232934
H30   H     H_    0.626293 0.687579 0.090087 0.209144
H31   H     H_    0.693155 0.614054 0.087823 0.209082
H32   H     H_    0.221503 0.312457 0.946361 0.260454
H33   H     H_    0.284315 0.234637 0.938827 0.265554
H34   H     H_    0.273594 0.287769 0.022972 0.256335
H35   H     H_    0.409395 0.343376 0.041218 0.232935
H36   H     H_    0.346397 0.420132 0.046606 0.232199
H37   H     H_    0.306846 0.385952 0.912183 0.209083
H38   H     H_    0.304533 0.682917 0.374215 0.262452
H39   H     H_    0.373705 0.312424 0.909910 0.209139
H40   H     H_    0.297244 0.933978 0.651685 0.267781
H41   H     H_    0.285217 0.008716 0.729902 0.262097
H42   H     H_    0.260743 0.899936 0.702731 0.265098
H43   H     H_    0.133876 0.956491 0.662387 0.234725
H44   H     H_    0.143532 0.878442 0.584784 0.231967
H45   H     H_    0.199924 0.985946 0.563595 0.209623
H46   H     H_    0.195394 0.066537 0.642570 0.211221
H47   H     H_    0.714925 0.991394 0.270068 0.262101
H48   H     H_    0.702672 0.065891 0.348249 0.267798
H49   H     H_    0.304987 0.601494 0.292631 0.260840
H50   H     H_    0.739267 0.100232 0.297424 0.265121
H51   H     H_    0.856363 0.121666 0.415391 0.231857
H52   H     H_    0.866225 0.043797 0.337826 0.234782
H53   H     H_    0.804634 0.933510 0.357391 0.211199
H54   H     H_    0.800047 0.013983 0.436393 0.209625
H55   H     H_    0.995387 0.179644 0.765478 0.262604
H56   H     H_    0.074090 0.124514 0.797509 0.270077
H57   H     H_    0.102859 0.229347 0.815252 0.246957
H58   H     H_    0.129152 0.131194 0.712730 0.224915
H59   H     H_    0.051454 0.186427 0.680692 0.222150
H60   H     H_    0.217030 0.598596 0.310951 0.262887
H61   H     H_    0.940886 0.065144 0.635140 0.189634
H62   H     H_    0.019127 0.009381 0.663665 0.210516
H63   H     H_    0.925880 0.875456 0.202496 0.270083
H64   H     H_    0.004660 0.820404 0.234549 0.262597
H65   H     H_    0.897215 0.770616 0.184785 0.246956
H66   H     H_    0.948652 0.813571 0.319354 0.222133
H67   H     H_    0.870875 0.868722 0.287295 0.224893
H68   H     H_    0.980793 0.990614 0.336321 0.210519
H69   H     H_    0.059110 0.934931 0.364869 0.189613
H70   H     H_    0.779625 0.169160 0.769169 0.266960
H71   H     H_    0.301449 0.500533 0.342440 0.227465
H72   H     H_    0.799337 0.203099 0.709382 0.254633
H73   H     H_    0.762431 0.268797 0.773015 0.259191
H74   H     H_    0.649459 0.202439 0.644764 0.219415
H75   H     H_    0.629516 0.169668 0.704193 0.235918
H76   H     H_    0.673600 0.038480 0.655655 0.208785
H77   H     H_    0.706987 0.070182 0.602171 0.187741
H78   H     H_    0.200633 0.796935 0.290535 0.254636
H79   H     H_    0.220449 0.830850 0.230777 0.266951
H80   H     H_    0.237582 0.731209 0.226951 0.259180
H81   H     H_    0.370525 0.830322 0.295833 0.235926
H82   H     H_    0.300980 0.580995 0.423555 0.243242
H83   H     H_    0.350496 0.797544 0.355222 0.219409
H84   H     H_    0.293009 0.929805 0.397818 0.187735
H85   H     H_    0.326399 0.961514 0.344337 0.208800
H86   H     H_    0.344195 0.739829 0.507778 0.272616
H87   H     H_    0.382002 0.824008 0.599911 0.267771
H88   H     H_    0.274347 0.800099 0.534795 0.258152
H89   H     H_    0.350713 0.924713 0.547576 0.235215
H90   H     H_    0.307459 0.842280 0.454848 0.226043
H91   H     H_    0.440965 0.804289 0.470948 0.178099
H92   H     H_    0.487441 0.868577 0.569240 0.227408
H93   H     H_    0.438290 0.656062 0.458985 0.202918
H94   H     H_    0.617953 0.176133 0.400142 0.267790
H95   H     H_    0.655928 0.260216 0.492344 0.272581
H96   H     H_    0.725625 0.199858 0.465146 0.258145
H97   H     H_    0.692535 0.157628 0.545099 0.226055
H98   H     H_    0.649225 0.075268 0.452333 0.235200
H99   H     H_    0.512546 0.131434 0.430764 0.227396
H100  H     H_    0.559054 0.195710 0.529058 0.178106
H101  H     H_    0.703891 0.691549 0.800823 0.262583
H102  H     H_    0.617616 0.743576 0.785113 0.272672
H103  H     H_    0.626027 0.675320 0.827673 0.249984
H104  H     H_    0.440103 0.580692 0.376475 0.192103
H105  H     H_    0.520871 0.607330 0.695805 0.241609
H106  H     H_    0.606490 0.555851 0.712192 0.227994
H107  H     H_    0.667429 0.626315 0.661445 0.189021
H108  H     H_    0.586615 0.684092 0.650243 0.226017
H109  H     H_    0.382345 0.256421 0.214878 0.272676
H110  H     H_    0.296099 0.308489 0.199184 0.262576
H111  H     H_    0.373969 0.324685 0.172330 0.249986
H112  H     H_    0.393545 0.444158 0.287825 0.227989
H113  H     H_    0.479137 0.392642 0.304194 0.241608
H114  H     H_    0.413379 0.315907 0.349759 0.226015
N1    N     N_1   0.657129 0.399073 0.924208 -0.211102
N2    N     N_1   0.986186 0.839798 0.077107 -0.218368
N3    N     N_1   0.766733 0.900558 0.925346 -0.211076
N4    N     N_1   0.233268 0.099438 0.074654 -0.211080
N5    N     N_1   0.845710 0.451180 0.570555 -0.226077
N6    N     N_1   0.154288 0.548820 0.429445 -0.226072
N7    N     N_1   0.127333 0.521158 0.703407 -0.197723
N8    N     N_1   0.872666 0.478841 0.296593 -0.197723
N9    N     N_1   0.131685 0.727566 0.634513 -0.204101
N10   N     N_1   0.868315 0.272433 0.365487 -0.204117
N11   N     N_1   0.342873 0.600928 0.075793 -0.211100
N12   N     N_1   0.589195 0.339423 0.076846 -0.192138
N13   N     N_1   0.410808 0.660579 0.923154 -0.192136
N14   N     N_1   0.478917 0.078690 0.686961 -0.202923
N15   N     N_1   0.521078 0.921300 0.313032 -0.202924
N16   N     N_1   0.359162 0.625492 0.585178 -0.189331
N17   N     N_1   0.640847 0.374507 0.414832 -0.189352
N18   N     N_1   0.013815 0.160198 0.922894 -0.218378
O1    O     O_3   0.250010 0.250010 0.500010 -0.481015
O2    O     O_R   0.893710 0.832180 0.664370 -0.637101
O3    O     O_R   0.332200 0.393690 0.664400 -0.630041
O4    O     O_R   0.667800 0.606310 0.335600 -0.630042
O5    O     O_R   0.229300 0.167820 0.335610 -0.639029
O6    O     O_R   0.770700 0.832180 0.664390 -0.639027
O7    O     O_R   0.358130 0.123520 0.543120 -0.639986
O8    O     O_R   0.641870 0.876480 0.456880 -0.639992
O9    O     O_R   0.080390 0.314990 0.456920 -0.644076
O10   O     O_R   0.919610 0.685010 0.543080 -0.644077
O11   O     O_R   0.185040 0.123520 0.543150 -0.658917
O12   O     O_3   0.749990 0.749990 0.499990 -0.481017
O13   O     O_R   0.814960 0.876480 0.456850 -0.658912
O14   O     O_R   0.358080 0.419590 0.543080 -0.634221
O15   O     O_R   0.641920 0.580410 0.456920 -0.634222
O16   O     O_R   0.080420 0.141920 0.456950 -0.643711
O17   O     O_R   0.919580 0.858080 0.543050 -0.643711
O18   O     O_R   0.376490 0.315000 0.456880 -0.657434
O19   O     O_R   0.623510 0.685000 0.543120 -0.657435
O20   O     O_R   0.376520 0.141930 0.456900 -0.653747
O21   O     O_R   0.623480 0.858070 0.543100 -0.653744
O22   O     O_R   0.184990 0.419580 0.543110 -0.627439
O23   O     O_R   0.815010 0.580420 0.456890 -0.627439
O24   O     O_R   0.332220 0.270690 0.664420 -0.638124
O25   O     O_R   0.667780 0.729310 0.335580 -0.638117
O26   O     O_R   0.106290 0.167820 0.335630 -0.637098
Zn1   Zn    Zn3+2 0.307090 0.219220 0.438420 0.944271
Zn2   Zn    Zn3+2 0.692910 0.780780 0.561580 0.944270
Zn3   Zn    Zn3+2 0.280820 0.192930 0.561610 0.956014
Zn4   Zn    Zn3+2 0.719180 0.807070 0.438390 0.956018
Zn5   Zn    Zn3+2 0.131340 0.219220 0.438450 0.967190
Zn6   Zn    Zn3+2 0.868660 0.780780 0.561550 0.967189
Zn7   Zn    Zn3+2 0.280790 0.368660 0.561580 0.989133
Zn8   Zn    Zn3+2 0.719210 0.631340 0.438420 0.989133

loop_
_geom_bond_atom_site_label_1
_geom_bond_atom_site_label_2
_ccdc_geom_bond_type
C38   N8    T    
C63   C65   S    
C126  C127  S    
C90   O16   A    
C47   O25   A    
C114  C115  S    
C21   H113  S    
C112  H24   S    
C34   N5    T    
C131  H63   S    
C78   C129  S    
C84   C86   S    
C92   O17   A    
C88   O22   A    
C68   C119  S    
C106  C107  S    
C82   C87   S    
C96   C99   S    
C35   C42   S    
C110  C111  S    
C38   C45   S    
C62   C64   S    
C123  H51   S    
C44   C53   S    
O12   Zn8   S    
C72   H27   S    
C76   O21   A    
C48   C50   S    
C17   H107  S    
C101  C103  S    
C21   C22   S    
C24   C41   S    
C41   C43   S    
C116  H32   S    
O26   Zn5   S    
C114  H37   S    
C119  H45   S    
C22   H109  S    
C55   C65   S    
C44   C46   S    
C26   H5    S    
C1    C60   S    
C29   H12   S    
C71   C73   S    
C40   N10   T    
C64   C66   S    
C20   H3    S    
C109  N11   T    
C120  H43   S    
C24   C32   S    
C13   C33   S    
C107  H2    S    
C122  H54   S    
O11   Zn3   S    
C8    H91   S    
O12   Zn4   S    
C93   C100  S    
C2    C52   S    
C82   C84   S    
C55   C57   S    
C3    C83   S    
C79   C85   S    
C44   C50   S    
C68   C77   S    
C5    H78   S    
C112  H26   S    
C125  H48   S    
C41   C113  S    
C4    C5    S    
C95   C97   S    
C56   C59   S    
C101  H93   S    
C74   C90   S    
C37   C44   S    
C130  C131  S    
C15   C95   S    
C47   O4    A    
C121  H41   S    
C49   C53   S    
C75   O20   A    
C59   C109  S    
C128  H56   S    
C14   H96   S    
C134  H72   S    
C10   H88   S    
C69   C100  S    
C83   C86   S    
C20   C21   S    
O20   Zn1   S    
C73   C77   S    
C116  H34   S    
C103  H82   S    
O9    Zn5   S    
C11   H99   S    
C55   C62   S    
C27   H18   S    
C133  H75   S    
C111  C112  S    
C58   C98   S    
C35   C102  S    
C19   H102  S    
C29   H14   S    
C6    C79   S    
C52   O6    A    
C90   O11   A    
C13   C35   S    
C127  H59   S    
C1    O3    A    
O12   Zn6   S    
C68   C74   S    
C115  C116  S    
O12   Zn2   S    
C70   C122  S    
O2    Zn6   S    
C11   C87   S    
C96   C98   S    
C56   C64   S    
C7    N15   T    
C34   C46   S    
C9    C10   S    
C8    C86   S    
C16   N17   T    
C17   C58   S    
C8    H92   S    
C28   H15   S    
C75   O7    A    
C125  H50   S    
C132  H77   S    
C115  H36   S    
C126  H61   S    
O15   Zn8   S    
C81   C83   S    
C18   H106  S    
C57   C63   S    
C94   O19   A    
C48   C53   S    
C16   C96   S    
C65   C67   S    
C25   C26   S    
C36   N6    T    
C80   C102  S    
C33   N4    T    
C58   C95   S    
C14   H94   S    
C61   C67   T    
C104  H49   S    
C120  H44   S    
C17   C18   S    
C6    N14   T    
O1    Zn3   S    
C107  H19   S    
C27   C113  S    
C89   O23   A    
C7    C81   S    
C40   C54   S    
C3    C4    S    
C120  C121  S    
C12   H97   S    
C129  C130  S    
C103  H71   S    
C73   C92   S    
C79   C82   S    
O10   Zn6   S    
C21   H112  S    
C31   C91   S    
C59   C65   S    
C9    H90   S    
C118  N13   T    
C3    H84   S    
O1    Zn5   S    
C129  H69   S    
C126  H62   S    
C57   C108  S    
C104  H60   S    
C93   O18   A    
O16   Zn5   S    
O6    Zn2   S    
C69   C97   S    
C23   H9    S    
C76   C84   S    
C41   C80   S    
C22   H110  S    
C133  H74   S    
C46   C49   S    
C50   C54   S    
C28   C29   S    
C88   O9    A    
C26   H6    S    
C19   H103  S    
C29   H11   S    
C63   C117  S    
C110  H31   S    
C123  C125  S    
C18   C19   S    
O7    Zn3   S    
O1    Zn1   S    
O8    Zn4   S    
O5    Zn1   S    
C75   C85   S    
C105  H23   S    
C25   H8    S    
C106  H20   S    
O19   Zn2   S    
C104  H38   S    
C13   C80   S    
C60   C66   T    
C51   C124  S    
C111  H28   S    
C10   H86   S    
C131  H64   S    
C132  H76   S    
C72   C74   S    
C117  N12   T    
C95   C100  S    
C125  H47   S    
C107  H13   S    
C121  H40   S    
C45   C49   S    
C46   C54   S    
C70   C73   S    
C110  H30   S    
C76   O8    A    
C81   C87   S    
C130  H67   S    
C94   O15   A    
C83   C85   S    
C17   H108  S    
C98   C100  S    
C133  C134  S    
C23   H10   S    
C119  H46   S    
C82   C132  S    
C127  C128  S    
C45   C48   S    
C27   H17   S    
C25   H7    S    
C58   C99   S    
C26   H4    S    
C19   H101  S    
C47   C61   S    
C119  C120  S    
C134  H70   S    
C32   N3    T    
C105  C106  S    
C108  N1    T    
C123  H52   S    
O25   Zn4   S    
C51   O26   A    
C122  H53   S    
C39   C53   S    
C68   C71   S    
C5    H80   S    
O22   Zn7   S    
C1    O24   A    
C24   C102  S    
C62   C118  S    
C23   C102  S    
C3    H85   S    
C74   C78   S    
C103  C104  S    
O14   Zn7   S    
C79   C86   S    
C77   C126  S    
C28   H16   S    
C112  H25   S    
C51   O5    A    
C70   C78   S    
C115  H35   S    
C69   C96   S    
C42   C124  T    
C98   C105  S    
C94   C99   S    
C71   H1    S    
C121  H42   S    
O13   Zn4   S    
C128  H55   S    
C93   O14   A    
C15   N16   T    
C39   N9    T    
C10   H87   S    
C114  H39   S    
C8    C9    S    
C14   H95   S    
C89   O10   A    
C116  H33   S    
C36   C48   S    
C30   N18   T    
C50   C88   S    
C30   C80   S    
C11   H100  S    
C5    H79   S    
C4    H81   S    
C130  H66   S    
C97   C99   S    
C12   H98   S    
C85   C87   S    
O24   Zn3   S    
C111  H29   S    
C132  C133  S    
C37   N7    T    
C91   C113  S    
C31   N2    T    
C131  H65   S    
C72   C77   S    
C9    H89   S    
C2    C43   T    
C56   C63   S    
O1    Zn7   S    
C129  H68   S    
C52   O2    A    
C12   C14   S    
C45   C54   S    
C4    H83   S    
C55   C110  S    
C20   C69   S    
C24   C91   S    
O3    Zn7   S    
C81   C84   S    
C18   H105  S    
C57   C64   S    
O4    Zn8   S    
C59   C62   S    
C101  H104  S    
O23   Zn8   S    
C49   C89   S    
C22   H111  S    
C11   C12   S    
C127  H58   S    
O21   Zn2   S    
C128  H57   S    
C92   O13   A    
O17   Zn6   S    
C134  H73   S    
O18   Zn1   S    
C23   C25   S    
C13   C113  S    
C20   H114  S    
C105  H22   S    
C106  H21   S    
C27   C28   S    
C56   C114  S    
C70   C72   S    
C122  C123  S    
C71   C78   S    
C97   C101  S    
C35   C91   S    
