data_mof_unit_22061.cif
_audit_creation_date              2012-12-10T17:05:13-0500
_audit_creation_method            fapswitch 2.2
_symmetry_space_group_name_H-M    P1
_symmetry_Int_Tables_number       1
_space_group_crystal_system       triclinic
_cell_length_a                    10.732582
_cell_length_b                    11.024359
_cell_length_c                    9.853301
_cell_angle_alpha                 111.288407
_cell_angle_beta                  98.783173
_cell_angle_gamma                 91.517544
_cell_volume                      1069.29407873

loop_
_atom_site_label
_atom_site_type_symbol
_atom_type_description
_atom_site_fract_x
_atom_site_fract_y
_atom_site_fract_z
_atom_type_partial_charge
C1    C     C_R   0.490317 0.253908 0.440199 0.850500
C2    C     C_3   0.878598 0.503824 0.501176 0.113981
C3    C     C_3   0.926526 0.611757 0.447665 -0.047151
C4    C     C_3   0.907360 0.368104 0.394483 -0.429045
C5    C     C_2   0.488631 0.114317 0.406376 -0.402790
C6    C     C_2   0.490344 0.069757 0.515226 -0.123651
C7    C     C_2   0.501838 0.886131 0.595636 0.323874
C8    C     C_2   0.503326 0.932519 0.487844 -0.267349
C9    C     C_2   0.506823 0.514192 0.081699 0.084110
C10   C     C_2   0.490778 0.487327 0.917060 -0.056614
C11   C     C_R   0.260028 0.499039 0.500286 0.753722
C12   C     C_R   0.507123 0.746194 0.560060 0.748497
C13   C     C_R   0.740234 0.501399 0.500142 0.749551
C14   C     C_3   0.094594 0.529037 0.659203 -0.383709
C15   C     C_3   0.951866 0.525155 0.658065 -0.370680
C16   C     C_3   0.070594 0.604927 0.444488 -0.401737
C17   C     C_3   0.051888 0.362301 0.393968 -0.064878
C18   C     C_3   0.122174 0.497587 0.500156 0.100519
Cu1   Cu    Cu3+1 0.522160 0.521810 0.644910 0.928353
Cu2   Cu    Cu3+1 0.477840 0.478190 0.355090 0.949764
H1    H     H_    0.140321 0.627201 0.733804 0.172167
H2    H     H_    0.857478 0.348452 0.279914 0.153215
H3    H     H_    0.085842 0.582180 0.328796 0.143763
H4    H     H_    0.878967 0.582165 0.330147 0.124069
H5    H     H_    0.517269 0.868884 0.378321 0.140453
H6    H     H_    0.485772 0.136195 0.626840 0.225465
H7    H     H_    0.489687 0.048399 0.293518 0.162490
H8    H     H_    0.420323 0.410890 0.841190 0.197409
H9    H     H_    0.569091 0.598520 0.157173 0.072329
H10   H     H_    0.621245 0.627406 0.936573 0.180072
H11   H     H_    0.135439 0.458037 0.706131 0.166945
H12   H     H_    0.923160 0.443676 0.691462 0.167794
H13   H     H_    0.928432 0.616441 0.742049 0.175473
H14   H     H_    0.127289 0.698924 0.510418 0.165439
H15   H     H_    0.068029 0.347045 0.280047 0.131967
H16   H     H_    0.868630 0.290635 0.428071 0.163927
N1    N     N_2   0.444530 0.445420 0.137360 0.020382
N2    N     N_2   0.555520 0.554510 0.862630 -0.309480
O1    O     O_R   0.511820 0.332340 0.577400 -0.579026
O2    O     O_R   0.474400 0.295500 0.332650 -0.555689
O3    O     O_R   0.336400 0.518400 0.622370 -0.579276
O4    O     O_R   0.298980 0.481560 0.377620 -0.606116
O5    O     O_R   0.525600 0.704500 0.667350 -0.551710
O6    O     O_R   0.488180 0.667660 0.422600 -0.620449
O7    O     O_R   0.701020 0.518440 0.622380 -0.580297
O8    O     O_R   0.663600 0.481600 0.377630 -0.593315
O9    O     O_3   0.474097 0.964319 0.731743 -0.565521
C19   C     C_3   0.587809 0.009890 0.834140 -0.312097
H17   H     H_    0.654956 0.063568 0.795493 0.155055
H18   H     H_    0.632482 0.928460 0.858200 0.161432
H19   H     H_    0.565708 0.079628 0.939537 0.214104
O10   O     O_3   0.391455 0.328156 0.038277 -0.504825
C20   C     C_3   0.269579 0.308707 0.066506 -0.131064
H20   H     H_    0.218309 0.398704 0.090381 0.125604
H21   H     H_    0.273572 0.270704 0.156679 0.178998
H22   H     H_    0.213687 0.233024 0.965836 0.122081
C21   C     C_3   0.885831 0.752405 0.525986 -0.392489
C22   C     C_3   0.978541 0.847064 0.661177 -0.307439
C23   C     C_3   0.913231 0.962236 0.752509 -0.908082
H23   H     H_    0.865746 0.012234 0.681774 0.256626
H24   H     H_    0.842576 0.927220 0.804207 0.245809
H25   H     H_    0.984260 0.033450 0.841833 0.239202
H26   H     H_    0.020361 0.797569 0.734339 0.221952
H27   H     H_    0.056554 0.887555 0.623532 0.213773
H28   H     H_    0.871202 0.799668 0.443038 0.177087
H29   H     H_    0.791873 0.745311 0.557769 0.186790
C24   C     C_3   0.101785 0.244899 0.431206 -0.393650
C25   C     C_3   0.057949 0.113609 0.303347 -0.370049
C26   C     C_3   0.104475 0.999390 0.343776 -0.835621
H30   H     H_    0.209506 0.008027 0.369076 0.269948
H31   H     H_    0.065966 0.997384 0.441402 0.251307
H32   H     H_    0.071856 0.906002 0.249456 0.234068
H33   H     H_    0.952975 0.100441 0.275462 0.219060
H34   H     H_    0.095565 0.111852 0.203638 0.207059
H35   H     H_    0.206883 0.254271 0.453429 0.188119
H36   H     H_    0.069378 0.243900 0.532752 0.209496

loop_
_geom_bond_atom_site_label_1
_geom_bond_atom_site_label_2
_ccdc_geom_bond_type
C26   H32   S    
Cu2   O4    S    
C4    H16   S    
C11   C18   S    
C7    C8    D    
Cu2   N1    S    
Cu1   N2    S    
C12   O5    A    
C4    H2    S    
C9    C10   S    
C14   C18   S    
C2    C4    S    
O9    C19   S    
C9    H9    S    
C21   H29   S    
C10   N2    D    
C25   H33   S    
C19   H18   S    
C17   C18   S    
C21   C22   S    
C26   H31   S    
C23   H23   S    
C12   O6    A    
C5    H7    S    
C20   H20   S    
C13   O7    A    
C2    C15   S    
C3    H4    S    
C6    H6    S    
C5    C6    D    
Cu1   O1    S    
C1    C5    S    
C4    C17   S    
C3    C21   S    
C14   H1    S    
C9    N1    D    
C19   H17   S    
Cu2   O6    S    
Cu1   O5    S    
C11   O3    A    
C16   H3    S    
C2    C3    S    
C20   H21   S    
C22   H27   S    
C26   H30   S    
Cu2   O2    S    
C7    O9    S    
C7    C12   S    
C23   H24   S    
C24   H35   S    
N1    O10   S    
C17   C24   S    
C8    H5    S    
C24   C25   S    
Cu1   O3    S    
C15   H12   S    
O10   C20   S    
H10   N2    S    
C11   O4    A    
C16   C18   S    
C20   H22   S    
C10   H8    S    
C22   H26   S    
C2    C13   S    
C14   H11   S    
C1    O1    A    
C13   O8    A    
C23   H25   S    
C6    C8    S    
C24   H36   S    
C17   H15   S    
C1    O2    A    
C16   H14   S    
C22   C23   S    
C14   C15   S    
C25   H34   S    
C15   H13   S    
C19   H19   S    
Cu2   O8    S    
C3    C16   S    
Cu1   Cu2   S    
C21   H28   S    
C25   C26   S    
Cu1   O7    S    
