data_mof_unit_66775.cif
_audit_creation_date              2013-03-05T15:40:49-0500
_audit_creation_method            fapswitch 2.2
_symmetry_space_group_name_H-M    P1
_symmetry_Int_Tables_number       1
_space_group_crystal_system       triclinic
_cell_length_a                    8.309809
_cell_length_b                    12.826396
_cell_length_c                    15.115401
_cell_angle_alpha                 96.039394
_cell_angle_beta                  99.519017
_cell_angle_gamma                 97.635467
_cell_volume                      1561.41481733

loop_
_atom_site_label
_atom_site_type_symbol
_atom_site_description
_atom_site_fract_x
_atom_site_fract_y
_atom_site_fract_z
_atom_type_partial_charge
P1    P     P_3+3 0.998660 0.747790 0.570900 0.464494
O1    O     O_2   0.168170 0.764170 0.543850 -0.329407
O2    O     O_3   0.898670 0.629780 0.545890 -0.389992
O3    O     O_3   0.365980 0.695510 0.380810 -0.328622
O4    O     O_2   0.293142 0.885773 0.421597 -0.398300
O5    O     O_3   0.088869 0.788326 0.686581 -0.556747
O6    O     O_3   0.356958 0.846005 0.257398 -0.522339
H1    H     H_    0.347058 0.685560 0.215860 0.120789
C1    C     C_3   0.375784 0.771071 0.102976 -0.513800
P2    P     P_3+3 0.306970 0.411860 0.294270 0.496482
P3    P     P_3+3 0.876935 0.626461 0.216930 0.478242
O7    O     O_2   0.136040 0.444100 0.280280 -0.310920
O8    O     O_3   0.934510 0.640480 0.335500 -0.325927
O9    O     O_2   0.011781 0.572915 0.178702 -0.387311
O10   O     O_3   0.262786 0.272978 0.271752 -0.587362
O11   O     O_3   0.895805 0.751089 0.178812 -0.568347
C2    C     C_3   0.910412 0.831838 0.251468 0.260381
H2    H     H_    0.040799 0.849992 0.286814 0.168490
H3    H     H_    0.830893 0.809258 0.300547 0.075712
C3    C     C_3   0.856823 0.932080 0.216668 -0.730039
H4    H     H_    0.894987 0.999625 0.271709 0.178016
C4    C     C_3   0.665125 0.266180 0.264198 0.383199
H5    H     H_    0.578775 0.298400 0.304399 0.118356
C5    C     C_3   0.563475 0.195747 0.180696 -0.949462
H6    H     H_    0.481748 0.131647 0.202360 0.309212
H7    H     H_    0.485314 0.242519 0.138597 0.222692
H8    H     H_    0.645120 0.159248 0.139200 0.277998
Ba1   Ba    Ba6+2 0.153570 0.551840 0.456200 1.588747
C6    C     C_3   0.008684 0.742885 0.750968 0.292138
H9    H     H_    0.091912 0.697084 0.790344 0.127173
H10   H     H_    0.894057 0.690229 0.720522 0.118722
C7    C     C_3   0.984602 0.829623 0.821403 -0.974294
H11   H     H_    0.105471 0.866725 0.863313 0.270334
H12   H     H_    0.903043 0.796338 0.866111 0.251769
H13   H     H_    0.929543 0.891003 0.786564 0.260900
C8    C     C_3   0.236921 0.228592 0.349876 0.408726
H14   H     H_    0.114077 0.241537 0.363594 0.119131
H15   H     H_    0.335306 0.260939 0.408904 0.171212
C9    C     C_3   0.240643 0.110288 0.333761 -0.957241
H16   H     H_    0.168117 0.077083 0.266598 0.252965
H17   H     H_    0.188121 0.069973 0.386188 0.238610
H18   H     H_    0.369291 0.095272 0.335757 0.269384
P4    P     P_3+3 0.811620 0.252200 0.429030 0.495121
O12   O     O_2   0.642110 0.235770 0.456130 -0.392038
O13   O     O_3   0.911620 0.370210 0.454030 -0.321580
O14   O     O_3   0.444310 0.304480 0.619110 -0.375741
O15   O     O_3   0.768961 0.206846 0.312550 -0.589054
P5    P     P_3+3 0.918498 0.366402 0.781365 0.486835
O16   O     O_3   0.400800 0.556680 0.607590 -0.290911
O17   O     O_3   0.875770 0.359510 0.664420 -0.415516
O18   O     O_2   0.801201 0.435514 0.819788 -0.345516
O19   O     O_3   0.863900 0.239586 0.809746 -0.489362
Ba2   Ba    Ba6+2 0.656590 0.448150 0.543720 1.605421
P6    P     P_3+3 0.414576 0.830791 0.372241 0.470613
C10   C     C_3   0.410960 0.763851 0.205489 0.292965
H19   H     H_    0.546075 0.765973 0.226515 0.015510
H20   H     H_    0.448622 0.715935 0.070881 0.127623
O20   O     O_3   0.409490 0.443300 0.392340 -0.363273
C11   C     C_3   0.589874 0.802019 0.709913 0.398122
H21   H     H_    0.709433 0.781985 0.701173 0.047045
C12   C     C_3   0.611731 0.911068 0.765940 -1.027252
H22   H     H_    0.678035 0.909207 0.835669 0.287252
H23   H     H_    0.682012 0.971422 0.733941 0.235108
H24   H     H_    0.489296 0.934558 0.771345 0.289808
P7    P     P_3+3 0.500751 0.593737 0.720326 0.486129
O21   O     O_2   0.674250 0.555830 0.719690 -0.395299
O22   O     O_3   0.507452 0.729756 0.757067 -0.569030
H25   H     H_    0.720378 0.921460 0.199087 0.222516
C13   C     C_3   0.948845 0.168002 0.765632 0.474792
H26   H     H_    0.859407 0.114596 0.711915 0.093734
H27   H     H_    0.046574 0.205309 0.732253 -0.007461
C14   C     C_3   0.029453 0.103193 0.833920 -1.040486
H28   H     H_    0.099723 0.048594 0.799721 0.240805
H29   H     H_    0.117358 0.155240 0.888949 0.261632
H30   H     H_    0.934076 0.058135 0.864470 0.294248
P8    P     P_3+3 0.403413 0.165385 0.617652 0.444766
C15   C     C_3   0.451204 0.211555 0.790705 0.457956
H31   H     H_    0.321033 0.225367 0.778907 -0.008413
O23   O     O_2   0.512453 0.116011 0.556353 -0.376497
O24   O     O_3   0.478597 0.133335 0.724900 -0.533021
H32   H     H_    0.533161 0.287296 0.790562 0.163568
H33   H     H_    0.464466 0.235014 0.936066 0.226832
C16   C     C_3   0.489541 0.175174 0.883520 -0.851436
H34   H     H_    0.621309 0.164797 0.899278 0.301006
H35   H     H_    0.411151 0.098402 0.884943 0.241547
C17   C     C_R   0.076729 0.182815 0.541370 -0.478381
C18   C     C_R   0.734813 0.815843 0.461426 -0.447400
C19   C     C_R   0.696469 0.993452 0.430094 -0.198640
C20   C     C_R   0.633702 0.885083 0.424174 0.202103
C21   C     C_R   0.892904 0.851718 0.512052 0.217066
C22   C     C_R   0.956819 0.963343 0.520099 -0.058768
C23   C     C_R   0.856898 0.035794 0.478359 -0.037159
C24   C     C_R   0.919268 0.148462 0.489075 0.209380
C25   C     C_R   0.180737 0.112304 0.572994 0.129425
C26   C     C_R   0.118996 0.004267 0.565760 -0.187808
H36   H     H_    0.617481 0.044045 0.398182 0.182654
H37   H     H_    0.199875 0.953401 0.595487 0.181533
H38   H     H_    0.687328 0.732026 0.452909 0.198135
C27   C     C_R   0.216561 0.490653 0.768252 -0.172146
C28   C     C_R   0.135729 0.424691 0.820348 0.264653
C29   C     C_R   0.223352 0.398162 0.899444 -0.375234
C30   C     C_R   0.376737 0.457925 0.942590 0.170960
C31   C     C_R   0.458864 0.520329 0.886039 -0.255278
C32   C     C_R   0.386236 0.523786 0.795655 0.267296
C33   C     C_R   0.613534 0.507643 0.079484 -0.305351
C34   C     C_R   0.664992 0.552759 0.170989 0.207200
C35   C     C_R   0.406768 0.469809 0.205084 0.226900
C36   C     C_R   0.342126 0.439343 0.111152 0.102919
C37   C     C_R   0.444073 0.464523 0.044989 0.067377
C38   C     C_R   0.558726 0.535086 0.232117 -0.505982
H39   H     H_    0.166079 0.331504 0.924644 0.164817
H40   H     H_    0.575795 0.570362 0.910875 0.128499
H41   H     H_    0.602178 0.563399 0.303234 0.187670
C39   C     C_2   0.196767 0.735673 0.062318 0.641638
H42   H     H_    0.104905 0.782876 0.079175 0.082517
O25   O     O_2   0.153932 0.654743 0.008685 -0.619590
C40   C     C_2   0.497323 0.807999 0.618145 0.545417
H43   H     H_    0.444894 0.878481 0.602736 0.044122
O26   O     O_2   0.486115 0.735094 0.558265 -0.530270
C41   C     C_2   0.430801 0.879718 0.080060 0.532224
H44   H     H_    0.528898 0.891292 0.041247 0.088317
O27   O     O_2   0.364649 0.954990 0.103051 -0.587457
C42   C     C_2   0.134208 0.294598 0.570054 0.736531
H45   H     H_    0.148572 0.322370 0.640985 -0.089675
O28   O     O_2   0.194830 0.350572 0.520080 -0.555804
C43   C     C_2   0.741854 0.488119 0.025545 0.548748
H46   H     H_    0.841297 0.550699 0.022419 0.096219
O29   O     O_2   0.738189 0.400010 0.985278 -0.571840
C44   C     C_3   0.170329 0.375816 0.083860 -0.774242
H47   H     H_    0.089906 0.418332 0.039018 0.267410
H48   H     H_    0.179941 0.294104 0.055263 0.210704
H49   H     H_    0.100274 0.361672 0.137536 0.262568
C45   C     C_3   0.121421 0.532627 0.688871 -0.667793
H50   H     H_    0.181124 0.611449 0.679666 0.233292
H51   H     H_    0.111008 0.483332 0.624334 0.265648
H52   H     H_    0.995441 0.540988 0.698894 0.225516
C46   C     C_2   0.930622 0.958377 0.135931 0.707357
H53   H     H_    0.062255 0.962404 0.138084 0.066406
O30   O     O_2   0.843257 0.974903 0.067152 -0.608071
C47   C     C_2   0.772064 0.353840 0.237318 0.475423
H54   H     H_    0.802930 0.350791 0.170180 0.029167
O31   O     O_2   0.833449 0.428293 0.294563 -0.503761

loop_
_geom_bond_atom_site_label_1
_geom_bond_atom_site_label_2
_geom_bond_distance
_ccdc_geom_bond_type
C10   H19   1.111047 S    
C19   H36   1.076548 S    
C43   H46   1.083516 S    
C12   H24   1.111914 S    
C30   C31   1.424379 A    
P3    O8    1.760414 S    
P8    O23   1.545095 D    
O6    C10   1.412620 S    
O14   P8    1.768348 S    
C39   H42   1.081153 S    
C42   H45   1.075472 S    
C9    H17   1.107484 S    
C15   H31   1.107709 S    
C46   O30   1.220836 D    
P1    C21   1.908602 S    
O16   P7    1.753879 S    
C33   C43   1.476486 S    
O7    Ba1   2.836703 S    
C1    C39   1.502064 S    
O2    Ba1   2.924254 S    
P2    O20   1.565578 S    
C47   O31   1.213077 D    
C6    C7    1.513821 S    
P2    O10   1.755323 S    
C40   O26   1.213751 D    
P3    O9    1.548024 D    
C42   O28   1.218066 D    
C15   C16   1.522122 S    
C4    C47   1.472741 S    
C2    C3    1.531386 S    
C36   C37   1.448324 A    
C27   C45   1.513239 S    
C13   H27   1.107293 S    
P1    O1    1.524921 D    
Ba1   O16   2.800404 S    
C12   H23   1.107414 S    
C23   C24   1.451616 A    
O19   C13   1.408884 S    
C17   C25   1.398371 A    
P8    C25   1.870443 S    
O12   Ba2   2.879097 S    
P4    Ba2   3.415266 S    
P5    O18   1.543275 D    
C19   C23   1.416683 A    
O11   C2    1.405948 S    
P7    O22   1.765034 S    
C45   H52   1.099664 S    
C35   C36   1.425600 A    
C5    H8    1.111861 S    
O8    Ba1   2.796929 S    
C1    C10   1.543581 S    
C31   C32   1.407059 A    
C44   H49   1.090491 S    
C11   O22   1.402836 S    
C19   C20   1.406348 A    
P5    O17   1.734852 S    
C27   C32   1.396686 A    
C46   H53   1.083088 S    
O13   Ba2   2.925166 S    
C11   H21   1.083815 S    
C11   C40   1.485496 S    
P2    C35   1.863961 S    
C25   C26   1.398589 A    
C14   H30   1.109454 S    
H1    C10   1.110802 S    
O3    Ba1   2.837725 S    
C41   O27   1.220121 D    
C9    H18   1.107299 S    
P5    C28   1.833463 S    
Ba1   O13   2.861493 S    
C11   C12   1.529352 S    
O17   Ba2   2.797525 S    
P1    O5    1.778020 S    
C29   C30   1.413416 A    
O4    P6    1.549051 D    
C5    H6    1.107363 S    
P6    C20   1.868704 S    
C14   H29   1.106223 S    
C9    H16   1.101666 S    
C2    H3    1.107859 S    
C31   H40   1.076976 S    
P1    O2    1.601843 S    
C7    H12   1.110671 S    
C3    C46   1.502762 S    
C13   C14   1.518207 S    
P4    O12   1.525277 D    
C7    H13   1.099882 S    
C6    H9    1.105922 S    
C17   C24   1.400887 A    
P1    Ba1   3.414786 S    
P3    O11   1.751829 S    
C16   H34   1.110202 S    
C15   H32   1.110281 S    
Ba2   O20   2.799634 S    
P3    C34   1.868858 S    
C2    H2    1.108567 S    
C47   H54   1.085173 S    
Ba2   O21   2.836892 S    
P4    O13   1.601864 S    
C38   H41   1.082789 S    
C36   C44   1.515763 S    
P2    O7    1.519338 D    
C16   H35   1.110439 S    
P7    O21   1.582723 D    
C18   C20   1.399568 A    
C45   H50   1.098525 S    
C35   C38   1.392443 A    
C4    C5    1.525574 S    
O10   C8    1.399172 S    
C22   C23   1.451284 A    
C41   H44   1.084002 S    
C44   H47   1.108260 S    
C34   C38   1.394865 A    
C15   O24   1.404752 S    
P2    Ba1   3.399248 S    
C33   C37   1.431872 A    
C8    H14   1.104725 S    
C43   O29   1.220050 D    
O3    P6    1.751873 S    
C3    H25   1.107446 S    
C8    C9    1.516588 S    
P8    O24   1.749508 S    
C5    H7    1.110789 S    
C14   H28   1.109484 S    
C39   O25   1.220956 D    
Ba1   Ba2   4.614308 S    
C26   H37   1.075920 S    
Ba1   O20   2.928392 S    
C29   H39   1.059698 S    
C33   C34   1.414564 A    
P7    C32   1.831253 S    
C27   C28   1.396842 A    
C7    H11   1.111611 S    
C18   H38   1.081388 S    
C8    H15   1.107850 S    
C6    H10   1.092660 S    
C40   H43   1.084772 S    
O2    Ba2   2.862132 S    
C21   C22   1.444534 A    
O16   Ba2   2.927472 S    
O14   Ba2   2.837076 S    
C28   C29   1.392427 A    
P4    C24   1.922566 S    
C4    O15   1.393132 S    
C1    H20   1.113780 S    
C12   H22   1.109842 S    
C13   H26   1.108579 S    
C22   C26   1.412872 A    
P5    O19   1.746653 S    
O5    C6    1.400547 S    
C3    H4    1.109669 S    
H33   C16   1.110105 S    
C18   C21   1.398538 A    
C17   C42   1.445873 S    
C45   H51   1.089326 S    
C1    C41   1.501874 S    
C4    H5    1.106843 S    
C30   C37   1.545741 S    
O1    Ba1   2.878685 S    
O6    P6    1.761219 S    
P4    O15   1.757043 S    
C44   H48   1.109060 S    
