data_mof_unit_34264.cif
_audit_creation_date              2012-12-10T17:08:45-0500
_audit_creation_method            fapswitch 2.2
_symmetry_space_group_name_H-M    P1
_symmetry_Int_Tables_number       1
_space_group_crystal_system       triclinic
_cell_length_a                    27.805824
_cell_length_b                    11.029396
_cell_length_c                    9.816466
_cell_angle_alpha                 111.063362
_cell_angle_beta                  98.011795
_cell_angle_gamma                 91.203187
_cell_volume                      2773.70939738

loop_
_atom_site_label
_atom_site_type_symbol
_atom_type_description
_atom_site_fract_x
_atom_site_fract_y
_atom_site_fract_z
_atom_type_partial_charge
C1    C     C_R   0.496478 0.254100 0.440655 0.871259
C2    C     C_R   0.503522 0.745900 0.559345 0.871262
C3    C     C_R   0.102022 0.499136 0.500506 -0.048752
C4    C     C_R   0.897977 0.500927 0.499491 -0.048755
C5    C     C_R   0.124924 0.381493 0.469404 0.002999
C6    C     C_R   0.875071 0.618561 0.530552 0.003012
C7    C     C_R   0.096552 0.264366 0.425204 -0.187264
C8    C     C_R   0.903439 0.735690 0.574720 -0.187282
C9    C     C_R   0.130389 0.614871 0.528634 -0.092176
C10   C     C_R   0.869614 0.385195 0.471407 -0.092173
C11   C     C_R   0.354645 0.498879 0.503928 -0.040854
C12   C     C_R   0.645355 0.501125 0.496074 -0.040848
C13   C     C_R   0.971917 0.380860 0.475160 -0.056379
C14   C     C_R   0.028084 0.619214 0.524848 -0.056377
C15   C     C_R   0.977231 0.619362 0.532970 0.086141
C16   C     C_R   0.022767 0.380709 0.467013 0.086137
C17   C     C_R   0.949201 0.499940 0.500773 0.000641
C18   C     C_R   0.050799 0.500131 0.499224 0.000636
C19   C     C_R   0.943114 0.267743 0.464984 0.471598
C20   C     C_R   0.056893 0.732337 0.535062 0.471605
C21   C     C_R   0.892419 0.271380 0.458585 -0.226325
C22   C     C_R   0.107589 0.728696 0.541484 -0.226311
C23   C     C_R   0.407491 0.499741 0.501361 0.801742
C24   C     C_R   0.592509 0.500258 0.498638 0.801738
C25   C     C_R   0.046423 0.263800 0.418260 -0.151950
C26   C     C_R   0.953570 0.736267 0.581684 -0.151997
C27   C     C_2   0.494563 0.114768 0.407168 -0.344930
C28   C     C_2   0.505437 0.885232 0.592832 -0.344928
C29   C     C_2   0.500898 0.069566 0.516626 -0.145577
C30   C     C_2   0.499102 0.930434 0.483374 -0.145578
C31   C     C_2   0.504213 0.510575 0.081224 -0.074155
C32   C     C_2   0.495787 0.489425 0.918776 -0.074168
C33   C     C_R   0.175671 0.383093 0.475064 0.535481
C34   C     C_R   0.824324 0.616954 0.524888 0.535487
C35   C     C_R   0.181096 0.612470 0.533375 0.564241
C36   C     C_R   0.818909 0.387590 0.466679 0.564233
C37   C     C_R   0.271974 0.479554 0.375636 -0.106695
C38   C     C_R   0.728022 0.520162 0.624292 -0.106696
C39   C     C_R   0.321980 0.480468 0.373929 -0.204651
C40   C     C_R   0.678015 0.519235 0.625996 -0.204646
C41   C     C_R   0.336266 0.515995 0.635532 -0.213364
C42   C     C_R   0.663739 0.484323 0.364551 -0.213355
C43   C     C_R   0.286124 0.515026 0.636839 -0.105697
C44   C     C_R   0.713882 0.485321 0.363251 -0.105680
C45   C     C_R   0.253970 0.496897 0.506904 0.362419
C46   C     C_R   0.746031 0.503142 0.493107 0.362416
Cu1   Cu    Cu3+1 0.508480 0.521810 0.644910 0.948296
Cu2   Cu    Cu3+1 0.491520 0.478190 0.355090 0.948300
H1    H     H_    0.360548 0.530187 0.737257 0.158074
H2    H     H_    0.639461 0.470367 0.262890 0.158038
H3    H     H_    0.512027 0.951332 0.707724 0.152682
H4    H     H_    0.487973 0.048667 0.292275 0.152680
H5    H     H_    0.467411 0.417009 0.845956 0.159387
H6    H     H_    0.532589 0.582990 0.154044 0.159366
H7    H     H_    0.547947 0.622665 0.934296 0.194093
H8    H     H_    0.452053 0.377336 0.065703 0.194090
H9    H     H_    0.272233 0.528671 0.738639 0.135803
H10   H     H_    0.727778 0.471924 0.261516 0.135793
H11   H     H_    0.112800 0.171810 0.390752 0.188153
H12   H     H_    0.887189 0.828242 0.609141 0.188144
H13   H     H_    0.664998 0.532461 0.728985 0.162011
H14   H     H_    0.334992 0.466990 0.270873 0.162010
H15   H     H_    0.752866 0.533714 0.724800 0.136039
H16   H     H_    0.247126 0.465767 0.275065 0.136039
H17   H     H_    0.870898 0.186285 0.452669 0.197103
H18   H     H_    0.129114 0.813796 0.547432 0.197104
H19   H     H_    0.027074 0.169325 0.366746 0.194378
H20   H     H_    0.972913 0.830748 0.633185 0.194406
H21   H     H_    0.492527 0.864623 0.368281 0.181092
H22   H     H_    0.507474 0.135377 0.631719 0.181093
N1    N     N_R   0.202576 0.497816 0.507991 -0.470476
N2    N     N_R   0.797424 0.502233 0.492015 -0.470478
N3    N     N_2   0.478780 0.445430 0.137360 -0.285013
N4    N     N_2   0.521220 0.554570 0.862640 -0.285022
O1    O     O_R   0.504520 0.332330 0.577400 -0.578566
O2    O     O_R   0.495480 0.667670 0.422600 -0.578565
O3    O     O_R   0.490210 0.295500 0.332650 -0.571412
O4    O     O_R   0.509790 0.704500 0.667350 -0.571411
O5    O     O_R   0.437420 0.518430 0.622370 -0.581993
O6    O     O_R   0.562580 0.481570 0.377630 -0.581983
O7    O     O_R   0.423110 0.481600 0.377610 -0.576388
O8    O     O_R   0.576890 0.518400 0.622390 -0.576386
O9    O     O_2   0.197929 0.271009 0.446813 -0.533334
O10   O     O_2   0.802061 0.729026 0.553094 -0.533332
O11   O     O_2   0.791291 0.276524 0.438074 -0.532011
O12   O     O_2   0.208719 0.723539 0.562026 -0.532011
O13   O     O_3   0.965266 0.163922 0.489470 -0.598928
C47   C     C_3   0.944338 0.042635 0.384002 -0.361044
H23   H     H_    0.932579 0.046314 0.272318 0.159330
H24   H     H_    0.913503 0.006536 0.423476 0.192362
H25   H     H_    0.972152 0.970475 0.371919 0.232649
O14   O     O_3   0.034748 0.836172 0.510590 -0.598947
C48   C     C_3   0.055671 0.957446 0.616101 -0.361043
H26   H     H_    0.086515 0.993559 0.576675 0.192381
H27   H     H_    0.067417 0.953738 0.727778 0.159327
H28   H     H_    0.027860 0.029610 0.628178 0.232637

loop_
_geom_bond_atom_site_label_1
_geom_bond_atom_site_label_2
_ccdc_geom_bond_type
O13   C47   S    
C48   H26   S    
C45   N1    S    
C1    O3    A    
C14   C18   A    
C25   H19   S    
Cu1   O5    S    
C37   H16   S    
C20   O14   S    
C34   O10   S    
C3    C9    A    
C19   C21   A    
C29   H22   S    
C19   O13   S    
C32   N4    D    
C35   O12   S    
C9    C22   A    
C31   N3    D    
C27   C29   D    
C8    C26   A    
Cu2   O7    S    
C3    C18   A    
Cu1   O8    S    
C7    H11   S    
C24   O8    A    
C22   H18   S    
C12   C42   A    
H7    N4    S    
C24   O6    A    
C31   C32   S    
C44   H10   S    
C5    C33   A    
C46   N2    S    
C35   N1    A    
C48   H27   S    
C41   C43   A    
C42   C44   A    
C41   H1    S    
C44   C46   A    
C10   C21   A    
C13   C19   A    
C1    O1    A    
C14   C20   A    
C4    C6    A    
C5    C7    A    
C33   N1    A    
C15   C26   A    
C6    C8    A    
C40   H13   S    
C6    C34   A    
Cu2   O3    S    
C12   C40   A    
C29   C30   S    
C2    O4    A    
C33   O9    S    
Cu1   Cu2   S    
C47   H25   S    
C11   C39   A    
C43   C45   A    
C42   H2    S    
C4    C17   A    
C47   H24   S    
C48   H28   S    
C37   C45   A    
C34   N2    A    
C32   H5    S    
C30   H21   S    
C2    O2    A    
C27   H4    S    
C1    C27   S    
C38   H15   S    
C16   C25   A    
C15   C17   A    
C39   H14   S    
H8    N3    S    
C23   O7    A    
C21   H17   S    
Cu2   N3    S    
Cu1   N4    S    
C20   C22   A    
C3    C5    A    
C10   C36   A    
C36   O11   S    
C12   C24   S    
C7    C25   A    
C13   C17   A    
C26   H20   S    
Cu2   O6    S    
C28   C30   D    
Cu1   O1    S    
C37   C39   A    
C8    H12   S    
C38   C40   A    
C11   C23   S    
O14   C48   S    
C28   H3    S    
C11   C41   A    
C31   H6    S    
C38   C46   A    
C43   H9    S    
Cu2   O2    S    
C47   H23   S    
C16   C18   A    
C13   C16   A    
C9    C35   A    
C14   C15   A    
C2    C28   S    
Cu1   O4    S    
C23   O5    A    
C4    C10   A    
C36   N2    A    
