data_mof_unit_6759.cif
_audit_creation_date              2013-03-05T16:13:33-0500
_audit_creation_method            fapswitch 2.2
_symmetry_space_group_name_H-M    P1
_symmetry_Int_Tables_number       1
_space_group_crystal_system       triclinic
_cell_length_a                    10.607702
_cell_length_b                    9.948478
_cell_length_c                    10.695803
_cell_angle_alpha                 89.834591
_cell_angle_beta                  91.03632
_cell_angle_gamma                 90.116273
_cell_volume                      1128.54179628

loop_
_atom_site_label
_atom_site_type_symbol
_atom_site_description
_atom_site_fract_x
_atom_site_fract_y
_atom_site_fract_z
_atom_type_partial_charge
O1    O     O_R   0.316770 0.614620 0.499990 -0.567842
O2    O     O_R   0.683230 0.614620 0.500010 -0.569835
O3    O     O_R   0.316800 0.385290 0.500000 -0.588619
O4    O     O_R   0.683200 0.385290 0.500000 -0.587644
C1    C     C_R   0.260450 0.499877 0.499319 0.882427
C2    C     C_R   0.739507 0.499958 0.500463 0.858489
O5    O     O_R   0.500000 0.614690 0.316780 -0.594556
O6    O     O_R   0.500000 0.614690 0.683220 -0.570632
O7    O     O_R   0.500020 0.385360 0.316780 -0.595312
O8    O     O_R   0.499980 0.385360 0.683220 -0.611422
C3    C     C_R   0.506025 0.500113 0.260470 0.879793
C4    C     C_R   0.501298 0.499914 0.739869 0.911172
Zn1   Zn    Zn3+2 0.500000 0.653120 0.500000 1.113963
Zn2   Zn    Zn3+2 0.500000 0.346880 0.500000 1.077088
C5    C     C_R   0.550559 0.617735 0.064228 -0.062817
C6    C     C_R   0.538850 0.618379 0.936853 -0.023595
C7    C     C_R   0.528243 0.498823 0.129590 -0.096133
C8    C     C_R   0.517122 0.498965 0.871968 -0.027065
C9    C     C_R   0.527077 0.375978 0.065493 -0.110005
C10   C     C_R   0.522133 0.376045 0.936459 -0.114757
H1    H     H_    0.519912 0.280695 0.113941 0.236032
H2    H     H_    0.513246 0.280577 0.888690 0.217765
C11   C     C_3   0.478767 0.755257 0.933583 0.197922
C12   C     C_3   0.495484 0.755181 0.075512 0.155815
H3    H     H_    0.535721 0.831930 0.884416 0.188310
H4    H     H_    0.406793 0.755206 0.128278 0.203743
C13   C     C_R   0.062592 0.421419 0.411919 -0.076726
C14   C     C_R   0.933144 0.420592 0.412901 -0.097837
H5    H     H_    0.111516 0.363454 0.342422 0.207242
H6    H     H_    0.880844 0.360725 0.345060 0.175061
C15   C     C_R   0.871934 0.499622 0.500332 -0.019966
C16   C     C_R   0.127929 0.499868 0.499312 -0.037253
C17   C     C_R   0.937276 0.577872 0.587770 -0.087445
C18   C     C_R   0.066596 0.578344 0.586986 -0.088101
H7    H     H_    0.888496 0.635990 0.657224 0.203322
H8    H     H_    0.118586 0.637788 0.655078 0.205994
C19   C     C_R   0.599141 0.071918 0.550842 0.213805
C20   C     C_R   0.401010 0.071777 0.449127 0.252933
C21   C     C_R   0.600089 0.928624 0.549033 0.267550
C22   C     C_R   0.399288 0.928713 0.452437 0.255947
N1    N     N_R   0.500000 0.857200 0.500000 -0.200179
N2    N     N_R   0.500000 0.142810 0.500000 -0.219050
S1    S     S_3+6 0.315421 0.757037 0.886418 0.038039
O9    O     O_2   0.248939 0.866297 0.956026 -0.208057
O10   O     O_2   0.305005 0.785516 0.748663 -0.277180
O11   O     O_3   0.247602 0.608143 0.918325 -0.572626
H9    H     H_    0.157392 0.620052 0.895536 0.384855
S2    S     S_3+6 0.609472 0.875682 0.130328 0.067985
O12   O     O_2   0.547263 0.010792 0.138008 -0.252340
O13   O     O_2   0.658400 0.836652 0.257988 -0.265764
O14   O     O_3   0.731016 0.885801 0.031800 -0.465580
H10   H     H_    0.773152 0.797191 0.037704 0.369493
N3    N     N_R   0.700948 0.141952 0.610961 0.259717
O15   O     O_R   0.811307 0.145366 0.559909 -0.283980
O16   O     O_R   0.688610 0.184913 0.724794 -0.355745
N4    N     N_R   0.298010 0.141426 0.390888 0.249474
O17   O     O_R   0.312089 0.195412 0.281191 -0.347621
O18   O     O_R   0.185407 0.130008 0.435983 -0.302737
N5    N     N_R   0.706062 0.859339 0.601794 0.249608
O19   O     O_R   0.815294 0.868433 0.549010 -0.279053
O20   O     O_R   0.697893 0.802526 0.710889 -0.408955
N6    N     N_R   0.288955 0.860317 0.408178 0.256258
O21   O     O_R   0.270917 0.844878 0.288661 -0.335753
O22   O     O_R   0.192643 0.851132 0.481332 -0.277619

loop_
_geom_bond_atom_site_label_1
_geom_bond_atom_site_label_2
_geom_bond_distance
_ccdc_geom_bond_type
O5    C3    1.292972 A    
O7    Zn2   1.995645 S    
C15   C17   1.392720 A    
C16   C18   1.393031 A    
N6    O21   1.298647 A    
C13   H5    1.082612 S    
S1    O10   1.501732 D    
C8    C10   1.402892 A    
C9    C10   1.380162 A    
O6    C4    1.291085 A    
S1    O9    1.503307 D    
C1    C16   1.405736 S    
C21   N5    1.426603 S    
Zn1   N1    2.030285 S    
C17   C18   1.371965 A    
C22   N6    1.426692 S    
C19   N3    1.428137 S    
N5    O19   1.300944 A    
C21   N1    1.373361 A    
C5    C12   1.494107 S    
N3    O15   1.301006 A    
C20   C22   1.423698 A    
O7    C3    1.291201 A    
C12   H4    1.105821 S    
O2    C2    1.288505 A    
O3    Zn2   1.981304 S    
O8    C4    1.292172 A    
O1    C1    1.287304 A    
S2    O13   1.502216 D    
C22   N1    1.373899 A    
C7    C9    1.402934 A    
N4    O18   1.300864 A    
C20   N2    1.369899 A    
C6    C11   1.504711 S    
C18   H8    1.082099 S    
N3    O16   1.300454 A    
O4    Zn2   1.979782 S    
C19   C21   1.425805 A    
S1    O11   1.682203 S    
N5    O20   1.299297 A    
O4    C2    1.286588 A    
O1    Zn1   1.980265 S    
C14   C15   1.393740 A    
C11   C12   1.525185 S    
N6    O22   1.300949 A    
O14   H10   0.990520 S    
C12   S2    1.793156 S    
O6    Zn1   1.995547 S    
O3    C1    1.288195 A    
O5    Zn1   1.997714 S    
C11   H3    1.109359 S    
C20   N4    1.427532 S    
N4    O17   1.299913 A    
C6    C8    1.394258 A    
O8    Zn2   1.997814 S    
C4    C8    1.419821 S    
C19   N2    1.370844 A    
C5    C7    1.394393 A    
O2    Zn1   1.981789 S    
O11   H9    0.990456 S    
S2    O12   1.501709 D    
C2    C15   1.404777 S    
C17   H7    1.082353 S    
C13   C16   1.393473 A    
C9    H1    1.082195 S    
Zn2   N2    2.030187 S    
S2    O14   1.682568 S    
C3    C7    1.423864 S    
C5    C6    1.365787 A    
C10   H2    1.082906 S    
C14   H6    1.084261 S    
C13   C14   1.373385 A    
C11   S1    1.795991 S    
