data_mof_unit_46872.cif
_audit_creation_date              2012-10-26T18:59:36-0400
_audit_creation_method            fapswitch 2.2
_symmetry_space_group_name_H-M    P1
_symmetry_Int_Tables_number       1
_space_group_crystal_system       triclinic
_cell_length_a                    23.523656
_cell_length_b                    10.869492
_cell_length_c                    9.607766
_cell_angle_alpha                 90.811683
_cell_angle_beta                  90.641234
_cell_angle_gamma                 91.654815
_cell_volume                      2455.1751894

loop_
_atom_site_label
_atom_site_type_symbol
_atom_type_description
_atom_site_fract_x
_atom_site_fract_y
_atom_site_fract_z
_atom_type_partial_charge
C1    C     C_R   0.498324 0.262394 0.499157 0.586927
C2    C     C_R   0.122291 0.619352 0.521527 0.461354
C3    C     C_R   0.238363 0.470938 0.613420 0.387856
C4    C     C_R   0.391094 0.501046 0.499391 0.544465
C5    C     C_R   0.297575 0.467917 0.614993 -0.105064
C6    C     C_R   0.328632 0.504817 0.497955 -0.115077
C7    C     C_R   0.299505 0.546647 0.380086 -0.128082
C8    C     C_R   0.240271 0.549559 0.378404 0.400940
C9    C     C_R   0.209564 0.511354 0.494957 0.256960
C10   C     C_R   0.762314 0.425890 0.581543 -0.095795
C11   C     C_R   0.702823 0.417205 0.583452 -0.076632
C12   C     C_R   0.966576 0.298449 0.414888 0.403523
C13   C     C_R   0.671165 0.498781 0.501269 -0.040287
C14   C     C_R   0.699836 0.584020 0.416871 -0.106628
C15   C     C_R   0.758986 0.588987 0.412645 0.448216
C16   C     C_R   0.497065 0.737379 0.500377 0.608198
C17   C     C_R   0.790575 0.510154 0.495451 0.225358
C18   C     C_R   0.487591 0.065234 0.622773 -0.075362
C19   C     C_R   0.490811 0.129041 0.497730 -0.013713
C20   C     C_R   0.482146 0.061621 0.372347 0.379862
C21   C     C_R   0.480374 0.932950 0.373386 0.419866
C22   C     C_R   0.488058 0.869900 0.499597 -0.015064
C23   C     C_R   0.026096 0.294664 0.417517 -0.000488
C24   C     C_R   0.485406 0.938165 0.623581 -0.088577
C25   C     C_3   0.518867 0.932789 0.756167 0.381717
C26   C     C_3   0.523208 0.073670 0.753404 0.398562
C27   C     C_R   0.548470 0.526717 0.075385 0.139197
C28   C     C_R   0.608748 0.498211 0.500576 0.544090
C29   C     C_R   0.455594 0.447710 0.070360 0.105453
C30   C     C_R   0.454999 0.453204 0.922370 0.471640
C31   C     C_R   0.549278 0.523882 0.928974 0.043512
C32   C     C_3   0.588808 0.635358 0.929825 -0.119396
C33   C     C_3   0.586869 0.636644 0.088301 0.273526
C34   C     C_R   0.058840 0.403095 0.454966 -0.008959
C35   C     C_R   0.881493 0.617335 0.529753 0.453246
C36   C     C_R   0.878701 0.409842 0.446833 0.435096
C37   C     C_R   0.938469 0.406885 0.449190 0.030543
C38   C     C_R   0.970255 0.514845 0.486567 -0.095932
C39   C     C_R   0.941571 0.624038 0.520039 0.034956
C40   C     C_3   0.675883 0.315976 0.668074 -0.315723
C41   C     C_3   0.484131 0.874574 0.874289 -0.321116
C42   C     C_3   0.496316 0.144135 0.874140 -0.303606
C43   C     C_3   0.407553 0.374733 0.134726 -0.267733
C44   C     C_3   0.052775 0.173485 0.379281 -0.295607
C45   C     C_R   0.030474 0.513729 0.488491 -0.062367
C46   C     C_3   0.648670 0.611914 0.876382 -0.381593
C47   C     C_3   0.063973 0.839255 0.637602 -0.330072
C48   C     C_3   0.945620 0.859068 0.539866 -0.300561
C49   C     C_R   0.062227 0.622521 0.526614 0.045424
C50   C     C_R   0.033123 0.730892 0.565413 0.007585
C51   C     C_R   0.973533 0.734876 0.546335 0.002538
C52   C     C_R   0.119053 0.405711 0.460999 0.467059
Cu1   Cu    Cu3+1 0.500000 0.499980 0.640670 1.036522
Cu2   Cu    Cu3+1 0.500000 0.500020 0.359330 1.066521
F1    F     F_    0.935886 0.194206 0.380507 -0.590161
F2    F     F_    0.212655 0.589359 0.263531 -0.569176
F3    F     F_    0.785569 0.669803 0.326901 -0.580882
F4    F     F_    0.478375 0.118600 0.247913 -0.622269
F5    F     F_    0.473718 0.871624 0.250017 -0.546159
F6    F     F_    0.571160 0.880454 0.735935 -0.579608
F7    F     F_    0.578100 0.116092 0.727753 -0.592000
F8    F     F_    0.410217 0.402454 0.850280 -0.646585
F9    F     F_    0.559767 0.738104 0.140665 -0.564529
F10   F     F_    0.208879 0.434141 0.726801 -0.572528
H1    H     H_    0.676263 0.647855 0.354803 0.159534
H2    H     H_    0.476880 0.774614 0.854838 0.163021
H3    H     H_    0.507456 0.887881 0.974517 0.244253
H4    H     H_    0.441655 0.915799 0.883025 0.112556
H5    H     H_    0.513969 0.113165 0.974877 0.193553
H6    H     H_    0.507529 0.243104 0.865871 0.180011
H7    H     H_    0.449260 0.132190 0.873741 0.124034
H8    H     H_    0.420895 0.327299 0.229376 0.204129
H9    H     H_    0.371302 0.435023 0.154605 0.144185
H10   H     H_    0.392107 0.299013 0.063931 0.173739
H11   H     H_    0.080594 0.185643 0.287628 0.189047
H12   H     H_    0.569553 0.715747 0.883213 0.243596
H13   H     H_    0.077184 0.138915 0.469484 0.167313
H14   H     H_    0.021243 0.099594 0.350013 0.182694
H15   H     H_    0.650042 0.622539 0.762225 0.198123
H16   H     H_    0.679146 0.681511 0.922355 0.183296
H17   H     H_    0.662720 0.518863 0.904949 0.126243
H18   H     H_    0.093432 0.806069 0.719024 0.197961
H19   H     H_    0.087316 0.895881 0.560428 0.181065
H20   H     H_    0.034765 0.899429 0.695179 0.124193
H21   H     H_    0.912630 0.858754 0.456284 0.220253
H22   H     H_    0.926769 0.882557 0.641921 0.188924
H23   H     H_    0.627556 0.617239 0.142138 0.118927
H24   H     H_    0.976231 0.933671 0.510784 0.132245
H25   H     H_    0.318947 0.435510 0.707125 0.232300
H26   H     H_    0.322508 0.578726 0.290047 0.176081
H27   H     H_    0.786999 0.364566 0.644657 0.160583
H28   H     H_    0.629324 0.307411 0.653027 0.217137
H29   H     H_    0.693634 0.226348 0.636476 0.198463
H30   H     H_    0.685433 0.332450 0.780228 0.145781
N1    N     N_R   0.851700 0.512871 0.489689 -0.392037
N2    N     N_R   0.148598 0.512203 0.492605 -0.339666
N3    N     N_R   0.500360 0.500930 0.147930 -0.228131
N4    N     N_R   0.500360 0.500890 0.852020 -0.246453
O1    O     O_R   0.500000 0.319640 0.618810 -0.483999
O2    O     O_R   0.582120 0.500020 0.618760 -0.511994
O3    O     O_R   0.582120 0.500060 0.381180 -0.503702
O4    O     O_2   0.852892 0.711881 0.584586 -0.452638
O5    O     O_2   0.847433 0.310602 0.402271 -0.379113
O6    O     O_2   0.148675 0.303769 0.435108 -0.477131
O7    O     O_2   0.154794 0.722414 0.541509 -0.472318
O8    O     O_R   0.500010 0.319680 0.381230 -0.470969
O9    O     O_R   0.417880 0.499940 0.618820 -0.430322
O10   O     O_R   0.417880 0.499980 0.381240 -0.543154
O11   O     O_R   0.499990 0.680320 0.618770 -0.505064
O12   O     O_R   0.500000 0.680360 0.381190 -0.379930

loop_
_geom_bond_atom_site_label_1
_geom_bond_atom_site_label_2
_ccdc_geom_bond_type
C43   H9    S    
C39   C51   A    
C43   H8    S    
Cu2   O3    S    
C19   C20   A    
C18   C26   S    
C40   H29   S    
C35   O4    S    
C1    O1    A    
C16   O12   A    
C7    C8    A    
C41   H3    S    
Cu1   Cu2   S    
Cu1   O1    S    
C4    O10   A    
C12   C23   A    
C37   C38   A    
C36   O5    S    
C18   C24   A    
C44   H13   S    
C26   F7    S    
C21   F5    S    
C5    C6    A    
C47   H18   S    
C10   C17   A    
C42   H6    S    
Cu2   O12   S    
C18   C19   A    
C31   N4    A    
C12   C37   A    
C38   C45   A    
C28   O3    A    
C48   C51   S    
C52   O6    S    
C8    C9    A    
C48   H24   S    
Cu2   N3    S    
C17   N1    S    
C25   F6    S    
C47   H19   S    
C41   H4    S    
C1    O8    A    
C28   O2    A    
C43   H10   S    
C21   C22   A    
C29   C43   S    
C15   F3    S    
C8    F2    S    
C16   O11   A    
C47   C50   S    
Cu1   O2    S    
C38   C39   A    
C4    O9    A    
C1    C19   S    
Cu2   O8    S    
C27   C31   A    
C24   C25   S    
C4    C6    S    
C25   C41   S    
C25   C26   S    
C3    F10   S    
C7    H26   S    
C42   H5    S    
C27   C33   S    
C23   C44   S    
C44   H11   S    
C35   C39   A    
C29   C30   A    
C3    C9    A    
C2    C49   A    
C46   H17   S    
Cu1   O9    S    
C31   C32   S    
C45   C49   A    
C33   F9    S    
C23   C34   A    
C50   C51   A    
C13   C28   S    
C34   C45   A    
C47   H20   S    
C40   H28   S    
C9    N2    S    
C6    C7    A    
C29   N3    A    
C10   H27   S    
C30   F8    S    
C48   H22   S    
C20   F4    S    
C26   C42   S    
Cu1   O11   S    
C15   C17   A    
C27   N3    A    
C16   C22   S    
C14   C15   A    
C32   C46   S    
C40   H30   S    
C3    C5    A    
C32   H12   S    
C41   H2    S    
C35   N1    A    
Cu1   N4    S    
C30   N4    A    
C2    O7    S    
C34   C52   A    
Cu2   O10   S    
C32   C33   S    
C2    N2    A    
C33   H23   S    
C46   H16   S    
C11   C13   A    
C36   N1    A    
C46   H15   S    
C44   H14   S    
C42   H7    S    
C14   H1    S    
C52   N2    A    
C22   C24   A    
C11   C40   S    
C12   F1    S    
C10   C11   A    
C20   C21   A    
C36   C37   A    
C49   C50   A    
C48   H21   S    
C13   C14   A    
C5    H25   S    
