data_mof_unit_12621.cif
_audit_creation_date              2012-12-10T20:31:52-0500
_audit_creation_method            fapswitch 2.2
_symmetry_space_group_name_H-M    P1
_symmetry_Int_Tables_number       1
_space_group_crystal_system       triclinic
_cell_length_a                    9.908734
_cell_length_b                    10.625723
_cell_length_c                    15.479207
_cell_angle_alpha                 91.411064
_cell_angle_beta                  68.442659
_cell_angle_gamma                 91.692353
_cell_volume                      1514.93730687

loop_
_atom_site_label
_atom_site_type_symbol
_atom_type_description
_atom_site_fract_x
_atom_site_fract_y
_atom_site_fract_z
_atom_type_partial_charge
C1    C     C_R   0.498904 0.740405 0.505595 0.937081
C2    C     C_R   0.413602 0.432084 0.910213 0.007724
C3    C     C_R   0.265909 0.406798 0.963030 0.077961
C4    C     C_R   0.520023 0.423270 0.950075 -0.084781
C5    C     C_R   0.475564 0.421384 0.047652 -0.025491
C6    C     C_R   0.325187 0.408713 0.101379 -0.262543
C7    C     C_R   0.222676 0.390440 0.059088 0.449523
C8    C     C_R   0.671085 0.421051 0.895385 0.479590
C9    C     C_R   0.769351 0.465905 0.934242 -0.272514
C10   C     C_R   0.724223 0.483648 0.029926 -0.028405
C11   C     C_R   0.582865 0.443715 0.087285 0.011826
C12   C     C_R   0.408978 0.496655 0.675879 0.845112
C13   C     C_R   0.818972 0.538021 0.069177 -0.207062
C14   C     C_R   0.774156 0.553812 0.165484 -0.053974
C15   C     C_R   0.555941 0.427567 0.181879 0.409084
C16   C     C_R   0.364013 0.932678 0.533336 0.017718
C17   C     C_R   0.489565 0.872404 0.527412 -0.196959
C18   C     C_R   0.598656 0.941699 0.547635 0.487418
C19   C     C_R   0.587854 0.073377 0.554824 -0.326495
C20   C     C_R   0.477133 0.131376 0.535150 -0.160090
C21   C     C_R   0.354441 0.060316 0.541347 0.097896
C22   C     C_3   0.249459 0.063708 0.492532 -0.286961
C23   C     C_R   0.493627 0.260607 0.508546 0.897295
C24   C     C_3   0.269563 0.921352 0.477031 -0.286284
C25   C     C_R   0.906190 0.592926 0.545633 0.223961
C26   C     C_R   0.958040 0.420618 0.443365 -0.102225
C27   C     C_R   0.102496 0.421801 0.442484 0.002259
C28   C     C_R   0.048058 0.592493 0.545852 0.214197
C29   C     C_3   0.998927 0.624744 0.646459 -0.514057
C30   C     C_3   0.845528 0.624302 0.646786 -0.480325
C31   C     C_R   0.590099 0.499521 0.324210 0.970480
C32   C     C_R   0.352380 0.473479 0.775877 -0.067680
C33   C     C_R   0.643138 0.493817 0.222661 -0.283326
C34   C     C_R   0.164450 0.404281 0.918730 -0.169279
C35   C     C_R   0.208346 0.434852 0.824812 -0.221374
C36   C     C_R   0.450819 0.476414 0.820464 -0.182115
H1    H     H_    0.923059 0.576621 0.024422 0.189717
H2    H     H_    0.669076 0.130651 0.569465 0.164732
H3    H     H_    0.288552 0.121478 0.428884 0.156714
H4    H     H_    0.170901 0.862120 0.511393 0.158964
H5    H     H_    0.927005 0.353597 0.399864 0.146395
H6    H     H_    0.179708 0.355669 0.398258 0.173124
H7    H     H_    0.017469 0.548065 0.688164 0.228476
H8    H     H_    0.038634 0.719754 0.659100 0.215885
H9    H     H_    0.777909 0.546169 0.686956 0.253053
H10   H     H_    0.795233 0.718321 0.661788 0.236590
H11   H     H_    0.881690 0.481918 0.889981 0.157134
H12   H     H_    0.051965 0.378434 0.956167 0.167039
H13   H     H_    0.130470 0.428472 0.790780 0.157233
H14   H     H_    0.557045 0.516465 0.785023 0.187544
H15   H     H_    0.283697 0.415726 0.176212 0.216375
N1    N     N_R   0.856900 0.500860 0.500610 -0.114889
N2    N     N_R   0.142540 0.500820 0.500610 -0.102494
O1    O     O_R   0.385310 0.683210 0.499990 -0.616955
O2    O     O_R   0.614650 0.683240 0.500000 -0.558998
O3    O     O_R   0.319830 0.499970 0.632240 -0.623558
O4    O     O_R   0.549170 0.500000 0.632250 -0.619995
O5    O     O_R   0.385350 0.316760 0.500000 -0.612066
O6    O     O_R   0.614690 0.316790 0.500010 -0.628432
O7    O     O_R   0.450830 0.500000 0.367750 -0.559580
O8    O     O_R   0.680170 0.500030 0.367760 -0.607072
Zn1   Zn    Zn3+2 0.346870 0.499980 0.499990 0.993847
Zn2   Zn    Zn3+2 0.653130 0.500020 0.500010 0.976233
O9    O     O_3   0.077118 0.374740 0.113072 -0.619052
C37   C     C_3   0.047082 0.247393 0.139531 0.057700
H16   H     H_    0.049404 0.237394 0.210293 0.146746
H17   H     H_    0.125681 0.180448 0.091114 0.124084
C38   C     C_3   0.895569 0.210752 0.141560 -0.356712
H18   H     H_    0.814611 0.273784 0.190924 0.225005
H19   H     H_    0.892190 0.222713 0.071256 0.215279
C39   C     C_3   0.854721 0.074498 0.171090 -0.919357
H20   H     H_    0.941903 0.009951 0.129691 0.269795
H21   H     H_    0.753761 0.045944 0.159877 0.268706
H22   H     H_    0.834922 0.065351 0.245971 0.282581
O10   O     O_3   0.711101 0.879606 0.560698 -0.647296
C40   C     C_3   0.849081 0.925476 0.501623 0.045878
H23   H     H_    0.931094 0.882901 0.524264 0.166211
H24   H     H_    0.862703 0.028181 0.508831 0.168504
C41   C     C_3   0.883675 0.887538 0.399618 -0.273018
H25   H     H_    0.907902 0.785567 0.390707 0.258000
H26   H     H_    0.789694 0.904863 0.379103 0.254876
C42   C     C_3   0.013679 0.962936 0.335528 -0.975749
H27   H     H_    0.988455 0.064597 0.339931 0.254753
H28   H     H_    0.041595 0.929495 0.262666 0.277226
H29   H     H_    0.108375 0.951488 0.355729 0.279364
C43   C     C_2   0.101258 0.097533 0.560826 0.907427
O11   O     O_2   0.046628 0.040167 0.633524 -0.660760
O12   O     O_R   0.027084 0.195417 0.541382 -0.844861
H30   H     H_    0.930322 0.211324 0.593010 0.330886
C44   C     C_2   0.353457 0.881967 0.377549 0.922123
O13   O     O_2   0.469203 0.934109 0.333111 -0.662024
O14   O     O_R   0.300611 0.781793 0.337964 -0.801180
H31   H     H_    0.367068 0.761858 0.271866 0.342527
O15   O     O_3   0.451921 0.340600 0.233615 -0.664750
C45   C     C_3   0.499739 0.216474 0.204304 0.062678
H32   H     H_    0.544226 0.178174 0.254259 0.180537
H33   H     H_    0.587106 0.210969 0.133814 0.136547
C46   C     C_3   0.371523 0.132403 0.204049 -0.314687
H34   H     H_    0.304724 0.105299 0.276059 0.214540
H35   H     H_    0.301302 0.184401 0.176718 0.209836
C47   C     C_3   0.421522 0.014362 0.143524 -0.918700
H36   H     H_    0.501423 0.963036 0.163257 0.295017
H37   H     H_    0.472586 0.040542 0.069272 0.251028
H38   H     H_    0.326612 0.950950 0.151881 0.262315
C48   C     C_2   0.862424 0.638008 0.202505 0.962873
O16   O     O_2   0.802774 0.707210 0.268968 -0.662864
O17   O     O_R   0.013421 0.643658 0.158204 -0.782415
H39   H     H_    0.061372 0.705390 0.189598 0.335581
O18   O     O_3   0.725917 0.378940 0.803786 -0.682477
C49   C     C_3   0.688123 0.250240 0.797497 0.071727
H40   H     H_    0.702612 0.229602 0.724004 0.162925
H41   H     H_    0.572210 0.227448 0.838824 0.140664
C50   C     C_3   0.787014 0.164566 0.825132 -0.368891
H42   H     H_    0.902047 0.185434 0.781177 0.262425
H43   H     H_    0.773149 0.182924 0.898884 0.203131
C51   C     C_3   0.751065 0.025900 0.813717 -0.853656
H44   H     H_    0.638706 0.002400 0.861278 0.242377
H45   H     H_    0.827477 0.966091 0.830916 0.274507
H46   H     H_    0.760868 0.004764 0.741021 0.289872

loop_
_geom_bond_atom_site_label_1
_geom_bond_atom_site_label_2
_ccdc_geom_bond_type
O5    Zn1   S    
C23   O5    A    
C18   O10   S    
C31   O8    A    
C30   H9    S    
C45   H32   S    
C40   C41   S    
C4    C8    A    
C15   O15   S    
C45   C46   S    
C25   C28   A    
C23   O6    A    
C48   O17   S    
C26   C27   A    
C16   C21   A    
C32   C36   A    
C28   C29   S    
C40   H24   S    
C5    C11   A    
C3    C7    A    
C5    C6    A    
C43   O12   S    
C51   H44   S    
O7    Zn1   S    
C34   C35   A    
O8    Zn2   S    
C49   H40   S    
C38   H18   S    
C11   C15   A    
C14   C48   S    
C19   C20   A    
C16   C17   A    
C37   H17   S    
O2    Zn2   S    
C16   C24   S    
C35   H13   S    
O17   H39   S    
C31   C33   S    
C6    H15   S    
C9    C10   A    
C13   H1    S    
C50   C51   S    
C22   C43   S    
C47   H37   S    
C13   C14   A    
C29   H7    S    
C14   C33   A    
O4    Zn2   S    
C47   H36   S    
C40   H23   S    
C41   H26   S    
C43   O11   D    
C18   C19   A    
O1    Zn1   S    
C3    C34   A    
N1    Zn2   S    
C31   O7    A    
C2    C4    A    
O10   C40   S    
C32   C35   A    
C29   C30   S    
C19   H2    S    
C26   N1    A    
C41   C42   S    
N2    Zn1   S    
C44   O14   S    
C20   C23   S    
C37   C38   S    
C27   N2    A    
C17   C18   A    
C8    C9    A    
C20   C21   A    
C49   C50   S    
C12   O3    A    
C1    O1    A    
C12   O4    A    
C9    H11   S    
C47   H38   S    
C42   H28   S    
C29   H8    S    
C22   C24   S    
C34   H12   S    
C42   H29   S    
C36   H14   S    
C39   H21   S    
C50   H42   S    
C2    C36   A    
C25   C30   S    
C1    C17   S    
C30   H10   S    
C4    C5    A    
C10   C13   A    
C24   C44   S    
C39   H22   S    
C28   N2    A    
C45   H33   S    
C6    C7    A    
C46   C47   S    
C48   O16   D    
O6    Zn2   S    
C51   H46   S    
O9    C37   S    
C2    C3    A    
C1    O2    A    
C25   N1    A    
C39   H20   S    
C8    O18   S    
C27   H6    S    
C44   O13   D    
C38   C39   S    
C22   H3    S    
O14   H31   S    
C24   H4    S    
C51   H45   S    
O3    Zn1   S    
C37   H16   S    
O15   C45   S    
C46   H35   S    
C49   H41   S    
C7    O9    S    
C10   C11   A    
C41   H25   S    
O12   H30   S    
C38   H19   S    
C46   H34   S    
O18   C49   S    
C42   H27   S    
C21   C22   S    
C15   C33   A    
C12   C32   S    
C26   H5    S    
C50   H43   S    
