data_mof_unit_10880.cif
_audit_creation_date              2013-03-05T16:41:16-0500
_audit_creation_method            fapswitch 2.2
_symmetry_space_group_name_H-M    P1
_symmetry_Int_Tables_number       1
_space_group_crystal_system       triclinic
_cell_length_a                    10.674816
_cell_length_b                    10.689722
_cell_length_c                    9.917292
_cell_angle_alpha                 89.172344
_cell_angle_beta                  90.511561
_cell_angle_gamma                 91.214183
_cell_volume                      1131.25605868

loop_
_atom_site_label
_atom_site_type_symbol
_atom_site_description
_atom_site_fract_x
_atom_site_fract_y
_atom_site_fract_z
_atom_type_partial_charge
O1    O     O_R   0.500020 0.316790 0.614690 -0.606769
O2    O     O_R   0.500000 0.316760 0.385350 -0.600325
C1    C     C_R   0.507006 0.260391 0.500556 0.895076
O3    O     O_R   0.319080 0.500020 0.614640 -0.570516
O4    O     O_R   0.319070 0.499980 0.385300 -0.598660
C2    C     C_R   0.262771 0.503302 0.498885 1.000817
Zn1   Zn    Zn3+2 0.500010 0.500020 0.653130 1.052273
Zn2   Zn    Zn3+2 0.499990 0.499980 0.346870 1.044080
O5    O     O_R   0.500000 0.683240 0.614650 -0.609897
O6    O     O_R   0.499980 0.683210 0.385310 -0.594281
O7    O     O_R   0.680930 0.500020 0.614700 -0.614976
O8    O     O_R   0.680920 0.499980 0.385360 -0.589968
C3    C     C_R   0.502596 0.740074 0.499051 0.927530
C4    C     C_R   0.737528 0.506245 0.500997 0.952488
C5    C     C_2   0.933903 0.561494 0.396809 -0.132855
C6    C     C_2   0.868989 0.530539 0.506692 -0.347853
H1    H     H_    0.889556 0.573429 0.299007 0.236078
H2    H     H_    0.912495 0.529621 0.606268 0.204976
C7    C     C_2   0.068361 0.577278 0.407064 0.290839
C8    C     C_2   0.130360 0.503403 0.494042 -0.305548
H3    H     H_    0.083252 0.433473 0.556669 0.184303
C9    C     C_R   0.538852 0.062617 0.621432 0.050315
C10   C     C_R   0.531636 0.129777 0.500439 -0.119302
C11   C     C_R   0.544769 0.067720 0.377543 -0.118919
H4    H     H_    0.548721 0.118043 0.282005 0.211628
C12   C     C_R   0.539612 0.938316 0.376364 -0.114107
H5    H     H_    0.541258 0.891537 0.280399 0.216946
C13   C     C_R   0.520675 0.872243 0.497798 -0.071359
C14   C     C_R   0.527754 0.935042 0.619552 -0.016562
C15   C     C_3   0.442276 0.930043 0.738470 0.087824
C16   C     C_3   0.459901 0.071002 0.743966 0.086110
H6    H     H_    0.482370 0.878048 0.826029 0.189989
H7    H     H_    0.373951 0.124459 0.722897 0.208700
C17   C     C_R   0.420264 0.422115 0.072943 0.081713
N1    N     N_R   0.499170 0.499140 0.142800 -0.139211
C18   C     C_R   0.582217 0.573150 0.069744 0.309767
C19   C     C_R   0.583141 0.571372 0.926816 -0.067661
H8    H     H_    0.648104 0.631468 0.871630 0.174771
N2    N     N_R   0.499170 0.499180 0.857150 -0.116447
C20   C     C_R   0.418980 0.422641 0.930325 0.079149
C21   C     C_3   0.276729 0.421818 0.930398 0.355502
C22   C     C_3   0.281529 0.421837 0.084773 -0.008848
H9    H     H_    0.249055 0.510476 0.128074 0.186305
Br1   Br    Br    0.559117 0.125078 0.898549 -0.400122
Br2   Br    Br    0.692478 0.691166 0.154578 -0.450039
N3    N     N_R   0.220332 0.537193 0.877339 0.211310
O9    O     O_R   0.098865 0.543920 0.869924 -0.306179
O10   O     O_R   0.285973 0.641090 0.873127 -0.353360
N4    N     N_R   0.221739 0.307562 0.870779 0.233147
O11   O     O_R   0.257779 0.197570 0.910757 -0.319168
O12   O     O_R   0.140452 0.314339 0.772630 -0.347573
Br3   Br    Br    0.217984 0.276420 0.185849 -0.307446
Br4   Br    Br    0.146672 0.705327 0.295922 -0.352403
Br5   Br    Br    0.270023 0.883360 0.691017 -0.291280

loop_
_geom_bond_atom_site_label_1
_geom_bond_atom_site_label_2
_geom_bond_distance
_ccdc_geom_bond_type
O4    Zn2   1.971868 S    
Zn1   O7    1.971869 S    
C10   C11   1.405533 A    
C16   H7    1.107860 S    
C3    C13   1.421797 S    
C20   C21   1.518349 S    
C14   C15   1.497200 S    
C9    C14   1.366750 A    
C2    C8    1.413864 S    
C21   C22   1.531385 S    
C1    C10   1.426246 S    
C7    C8    1.340887 D    
C17   C22   1.486594 S    
Zn2   O8    1.965408 S    
C7    Br4   1.926597 S    
O2    C1    1.286299 A    
O8    C4    1.293419 A    
C18   Br2   1.906513 S    
C19   N2    1.360661 A    
C6    H2    1.087524 S    
O1    Zn1   2.000832 S    
C11   H4    1.083471 S    
C15   H6    1.111590 S    
C15   Br5   1.950395 S    
C12   H5    1.081918 S    
C19   H8    1.082058 S    
C21   N3    1.472237 S    
O3    Zn1   1.965408 S    
C17   C20   1.414268 A    
O4    C2    1.282770 A    
C21   N4    1.473159 S    
C13   C14   1.390683 A    
C11   C12   1.383440 A    
N4    O11   1.300248 A    
C4    C6    1.422500 S    
C9    C10   1.391754 A    
C15   C16   1.516246 S    
O7    C4    1.284244 A    
N3    O10   1.300937 A    
C16   Br1   1.943394 S    
C5    C6    1.330626 D    
Zn1   O5    1.989986 S    
C8    H3    1.083361 S    
O3    C2    1.291433 A    
C17   N1    1.357957 A    
C9    C16   1.489859 S    
N2    C20   1.375888 A    
C5    H1    1.082552 S    
Zn1   N2    2.023315 S    
N3    O9    1.301513 A    
C18   C19   1.417989 A    
O5    C3    1.289924 A    
N4    O12   1.300456 A    
C5    C7    1.444495 S    
C12   C13   1.401346 A    
Zn2   N1    2.023911 S    
Zn2   O6    2.000832 S    
O2    Zn2   1.989988 S    
N1    C18   1.379099 A    
C22   H9    1.109380 S    
C22   Br3   1.950321 S    
O1    C1    1.293586 A    
O6    C3    1.288875 A    
