data_mof_unit_11073.cif
_audit_creation_date              2013-03-05T15:50:10-0500
_audit_creation_method            fapswitch 2.2
_symmetry_space_group_name_H-M    P1
_symmetry_Int_Tables_number       1
_space_group_crystal_system       triclinic
_cell_length_a                    20.022131
_cell_length_b                    6.866613
_cell_length_c                    18.205994
_cell_angle_alpha                 89.884931
_cell_angle_beta                  104.26505
_cell_angle_gamma                 90.159366
_cell_volume                      2425.84723694

loop_
_atom_site_label
_atom_site_type_symbol
_atom_site_description
_atom_site_fract_x
_atom_site_fract_y
_atom_site_fract_z
_atom_type_partial_charge
O1    O     O_R   0.312200 0.620210 0.189560 -0.568848
O2    O     O_R   0.687800 0.379790 0.810440 -0.560224
O3    O     O_R   0.187800 0.120210 0.310440 -0.591857
O4    O     O_R   0.812200 0.879790 0.689560 -0.596639
O5    O     O_R   0.171590 0.286140 0.165000 -0.592857
O6    O     O_R   0.828410 0.713860 0.835000 -0.594737
O7    O     O_R   0.328410 0.786140 0.335000 -0.569522
O8    O     O_R   0.671590 0.213860 0.665000 -0.576025
C1    C     C_R   0.145659 0.459486 0.143758 0.995802
C2    C     C_R   0.854370 0.540519 0.856203 0.993796
C3    C     C_R   0.354348 0.959606 0.356227 1.007642
C4    C     C_R   0.645697 0.040381 0.643711 1.011847
O9    O     O_R   0.310670 0.290220 0.180540 -0.595805
O10   O     O_R   0.689330 0.709780 0.819460 -0.586322
O11   O     O_R   0.189330 0.790220 0.319460 -0.553969
O12   O     O_R   0.810670 0.209780 0.680540 -0.572955
O13   O     O_R   0.327870 0.124170 0.326080 -0.590818
O14   O     O_R   0.672130 0.875830 0.673920 -0.588257
O15   O     O_R   0.172130 0.624170 0.173920 -0.576662
O16   O     O_R   0.827870 0.375830 0.826080 -0.568713
C5    C     C_R   0.331790 0.459719 0.164988 0.988213
C6    C     C_R   0.668382 0.539850 0.835689 0.972615
C7    C     C_R   0.168628 0.958927 0.335920 0.969305
C8    C     C_R   0.831635 0.040853 0.664753 0.987286
O17   O     O_3   0.255480 0.455050 0.297740 -0.260402
O18   O     O_3   0.744520 0.544950 0.702260 -0.275771
O19   O     O_3   0.244520 0.955050 0.202260 -0.272364
O20   O     O_3   0.755480 0.044950 0.797740 -0.258460
V1    V     V_3+5 0.248980 0.178550 0.241140 1.254482
V2    V     V_3+5 0.751020 0.821450 0.758860 1.259879
V3    V     V_3+5 0.251020 0.678550 0.258860 1.292858
V4    V     V_3+5 0.748980 0.321450 0.741140 1.282465
C9    C     C_R   0.943479 0.139742 0.636582 0.339607
C10   C     C_R   0.066099 0.833019 0.377871 0.405775
C11   C     C_R   0.568647 0.379803 0.873323 0.406712
C12   C     C_R   0.442461 0.585635 0.141498 0.356093
C13   C     C_R   0.882173 0.029499 0.617010 -0.351098
C14   C     C_R   0.121895 0.965043 0.388799 -0.329771
C15   C     C_R   0.621084 0.523528 0.887832 -0.327892
C16   C     C_R   0.382881 0.469025 0.117934 -0.352229
C17   C     C_R   0.870059 0.904721 0.553801 -0.128446
C18   C     C_R   0.133190 0.098714 0.449702 -0.139754
C19   C     C_R   0.629243 0.644353 0.952335 -0.135575
C20   C     C_R   0.372533 0.360834 0.050450 -0.138577
C21   C     C_R   0.924311 0.864418 0.518120 0.089450
C22   C     C_R   0.091631 0.090343 0.503278 0.079860
C23   C     C_R   0.588916 0.610206 0.005810 0.061122
C24   C     C_R   0.427272 0.341939 0.013844 0.082058
C25   C     C_R   0.983830 0.984785 0.533717 0.058925
C26   C     C_R   0.032296 0.968939 0.488261 0.083476
C27   C     C_R   0.532451 0.478742 0.987231 0.074632
C28   C     C_R   0.484493 0.470176 0.033420 0.038126
C29   C     C_R   0.994678 0.120810 0.594472 -0.181862
C30   C     C_R   0.021075 0.832471 0.427652 -0.166038
C31   C     C_R   0.523697 0.356274 0.922538 -0.150768
C32   C     C_R   0.493517 0.589755 0.098880 -0.187348
C33   C     C_R   0.921535 0.702689 0.469111 -0.215786
C34   C     C_R   0.108330 0.197177 0.572314 -0.265198
C35   C     C_R   0.604582 0.699899 0.078453 -0.270832
C36   C     C_R   0.426966 0.194454 0.959479 -0.224811
C37   C     C_R   0.966793 0.693977 0.420754 0.329792
C38   C     C_R   0.058527 0.222693 0.614528 0.319637
C39   C     C_R   0.555585 0.698813 0.122487 0.319914
C40   C     C_R   0.472048 0.208290 0.911123 0.336059
C41   C     C_1   0.583216 0.027289 0.581515 -0.224838
C42   C     C_1   0.416864 0.972681 0.418379 -0.221902
C43   C     C_1   0.916881 0.527568 0.918379 -0.226552
C44   C     C_1   0.083182 0.472427 0.081538 -0.229647
C45   C     C_1   0.530903 0.010787 0.530114 0.128287
C46   C     C_1   0.469197 0.989166 0.469755 0.124569
C47   C     C_1   0.969198 0.510924 0.969762 0.122156
C48   C     C_1   0.030884 0.489054 0.030128 0.124258
N1    N     N_R   0.951983 0.273371 0.698644 0.245800
O21   O     O_R   0.934003 0.454482 0.685349 -0.390099
O22   O     O_R   0.964230 0.207153 0.767682 -0.355161
N2    N     N_R   0.050926 0.716975 0.310282 0.238553
O23   O     O_R   0.079838 0.547652 0.309755 -0.328109
O24   O     O_R   0.016849 0.793430 0.246685 -0.361424
N3    N     N_R   0.557567 0.271263 0.804081 0.238325
O25   O     O_R   0.526766 0.353719 0.740387 -0.361328
O26   O     O_R   0.588368 0.104987 0.803006 -0.341158
N4    N     N_R   0.448784 0.705140 0.207357 0.244221
O27   O     O_R   0.428886 0.885871 0.199336 -0.383078
O28   O     O_R   0.461643 0.625096 0.274205 -0.354746
C49   C     C_2   0.797519 0.844526 0.518406 0.529724
H1    H     H_    0.761068 0.818162 0.552517 0.000360
O29   O     O_2   0.776716 0.833171 0.449598 -0.482944
C50   C     C_2   0.184716 0.256818 0.452462 0.621226
H2    H     H_    0.235891 0.223229 0.446011 -0.037091
O30   O     O_2   0.169574 0.426462 0.460127 -0.543339
C51   C     C_2   0.675864 0.816063 0.959817 0.623176
H3    H     H_    0.728375 0.799449 0.954617 -0.028354
O31   O     O_2   0.655323 0.978023 0.970980 -0.554791
C52   C     C_2   0.300893 0.298538 0.011965 0.518745
H4    H     H_    0.264470 0.254760 0.044065 0.012712
O32   O     O_2   0.280679 0.304833 0.942987 -0.484972
C53   C     C_2   0.878316 0.529535 0.477122 0.701481
H5    H     H_    0.865908 0.501430 0.530933 -0.024115
O33   O     O_2   0.855267 0.419008 0.424511 -0.472280
C54   C     C_2   0.181198 0.254565 0.607139 0.756877
H6    H     H_    0.222804 0.161819 0.599578 -0.038143
O34   O     O_2   0.195701 0.405886 0.642632 -0.471703
C55   C     C_2   0.676382 0.765443 0.114105 0.756651
H7    H     H_    0.719531 0.686365 0.102532 -0.044971
O35   O     O_2   0.688220 0.909002 0.154718 -0.469654
C56   C     C_2   0.386260 0.012207 0.960963 0.722598
H8    H     H_    0.376238 0.963470 0.014021 -0.045947
O36   O     O_2   0.362276 0.917785 0.903752 -0.466714
N5    N     N_R   0.960064 0.534919 0.368673 0.276643
O37   O     O_R   0.913887 0.542281 0.304410 -0.255880
O38   O     O_R   0.991275 0.371412 0.390769 -0.348274
N6    N     N_R   0.075979 0.341241 0.681240 0.274154
O39   O     O_R   0.072273 0.529973 0.674984 -0.300951
O40   O     O_R   0.105855 0.262981 0.746122 -0.274557
N7    N     N_R   0.572631 0.795025 0.194514 0.273531
O41   O     O_R   0.566939 0.983380 0.197806 -0.285994
O42   O     O_R   0.603377 0.698815 0.254989 -0.276096
N8    N     N_R   0.467133 0.063678 0.853443 0.276178
O43   O     O_R   0.422554 0.085492 0.788608 -0.264442
O44   O     O_R   0.496787 0.895659 0.870667 -0.341211

loop_
_geom_bond_atom_site_label_1
_geom_bond_atom_site_label_2
_geom_bond_distance
_ccdc_geom_bond_type
C34   C38   1.412400 A    
O1    C5    1.288134 A    
O19   V1    1.684263 S    
O13   V1    1.955248 S    
N1    O21   1.301205 A    
O3    C7    1.293192 A    
O15   V3    1.954756 S    
N8    O44   1.300973 A    
N6    O40   1.301128 A    
C53   H5    1.085193 S    
C2    C43   1.468944 S    
O18   V4    1.682124 S    
C21   C33   1.418342 A    
C26   C30   1.423719 A    
O9    V1    1.998440 S    
N2    O24   1.300759 A    
C14   C18   1.415066 A    
N5    O38   1.300414 A    
O4    C8    1.288698 A    
C25   C29   1.423973 A    
C56   H8    1.085924 S    
N7    O41   1.301483 A    
O1    V3    2.004801 S    
C40   N8    1.432212 S    
O2    V4    2.004798 S    
C18   C22   1.430577 A    
C33   C37   1.411903 A    
O3    V1    2.002421 S    
N8    O43   1.301245 A    
C12   C16   1.411420 A    
C1    O15   1.310316 A    
C12   N4    1.433746 S    
N7    O42   1.301127 A    
O2    C6    1.289533 A    
O14   V2    1.955247 S    
C16   C20   1.407715 A    
C27   C31   1.423558 A    
C3    C42   1.468667 S    
C44   C48   1.225877 T    
C39   N7    1.433245 S    
O11   C7    1.291854 A    
C37   N5    1.431952 S    
O12   C8    1.291433 A    
C22   C34   1.423002 A    
O17   V1    2.150332 S    
N1    O22   1.301199 A    
C45   C46   1.444498 S    
O10   V2    1.998438 S    
N6    O39   1.301440 A    
C53   O33   1.220470 D    
C24   C36   1.416429 A    
O5    V1    1.952449 S    
C49   O29   1.221455 D    
C9    C29   1.429660 A    
O7    V3    1.951294 S    
C11   C31   1.426517 A    
C27   C28   1.424792 A    
O8    V4    1.951296 S    
O20   V4    2.147314 S    
C34   C54   1.492577 S    
N2    O23   1.301365 A    
C2    O16   1.310292 A    
C51   H3    1.084959 S    
N3    O26   1.301638 A    
C15   C19   1.415167 A    
C49   H1    1.083187 S    
O19   V3    2.147315 S    
N4    O27   1.301348 A    
C9    C13   1.409641 A    
C11   C15   1.415856 A    
O5    C1    1.318548 A    
C12   C32   1.427738 A    
C51   O31   1.221433 D    
C29   C38   1.422351 A    
O7    C3    1.318084 A    
C21   C25   1.418657 A    
O8    C4    1.318098 A    
C33   C53   1.496500 S    
C31   C40   1.426280 A    
C54   O34   1.220691 D    
C8    C13   1.489856 S    
C32   C39   1.422256 A    
O9    C5    1.291724 A    
C55   O35   1.220619 D    
C52   O32   1.221542 D    
C9    N1    1.433919 S    
O6    V2    1.952451 S    
C50   O30   1.221392 D    
C10   C30   1.427124 A    
N4    O28   1.301253 A    
C18   C50   1.487931 S    
C36   C56   1.495358 S    
O16   V4    1.954755 S    
C3    O13   1.310209 A    
C10   C14   1.412450 A    
O17   V3    1.682124 S    
O6    C2    1.318569 A    
C23   C27   1.419340 A    
O11   V3    2.002768 S    
C30   C37   1.424371 A    
O12   V4    2.002771 S    
C7    C14   1.499476 S    
C17   C49   1.493997 S    
C4    C41   1.468660 S    
C22   C26   1.420015 A    
C35   C39   1.411613 A    
C36   C40   1.410534 A    
C35   C55   1.492743 S    
O10   C6    1.296805 A    
O20   V2    1.684263 S    
C1    C44   1.468944 S    
C47   C48   1.444737 S    
N5    O37   1.301204 A    
C42   C46   1.225711 T    
C5    C16   1.488521 S    
C56   O36   1.220799 D    
C41   C45   1.225716 T    
C6    C15   1.500878 S    
C11   N3    1.434871 S    
C54   H6    1.085500 S    
C43   C47   1.225870 T    
C13   C17   1.408011 A    
C52   H4    1.082506 S    
C19   C51   1.487270 S    
C20   C52   1.494621 S    
C23   C35   1.422876 A    
N3    O25   1.300956 A    
C20   C24   1.422430 A    
C24   C28   1.417543 A    
C38   N6    1.432875 S    
C50   H2    1.085160 S    
C25   C26   1.426564 A    
C4    O14   1.310216 A    
C55   H7    1.085519 S    
C17   C21   1.424303 A    
C19   C23   1.428354 A    
O4    V2    2.002423 S    
C28   C32   1.422733 A    
C10   N2    1.435198 S    
O18   V2    2.150332 S    
