data_mof_unit_36360.cif
_audit_creation_date              2012-12-10T19:44:40-0500
_audit_creation_method            fapswitch 2.2
_symmetry_space_group_name_H-M    P1
_symmetry_Int_Tables_number       1
_space_group_crystal_system       triclinic
_cell_length_a                    8.646002
_cell_length_b                    15.005322
_cell_length_c                    14.199983
_cell_angle_alpha                 90.120403
_cell_angle_beta                  98.841125
_cell_angle_gamma                 90.626894
_cell_volume                      1820.23829527

loop_
_atom_site_label
_atom_site_type_symbol
_atom_type_description
_atom_site_fract_x
_atom_site_fract_y
_atom_site_fract_z
_atom_type_partial_charge
C1    C     C_R   0.501074 0.327748 0.500225 0.907729
C2    C     C_R   0.453840 0.426518 0.891458 -0.234904
C3    C     C_R   0.493229 0.503006 0.052526 -0.030909
C4    C     C_R   0.495054 0.503997 0.946342 0.001104
C5    C     C_R   0.201440 0.498233 0.475388 0.872132
C6    C     C_R   0.798541 0.501767 0.524657 0.891123
C7    C     C_2   0.037221 0.485206 0.464682 0.195161
C8    C     C_2   0.962761 0.514680 0.535578 0.196332
C9    C     C_R   0.547027 0.091891 0.582116 -0.272392
C10   C     C_R   0.542601 0.908963 0.425637 -0.272082
C11   C     C_R   0.558470 0.184499 0.583567 0.450746
C12   C     C_R   0.501342 0.672308 0.500019 0.909562
C13   C     C_R   0.554188 0.816508 0.425944 0.458384
C14   C     C_R   0.497183 0.231686 0.500709 -0.072477
C15   C     C_R   0.497617 0.768395 0.498999 -0.090393
C16   C     C_R   0.427166 0.186880 0.418236 -0.267406
C17   C     C_R   0.432566 0.812286 0.570487 -0.205137
C18   C     C_R   0.417028 0.095061 0.417674 -0.152606
C19   C     C_R   0.422295 0.903957 0.569484 -0.157275
C20   C     C_R   0.477080 0.047890 0.499502 0.085332
C21   C     C_R   0.477274 0.951967 0.497135 0.076953
C22   C     C_R   0.357193 0.481115 0.092014 0.397164
C23   C     C_R   0.539132 0.580525 0.898382 0.389135
C24   C     C_R   0.368070 0.472480 0.192060 0.447142
C25   C     C_R   0.553168 0.574162 0.800601 0.449067
C26   C     C_R   0.630005 0.525078 0.215330 -0.007205
C27   C     C_R   0.451296 0.426923 0.792114 -0.025888
C28   C     C_R   0.630721 0.523407 0.116307 -0.221570
H1    H     H_    0.596260 0.053929 0.644219 0.152426
H2    H     H_    0.421503 0.365986 0.925241 0.205579
H3    H     H_    0.037832 0.412072 0.350122 0.370427
H4    H     H_    0.962407 0.585733 0.651742 0.346329
H5    H     H_    0.667400 0.186066 0.714476 0.340750
H6    H     H_    0.655618 0.816605 0.312344 0.339088
H7    H     H_    0.057076 0.509925 0.881937 0.385610
H8    H     H_    0.515714 0.747336 0.084034 0.386364
H9    H     H_    0.293277 0.394151 0.280772 0.343417
H10   H     H_    0.690958 0.614883 0.716695 0.352524
H11   H     H_    0.588116 0.947640 0.371378 0.145201
H12   H     H_    0.378680 0.222917 0.354636 0.178931
H13   H     H_    0.387988 0.775656 0.626490 0.220175
H14   H     H_    0.362909 0.060684 0.353616 0.162733
H15   H     H_    0.371913 0.937565 0.625007 0.168854
H16   H     H_    0.735241 0.544698 0.262446 0.210772
H17   H     H_    0.413441 0.367719 0.751058 0.186292
H18   H     H_    0.738039 0.539604 0.089461 0.240671
N1    N     N_R   0.500000 0.499980 0.252470 -0.171410
N2    N     N_R   0.500000 0.500020 0.747530 -0.164205
O1    O     O_R   0.500010 0.369070 0.579480 -0.577440
O2    O     O_3   0.039179 0.564397 0.611910 -0.751612
O3    O     O_3   0.632034 0.229557 0.663395 -0.751183
O4    O     O_3   0.623271 0.772572 0.357755 -0.743363
O5    O     O_2   0.152278 0.368369 0.992057 -0.309045
O6    O     O_2   0.043171 0.490938 0.073828 -0.236126
O7    O     O_3   0.158217 0.527655 0.920404 -0.521752
O8    O     O_2   0.747778 0.691615 0.997408 -0.275920
O9    O     O_2   0.535841 0.759816 0.888110 -0.215103
O10   O     O_3   0.469639 0.695359 0.046213 -0.530064
O11   O     O_3   0.246121 0.431860 0.227176 -0.704018
O12   O     O_R   0.499990 0.630930 0.420520 -0.554965
O13   O     O_3   0.627695 0.642519 0.760966 -0.691418
O14   O     O_R   0.500010 0.369060 0.420520 -0.654423
O15   O     O_R   0.499990 0.630940 0.579480 -0.614694
O16   O     O_R   0.271750 0.500000 0.560890 -0.560380
O17   O     O_R   0.728250 0.500000 0.439110 -0.569043
O18   O     O_R   0.271750 0.499990 0.401930 -0.622065
O19   O     O_R   0.728250 0.500010 0.598070 -0.660310
O20   O     O_3   0.960778 0.434976 0.388814 -0.764656
S1    S     S_3+6 0.172005 0.465080 0.019464 0.072697
S2    S     S_3+6 0.576673 0.684998 0.957424 0.084422
Zn1   Zn    Zn3+2 0.500000 0.500010 0.606140 1.014776
Zn2   Zn    Zn3+2 0.500000 0.499990 0.393860 1.018332

loop_
_geom_bond_atom_site_label_1
_geom_bond_atom_site_label_2
_ccdc_geom_bond_type
C27   N2    A    
C2    C4    A    
C2    C27   A    
C19   H15   S    
O9    S2    D    
H5    O3    S    
O17   Zn2   S    
C5    C7    S    
C22   S1    S    
C26   C28   A    
C23   S2    S    
C12   C15   S    
C9    H1    S    
C2    H2    S    
H10   O13   S    
O5    S1    D    
C1    O14   A    
C27   H17   S    
C18   H14   S    
C26   H16   S    
C7    C8    D    
C25   O13   S    
H6    O4    S    
C9    C11   A    
C25   N2    A    
C28   H18   S    
O7    S1    S    
H9    O11   S    
O6    S1    D    
C26   N1    A    
C16   H12   S    
C24   O11   S    
C22   C24   A    
C3    C28   A    
C17   C19   A    
O15   Zn1   S    
H4    O2    S    
H8    O10   S    
C13   C15   A    
C10   C21   A    
H3    O20   S    
C11   C14   A    
C14   C16   A    
N1    Zn2   S    
O19   Zn1   S    
C11   O3    S    
O12   Zn2   S    
N2    Zn1   S    
H7    O7    S    
C3    C4    S    
C13   O4    S    
O8    S2    D    
C8    O2    S    
O14   Zn2   S    
C23   C25   A    
C20   C21   S    
C18   C20   A    
C16   C18   A    
O1    Zn1   S    
O16   Zn1   S    
C15   C17   A    
C4    C23   A    
C6    O19   A    
C3    C22   A    
C6    C8    S    
C1    C14   S    
C9    C20   A    
C17   H13   S    
C19   C21   A    
C7    O20   S    
C12   O15   A    
C24   N1    A    
C1    O1    A    
C10   H11   S    
C6    O17   A    
O10   S2    S    
C5    O16   A    
O18   Zn2   S    
C5    O18   A    
C10   C13   A    
C12   O12   A    
