data_mof_unit_18773.cif
_audit_creation_date              2012-12-10T17:51:22-0500
_audit_creation_method            fapswitch 2.2
_symmetry_space_group_name_H-M    P1
_symmetry_Int_Tables_number       1
_space_group_crystal_system       triclinic
_cell_length_a                    9.855925
_cell_length_b                    10.690614
_cell_length_c                    15.552674
_cell_angle_alpha                 91.7125
_cell_angle_beta                  84.602863
_cell_angle_gamma                 89.312423
_cell_volume                      1630.54703602

loop_
_atom_site_label
_atom_site_type_symbol
_atom_type_description
_atom_site_fract_x
_atom_site_fract_y
_atom_site_fract_z
_atom_type_partial_charge
C1    C     C_R   0.498942 0.740298 0.493927 0.861249
C2    C     C_R   0.531919 0.538793 0.249772 -0.162176
C3    C     C_R   0.240469 0.894217 0.484417 -0.168637
C4    C     C_R   0.479989 0.502898 0.657251 0.857954
C5    C     C_R   0.119599 0.956973 0.513973 -0.189290
C6    C     C_R   0.123641 0.066790 0.563564 -0.223630
C7    C     C_R   0.248979 0.121162 0.576786 0.256103
C8    C     C_R   0.371893 0.065407 0.535737 0.063450
C9    C     C_R   0.368334 0.942539 0.502686 0.062615
C10   C     C_R   0.493847 0.874517 0.489076 -0.106576
C11   C     C_R   0.618059 0.936134 0.485908 -0.260142
C12   C     C_R   0.335343 0.578350 0.788986 -0.213038
C13   C     C_R   0.619519 0.062939 0.499372 -0.228211
C14   C     C_R   0.497225 0.128558 0.521430 -0.127739
C15   C     C_R   0.841569 0.664528 0.614548 -0.215360
C16   C     C_R   0.499012 0.261068 0.509440 0.920255
C17   C     C_R   0.903552 0.744296 0.671811 0.115585
C18   C     C_R   0.044620 0.742520 0.670737 -0.229376
C19   C     C_R   0.122902 0.662888 0.613519 -0.207835
C20   C     C_R   0.063460 0.580811 0.555953 0.154790
C21   C     C_R   0.918593 0.581153 0.556133 0.143361
C22   C     C_R   0.937251 0.422342 0.446479 -0.131990
C23   C     C_R   0.395441 0.597393 0.133015 0.103314
C24   C     C_R   0.080736 0.422363 0.446510 -0.135518
C25   C     C_R   0.520270 0.504402 0.342623 0.881067
C26   C     C_R   0.463510 0.536440 0.750742 -0.053252
C27   C     C_R   0.577853 0.552137 0.797361 -0.240209
C28   C     C_R   0.566430 0.621452 0.875616 -0.161589
C29   C     C_R   0.441550 0.677329 0.907231 0.231825
C30   C     C_R   0.325356 0.651609 0.865028 -0.188682
C31   C     C_3   0.828506 0.699922 0.032234 -0.837589
C32   C     C_3   0.306556 0.201534 0.715435 -0.829840
C33   C     C_3   0.819376 0.830906 0.734760 -0.440454
C34   C     C_R   0.413385 0.529433 0.206770 -0.278175
C35   C     C_3   0.749618 0.933807 0.687665 -0.319746
C36   C     C_3   0.685207 0.034270 0.750826 -0.880989
C37   C     C_3   0.787923 0.593556 0.240369 -0.382084
C38   C     C_3   0.817913 0.701688 0.303235 -0.325276
C39   C     C_3   0.970888 0.719259 0.306304 -0.924007
C40   C     C_3   0.257250 0.590740 0.097766 -0.421900
C41   C     C_3   0.242127 0.465290 0.049273 -0.319325
C42   C     C_3   0.103016 0.455576 0.014242 -0.910660
C43   C     C_R   0.646101 0.602600 0.209153 0.026043
C44   C     C_R   0.627630 0.674255 0.135316 0.177912
C45   C     C_R   0.500406 0.677183 0.100444 0.105610
C46   C     C_2   0.437530 0.786610 0.967494 -0.276003
C47   C     C_2   0.469468 0.787349 0.049426 -0.192103
H1    H     H_    0.677919 0.520525 0.769939 0.156460
H2    H     H_    0.095130 0.803824 0.713993 0.150352
H3    H     H_    0.229818 0.668835 0.616583 0.217060
H4    H     H_    0.142303 0.359089 0.402955 0.146609
H5    H     H_    0.469334 0.877664 0.083375 0.146470
H6    H     H_    0.228302 0.695251 0.887802 0.126376
H7    H     H_    0.244365 0.565217 0.756174 0.158404
H8    H     H_    0.406868 0.875251 0.942286 0.147418
H9    H     H_    0.657659 0.642733 0.905899 0.149351
H10   H     H_    0.775696 0.812709 0.142980 0.229897
H11   H     H_    0.933098 0.700792 0.053350 0.233099
H12   H     H_    0.714746 0.886472 0.473165 0.166748
H13   H     H_    0.828169 0.757319 0.973987 0.246838
H14   H     H_    0.803145 0.601696 0.015256 0.243145
H15   H     H_    0.159694 0.276572 0.644197 0.227745
H16   H     H_    0.306747 0.289208 0.755510 0.243705
H17   H     H_    0.413011 0.166398 0.703043 0.240629
H18   H     H_    0.243942 0.131290 0.751798 0.237422
H19   H     H_    0.602802 0.993703 0.794668 0.263023
H20   H     H_    0.763159 0.075880 0.789732 0.258592
H21   H     H_    0.641500 0.109849 0.714107 0.247416
H22   H     H_    0.825139 0.978428 0.641013 0.223400
H23   H     H_    0.231638 0.810606 0.444751 0.176848
H24   H     H_    0.668449 0.891934 0.651698 0.231716
H25   H     H_    0.741345 0.776186 0.772794 0.204040
H26   H     H_    0.885000 0.874699 0.781365 0.202222
H27   H     H_    0.020451 0.630504 0.322958 0.270604
H28   H     H_    0.017685 0.749843 0.242769 0.257049
H29   H     H_    0.988772 0.792157 0.356172 0.246155
H30   H     H_    0.771448 0.791119 0.285368 0.201434
H31   H     H_    0.773908 0.681845 0.369101 0.269149
H32   H     H_    0.804478 0.502007 0.269726 0.199277
H33   H     H_    0.865004 0.591807 0.183640 0.212788
H34   H     H_    0.022461 0.917796 0.501108 0.148524
H35   H     H_    0.020633 0.461807 0.068130 0.257231
H36   H     H_    0.088585 0.531477 0.968655 0.264212
H37   H     H_    0.095926 0.364210 0.979213 0.253477
H38   H     H_    0.322989 0.455071 0.994590 0.239371
H39   H     H_    0.253930 0.386785 0.093389 0.214676
H40   H     H_    0.176073 0.600535 0.152343 0.194312
H41   H     H_    0.239647 0.668343 0.054497 0.212931
H42   H     H_    0.029103 0.109979 0.591575 0.132773
H43   H     H_    0.716625 0.109615 0.490563 0.170210
H44   H     H_    0.890251 0.359162 0.402872 0.138887
H45   H     H_    0.733479 0.670504 0.618315 0.212157
H46   H     H_    0.328286 0.476351 0.235109 0.165854
N1    N     N_R   0.857140 0.501200 0.500750 -0.107648
N2    N     N_R   0.142740 0.501280 0.500770 -0.112198
N3    N     N_2   0.732655 0.753856 0.099941 -0.299292
N4    N     N_2   0.250462 0.226677 0.635001 -0.276458
O1    O     O_R   0.385310 0.683220 0.500000 -0.637989
O2    O     O_R   0.614640 0.683250 0.500010 -0.652283
O3    O     O_R   0.371780 0.500010 0.615800 -0.610997
O4    O     O_R   0.601110 0.500030 0.615800 -0.619071
O5    O     O_R   0.385360 0.316750 0.499990 -0.593793
O6    O     O_R   0.614690 0.316780 0.500000 -0.619134
O7    O     O_R   0.398890 0.499970 0.384200 -0.600066
O8    O     O_R   0.628220 0.499990 0.384200 -0.609781
Zn1   Zn    Zn3+2 0.346870 0.499980 0.499990 0.919388
Zn2   Zn    Zn3+2 0.653130 0.500020 0.500010 0.903526

loop_
_geom_bond_atom_site_label_1
_geom_bond_atom_site_label_2
_ccdc_geom_bond_type
C27   H1    S    
O4    Zn2   S    
C23   C45   A    
C13   H43   S    
C41   C42   S    
C31   H14   S    
C35   C36   S    
C42   H35   S    
C34   H46   S    
C1    O2    A    
O7    Zn1   S    
C28   H9    S    
C36   H20   S    
C25   O8    A    
C7    C8    A    
C41   H39   S    
C37   H32   S    
C26   C27   A    
C29   C30   A    
C44   N3    S    
C40   H40   S    
C28   C29   A    
C38   C39   S    
C36   H19   S    
C21   N1    A    
C31   N3    S    
C32   N4    S    
C18   C19   A    
C39   H27   S    
C33   H25   S    
C15   H45   S    
C19   C20   A    
C8    C9    A    
H10   N3    S    
C46   H8    S    
C22   H44   S    
C39   H28   S    
C9    C10   A    
C2    C34   A    
C24   H4    S    
C35   H24   S    
C13   C14   A    
C22   N1    A    
C17   C33   S    
C11   H12   S    
C37   H33   S    
C45   C47   S    
C30   H6    S    
N1    Zn2   S    
C1    C10   S    
C3    H23   S    
C42   H37   S    
C32   H17   S    
C24   N2    A    
C38   H31   S    
C12   C26   A    
C31   H13   S    
C37   C43   S    
C43   C44   A    
C37   C38   S    
C3    C9    A    
N2    Zn1   S    
O8    Zn2   S    
H15   N4    S    
C5    H34   S    
C16   O6    A    
C2    C43   A    
C23   C34   A    
C4    O4    A    
C17   C18   A    
C39   H29   S    
C47   H5    S    
C33   H26   S    
C40   C41   S    
C20   N2    A    
C4    O3    A    
C14   C16   S    
O2    Zn2   S    
C44   C45   A    
C31   H11   S    
C16   O5    A    
C15   C17   A    
C46   C47   D    
C8    C14   A    
C7    N4    S    
C12   C30   A    
C42   H36   S    
C32   H16   S    
C3    C5    A    
C1    O1    A    
C4    C26   S    
C36   H21   S    
C25   O7    A    
C6    C7    A    
C38   H30   S    
C6    H42   S    
C41   H38   S    
O3    Zn1   S    
O1    Zn1   S    
C29   C46   S    
C40   H41   S    
C11   C13   A    
C19   H3    S    
C5    C6    A    
C33   C35   S    
O5    Zn1   S    
C2    C25   S    
C22   C24   A    
C10   C11   A    
C15   C21   A    
C20   C21   A    
C35   H22   S    
C27   C28   A    
O6    Zn2   S    
C12   H7    S    
C23   C40   S    
C18   H2    S    
C32   H18   S    
