data_mof_unit_55156.cif
_audit_creation_date              2013-03-05T15:50:59-0500
_audit_creation_method            fapswitch 2.2
_symmetry_space_group_name_H-M    P1
_symmetry_Int_Tables_number       1
_space_group_crystal_system       triclinic
_cell_length_a                    6.947491
_cell_length_b                    17.519386
_cell_length_c                    19.376647
_cell_angle_alpha                 109.386809
_cell_angle_beta                  90.44293
_cell_angle_gamma                 90.505123
_cell_volume                      2224.48933302

loop_
_atom_site_label
_atom_site_type_symbol
_atom_site_description
_atom_site_fract_x
_atom_site_fract_y
_atom_site_fract_z
_atom_type_partial_charge
O1    O     O_R   0.505810 0.439670 0.562310 -0.600580
O2    O     O_R   0.169070 0.404920 0.411210 -0.554423
O3    O     O_R   0.005550 0.560330 0.437690 -0.594378
C1    C     C_R   0.338126 0.381849 0.382976 1.140224
O4    O     O_R   0.175650 0.430000 0.560110 -0.556865
O5    O     O_R   0.012170 0.585580 0.587650 -0.567019
C2    C     C_R   0.343965 0.417222 0.583595 1.040948
O6    O     O_R   0.499180 0.414420 0.412350 -0.576059
O7    O     O_3   0.341430 0.551020 0.508860 -0.263129
V1    V     V_3+5 0.063930 0.490540 0.498360 1.313760
O8    O     O_R   0.682850 0.595080 0.588790 -0.577196
C3    C     C_R   0.853069 0.618016 0.617094 1.023691
O9    O     O_R   0.676280 0.570000 0.439890 -0.579096
C4    C     C_R   0.843932 0.582890 0.416392 1.034613
V2    V     V_3+5 0.564760 0.509460 0.501640 1.287269
O10   O     O_3   0.837130 0.448980 0.491140 -0.240904
C5    C     C_R   0.066463 0.874347 0.187135 0.281835
C6    C     C_R   0.918221 0.869810 0.134862 -0.237585
C7    C     C_R   0.757181 0.819572 0.131398 -0.228536
C8    C     C_R   0.742948 0.772494 0.177114 0.166024
C9    C     C_R   0.892097 0.774643 0.227479 0.024981
C10   C     C_R   0.055065 0.825495 0.232586 0.028717
C11   C     C_R   0.581409 0.722734 0.172722 -0.200088
C12   C     C_R   0.566967 0.674914 0.217482 -0.126019
C13   C     C_R   0.714081 0.675508 0.268256 0.038263
C14   C     C_R   0.877451 0.726094 0.273147 0.024210
C15   C     C_R   0.026850 0.728084 0.323369 0.156037
C16   C     C_R   0.188199 0.777996 0.327867 -0.181877
C17   C     C_R   0.202171 0.826132 0.283362 -0.115400
C18   C     C_R   0.702227 0.626892 0.313918 0.275729
C19   C     C_R   0.851781 0.630644 0.365555 -0.243371
C20   C     C_R   0.013114 0.680673 0.368814 -0.211183
H1    H     H_    0.642614 0.816362 0.092124 0.156683
H2    H     H_    0.465084 0.720834 0.134531 0.145491
H3    H     H_    0.438209 0.638191 0.211853 0.194116
H4    H     H_    0.128177 0.683568 0.407815 0.168720
H5    H     H_    0.304667 0.779812 0.365976 0.154494
H6    H     H_    0.330745 0.862981 0.289025 0.195769
C21   C     C_3   0.713166 0.781401 0.771133 -0.031407
C22   C     C_3   0.809208 0.775872 0.697320 -0.217195
H7    H     H_    0.745981 0.797365 0.654386 0.187103
H8    H     H_    0.570106 0.807873 0.789329 0.186036
C23   C     C_3   0.869377 0.688226 0.687707 -0.223720
C24   C     C_3   0.773351 0.692973 0.760653 -0.051182
C25   C     C_3   0.965235 0.724910 0.802245 -0.262378
C26   C     C_3   0.060294 0.719415 0.728780 0.313370
C27   C     C_3   0.999170 0.806251 0.739270 0.336028
C28   C     C_3   0.905007 0.812611 0.812170 -0.309850
H9    H     H_    0.680859 0.645309 0.769753 0.178073
H10   H     H_    0.030303 0.703859 0.845147 0.171043
C29   C     C_3   0.555141 0.280524 0.279749 0.344555
C30   C     C_3   0.485621 0.193042 0.264838 0.242863
C31   C     C_3   0.415794 0.187910 0.187966 -0.470559
C32   C     C_3   0.484182 0.276355 0.202338 -0.270020
C33   C     C_3   0.285141 0.307305 0.235460 0.356731
C34   C     C_3   0.216619 0.219059 0.220787 0.300490
C35   C     C_3   0.288553 0.223316 0.297886 0.208965
C36   C     C_3   0.356068 0.311554 0.312426 -0.511627
H11   H     H_    0.566212 0.298894 0.163934 0.226764
C37   C     C_R   0.560186 0.124227 0.811839 0.318426
C38   C     C_R   0.419138 0.131009 0.865910 -0.234572
C39   C     C_R   0.265843 0.184334 0.872234 -0.137940
C40   C     C_R   0.253035 0.234086 0.828428 0.000146
C41   C     C_R   0.393851 0.227583 0.774387 0.034442
C42   C     C_R   0.548353 0.173067 0.766438 0.067186
C43   C     C_R   0.100872 0.289458 0.836667 0.317682
C44   C     C_R   0.086801 0.334791 0.789442 -0.246028
C45   C     C_R   0.224840 0.329386 0.735332 0.049358
C46   C     C_R   0.380078 0.275470 0.727994 0.005008
C47   C     C_R   0.521880 0.269457 0.674444 0.054187
C48   C     C_R   0.676426 0.216016 0.667828 0.315484
C49   C     C_R   0.688343 0.168913 0.713252 -0.205914
C50   C     C_R   0.212019 0.377382 0.689130 0.329655
C51   C     C_R   0.352321 0.369765 0.634566 -0.259962
C52   C     C_R   0.505839 0.316652 0.628589 -0.143440
H12   H     H_    0.156023 0.186423 0.912022 0.192135
H13   H     H_    0.967416 0.375738 0.797088 0.215599
H14   H     H_    0.611924 0.311916 0.586854 0.201864
H15   H     H_    0.810299 0.129350 0.706216 0.210245
O11   O     O_R   0.271890 0.085690 0.087580 -0.576510
O12   O     O_R   0.595690 0.070020 0.939870 -0.576255
O13   O     O_R   0.758900 0.914390 0.912370 -0.605750
C53   C     C_R   0.427372 0.082888 0.916370 1.031246
O14   O     O_R   0.602020 0.095100 0.088770 -0.553238
O15   O     O_R   0.765280 0.939660 0.062330 -0.585028
C54   C     C_R   0.433077 0.118040 0.117096 1.144114
O16   O     O_R   0.265520 0.060430 0.937620 -0.582344
O17   O     O_3   0.429560 0.949050 0.991100 -0.294785
V3    V     V_3+5 0.707160 0.009450 0.001650 1.286216
O18   O     O_R   0.094540 0.929890 0.060190 -0.589309
C55   C     C_R   0.926734 0.917235 0.083786 1.042312
O19   O     O_R   0.088200 0.904800 0.911290 -0.586333
C56   C     C_R   0.918496 0.882219 0.882925 1.044241
V4    V     V_3+5 0.206300 0.990390 0.998440 1.268613
O20   O     O_3   0.934030 0.050940 0.008900 -0.240543
Br1   Br    Br    0.275308 0.952025 0.201188 -0.451302
Br2   Br    Br    0.310903 0.673932 0.700014 -0.533868
N1    N     N_R   0.125532 0.865915 0.724742 0.252857
O21   O     O_R   0.192872 0.852146 0.659351 -0.357295
O22   O     O_R   0.173533 0.932422 0.776608 -0.373355
N2    N     N_R   0.598078 0.132935 0.283966 0.293466
O23   O     O_R   0.645019 0.145249 0.351929 -0.271290
O24   O     O_R   0.655025 0.067671 0.233577 -0.321221
Br3   Br    Br    0.802404 0.324022 0.321889 -0.362210
Br4   Br    Br    0.140495 0.388733 0.210436 -0.362697
Br5   Br    Br    0.968557 0.176424 0.178406 -0.364186
Br6   Br    Br    0.151938 0.182713 0.365651 -0.274312
Br7   Br    Br    0.758709 0.043266 0.795564 -0.483674
N3    N     N_R   0.962482 0.302880 0.894199 0.237167
O25   O     O_R   0.020949 0.320362 0.961705 -0.349902
O26   O     O_R   0.782839 0.314584 0.881568 -0.397430
Br8   Br    Br    0.011607 0.457522 0.704209 -0.550590
Br9   Br    Br    0.877471 0.203505 0.597297 -0.445014
Br10  Br    Br    0.489328 0.551283 0.301514 -0.497295

loop_
_geom_bond_atom_site_label_1
_geom_bond_atom_site_label_2
_geom_bond_distance
_ccdc_geom_bond_type
C24   H9    1.109663 S    
C22   C27   1.539348 S    
C53   O16   1.302182 A    
C9    C14   1.419986 A    
N2    O23   1.300228 A    
C10   C17   1.410536 A    
C50   C51   1.417853 A    
C7    C8    1.399901 A    
C44   H13   1.079969 S    
C4    C19   1.490094 S    
C1    O6    1.290280 A    
O15   C55   1.301686 A    
C31   C32   1.550080 S    
C30   C31   1.536628 S    
C14   C15   1.409526 A    
O13   V3    2.000737 S    
C33   Br4   1.938303 S    
C6    C55   1.489718 S    
C20   H4    1.084992 S    
C16   C17   1.395312 A    
O14   C54   1.308529 A    
C3    C23   1.508555 S    
N3    O26   1.301052 A    
O5    C3    1.294528 A    
C18   C19   1.422692 A    
C25   C28   1.545710 S    
V2    O10   2.154768 S    
O16   V4    2.005592 S    
C34   C35   1.549507 S    
C48   Br9   1.924263 S    
C6    C7    1.404696 A    
O11   C54   1.290762 A    
C32   C33   1.553725 S    
O8    V2    2.012459 S    
C22   C23   1.545917 S    
C27   C28   1.531911 S    
C16   H5    1.084314 S    
C45   C46   1.416614 A    
C17   H6    1.080748 S    
C11   C12   1.395134 A    
C31   C54   1.512527 S    
O1    V2    1.999382 S    
C2    C51   1.488363 S    
O7    V1    2.166980 S    
C38   C39   1.401997 A    
C37   Br7   1.938512 S    
C13   C14   1.416856 A    
O12   V3    2.000574 S    
C43   C44   1.400039 A    
C40   C43   1.414917 A    
N2    O24   1.299986 A    
O13   C56   1.296116 A    
O9    C4    1.298769 A    
C39   H12   1.081060 S    
C46   C47   1.415401 A    
C52   H14   1.081578 S    
O12   C53   1.300071 A    
O18   V4    1.999936 S    
C21   H8    1.110064 S    
C32   H11   1.110017 S    
O17   V4    1.704553 S    
C30   N2    1.458024 S    
C12   H3    1.080644 S    
C28   C56   1.503862 S    
C44   C45   1.406855 A    
C12   C13   1.410733 A    
C38   C53   1.489048 S    
C21   C22   1.556975 S    
C29   C36   1.551636 S    
O15   V3    1.999051 S    
C45   C50   1.419947 A    
C25   C26   1.548054 S    
C29   C30   1.535091 S    
C37   C38   1.416811 A    
V3    O20   1.714936 S    
O2    C1    1.309063 A    
C23   C24   1.545094 S    
C39   C40   1.406957 A    
C19   C20   1.404762 A    
C8    C11   1.399560 A    
C11   H2    1.084329 S    
C33   C34   1.546211 S    
O19   V4    2.012243 S    
C5    C6    1.421944 A    
C5    Br1   1.935048 S    
C41   C46   1.421935 A    
C8    C9    1.409549 A    
C27   N1    1.457920 S    
C34   Br5   1.936655 S    
C47   C48   1.409266 A    
O3    C4    1.302394 A    
C22   H7    1.109985 S    
C35   Br6   1.938664 S    
C26   Br2   1.929169 S    
C37   C42   1.418683 A    
O6    V2    2.008800 S    
N1    O22   1.299772 A    
O9    V2    1.999799 S    
C7    H1    1.085006 S    
O14   V3    1.997891 S    
O11   V4    2.009589 S    
O2    V1    1.997991 S    
C51   C52   1.401668 A    
C47   C52   1.404759 A    
C24   C25   1.552618 S    
C50   Br8   1.940027 S    
O4    C2    1.299475 A    
C18   Br10  1.936167 S    
C31   C34   1.553565 S    
C13   C18   1.419577 A    
C26   C27   1.530834 S    
C15   C20   1.399969 A    
O1    C2    1.302350 A    
O5    V1    2.000687 S    
O8    C3    1.302335 A    
C21   C24   1.555637 S    
C49   H15   1.079953 S    
C42   C49   1.407208 A    
C5    C10   1.419399 A    
C29   C32   1.553531 S    
C41   C42   1.418118 A    
C29   Br3   1.934074 S    
C48   C49   1.394543 A    
O3    V1    1.999265 S    
V1    O10   1.715008 S    
N3    O25   1.301317 A    
C35   C36   1.544388 S    
C25   H10   1.109987 S    
O19   C56   1.298489 A    
C43   N3    1.438390 S    
O7    V2    1.706685 S    
V4    O20   2.154779 S    
C23   C26   1.540611 S    
C30   C35   1.538432 S    
C40   C41   1.416039 A    
O4    V1    2.000412 S    
O17   V3    2.166891 S    
N1    O21   1.300283 A    
C33   C36   1.544916 S    
C1    C36   1.512822 S    
C15   C16   1.399786 A    
C9    C10   1.416811 A    
O18   C55   1.299358 A    
C21   C28   1.545882 S    
