data_mof_unit_21121.cif
_audit_creation_date              2013-03-05T15:58:25-0500
_audit_creation_method            fapswitch 2.2
_symmetry_space_group_name_H-M    P1
_symmetry_Int_Tables_number       1
_space_group_crystal_system       triclinic
_cell_length_a                    7.284486
_cell_length_b                    14.547394
_cell_length_c                    15.760918
_cell_angle_alpha                 89.999983
_cell_angle_beta                  89.999981
_cell_angle_gamma                 89.999954
_cell_volume                      1670.18901849

loop_
_atom_site_label
_atom_site_type_symbol
_atom_site_description
_atom_site_fract_x
_atom_site_fract_y
_atom_site_fract_z
_atom_type_partial_charge
O1    O     O_R   0.388780 0.834790 0.412340 -0.574206
O2    O     O_R   0.111220 0.165210 0.912340 -0.574209
O3    O     O_R   0.888780 0.665210 0.587660 -0.574202
O4    O     O_R   0.611220 0.334790 0.087660 -0.574207
O5    O     O_R   0.059040 0.845930 0.587040 -0.509113
O6    O     O_R   0.440960 0.154070 0.087040 -0.509118
O7    O     O_R   0.559040 0.654070 0.412960 -0.509118
O8    O     O_R   0.940960 0.345930 0.912960 -0.509120
C1    C     C_R   0.227990 0.869249 0.613862 0.973663
C2    C     C_R   0.272010 0.130751 0.113862 0.973661
C3    C     C_R   0.727990 0.630751 0.386138 0.973660
C4    C     C_R   0.772010 0.369249 0.886138 0.973658
O9    O     O_R   0.059070 0.845930 0.412970 -0.578875
O10   O     O_R   0.440930 0.154070 0.912970 -0.578873
O11   O     O_R   0.559070 0.654070 0.587030 -0.578879
O12   O     O_R   0.940930 0.345930 0.087030 -0.578874
O13   O     O_R   0.888760 0.665210 0.412340 -0.550744
O14   O     O_R   0.611240 0.334790 0.912340 -0.550744
O15   O     O_R   0.388760 0.834790 0.587660 -0.550745
O16   O     O_R   0.111240 0.165210 0.087660 -0.550743
C5    C     C_R   0.227894 0.865605 0.383178 1.020861
C6    C     C_R   0.272106 0.134395 0.883178 1.020861
C7    C     C_R   0.727894 0.634395 0.616821 1.020867
C8    C     C_R   0.772106 0.365605 0.116821 1.020862
O17   O     O_3   0.222280 0.690700 0.500000 -0.249895
O18   O     O_3   0.277720 0.309300 0.000000 -0.249895
O19   O     O_3   0.722280 0.809300 0.500000 -0.249891
O20   O     O_3   0.777720 0.190700 0.000000 -0.249890
V1    V     V_3+5 0.947430 0.761000 0.500000 1.374165
V2    V     V_3+5 0.552570 0.239000 0.000000 1.374161
V3    V     V_3+5 0.447430 0.739000 0.500000 1.374159
V4    V     V_3+5 0.052570 0.261000 0.000000 1.374158
C9    C     C_3   0.900458 0.593725 0.757069 0.425553
C10   C     C_3   0.599537 0.406277 0.257067 0.425548
C11   C     C_3   0.400463 0.906277 0.242933 0.425548
C12   C     C_3   0.099534 0.093721 0.742935 0.425545
C13   C     C_3   0.900973 0.521596 0.831869 0.472816
C14   C     C_3   0.599026 0.478404 0.331868 0.472826
C15   C     C_3   0.400975 0.978404 0.168132 0.472826
C16   C     C_3   0.099024 0.021595 0.668133 0.472832
H1    H     H_    0.860003 0.555287 0.892395 0.023596
H2    H     H_    0.639998 0.444710 0.392393 0.023587
H3    H     H_    0.360003 0.944710 0.107607 0.023587
H4    H     H_    0.139994 0.055290 0.607608 0.023583
H5    H     H_    0.879446 0.464638 0.607820 0.214291
H6    H     H_    0.620557 0.535363 0.107819 0.214291
H7    H     H_    0.379441 0.035363 0.392181 0.214291
H8    H     H_    0.120561 0.964636 0.892182 0.214292
H9    H     H_    0.948038 0.374604 0.726797 0.272043
H10   H     H_    0.551966 0.625398 0.226796 0.272045
H11   H     H_    0.448033 0.125398 0.273204 0.272044
H12   H     H_    0.051971 0.874600 0.773205 0.272048
C17   C     C_3   0.768746 0.468197 0.656004 -0.418388
C18   C     C_3   0.731257 0.531803 0.156003 -0.418394
C19   C     C_3   0.268743 0.031803 0.343997 -0.418395
C20   C     C_3   0.231260 0.968197 0.843997 -0.418402
C21   C     C_3   0.559952 0.563333 0.743121 -0.460087
C22   C     C_3   0.940048 0.436668 0.243121 -0.460073
C23   C     C_3   0.059952 0.936668 0.256879 -0.460072
C24   C     C_3   0.440047 0.063332 0.756879 -0.460066
C25   C     C_3   0.741359 0.567436 0.691709 -0.328283
C26   C     C_3   0.758641 0.432564 0.191708 -0.328283
C27   C     C_3   0.241359 0.932564 0.308291 -0.328283
C28   C     C_3   0.258641 0.067436 0.808292 -0.328280
H13   H     H_    0.448586 0.547894 0.698449 0.300804
H14   H     H_    0.051414 0.452108 0.198449 0.300801
H15   H     H_    0.948586 0.952107 0.301550 0.300801
H16   H     H_    0.551414 0.047893 0.801549 0.300801
H17   H     H_    0.526623 0.630318 0.773048 0.206532
H18   H     H_    0.973380 0.369684 0.273048 0.206544
H19   H     H_    0.026621 0.869683 0.226952 0.206544
H20   H     H_    0.473379 0.130317 0.726951 0.206548
C29   C     C_3   0.761359 0.442075 0.816172 -0.476145
C30   C     C_3   0.738641 0.557925 0.316172 -0.476142
C31   C     C_3   0.261359 0.057925 0.183828 -0.476143
C32   C     C_3   0.238641 0.942074 0.683828 -0.476140
C33   C     C_3   0.803197 0.398320 0.728616 -0.110456
C34   C     C_3   0.696806 0.601681 0.228615 -0.110457
C35   C     C_3   0.303194 0.101681 0.271385 -0.110458
C36   C     C_3   0.196809 0.898319 0.771385 -0.110460
C37   C     C_3   0.566554 0.486991 0.811710 0.690940
C38   C     C_3   0.933445 0.513009 0.311711 0.690931
C39   C     C_3   0.066555 0.013009 0.188289 0.690930
C40   C     C_3   0.433444 0.986992 0.688288 0.690926
H21   H     H_    0.531285 0.517504 0.874382 0.034346
H22   H     H_    0.968713 0.482496 0.374382 0.034346
H23   H     H_    0.031288 0.982496 0.125618 0.034347
H24   H     H_    0.468710 0.017505 0.625617 0.034345
H25   H     H_    0.642961 0.447041 0.620891 0.208497
H26   H     H_    0.857042 0.552959 0.120890 0.208498
H27   H     H_    0.142957 0.052959 0.379110 0.208498
H28   H     H_    0.357046 0.947042 0.879110 0.208499
H29   H     H_    0.715284 0.336738 0.718526 0.216511
H30   H     H_    0.784720 0.663262 0.218526 0.216511
H31   H     H_    0.215279 0.163262 0.281474 0.216510
H32   H     H_    0.284727 0.836738 0.781474 0.216508
N1    N     N_R   0.080421 0.592566 0.714019 0.271622
O21   O     O_R   0.179134 0.666978 0.708677 -0.401151
O22   O     O_R   0.141459 0.517787 0.678733 -0.363210
N2    N     N_R   0.419575 0.407442 0.214015 0.271616
O23   O     O_R   0.320862 0.333030 0.208666 -0.401147
O24   O     O_R   0.358540 0.482224 0.178735 -0.363202
N3    N     N_R   0.580425 0.907442 0.285985 0.271616
O25   O     O_R   0.679138 0.833030 0.291334 -0.401147
O26   O     O_R   0.641460 0.982224 0.321265 -0.363202
N4    N     N_R   0.919573 0.092554 0.785987 0.271613
O27   O     O_R   0.820860 0.166966 0.791340 -0.401144
O28   O     O_R   0.858540 0.017771 0.821265 -0.363197
F1    F     F_    0.434584 0.421279 0.792881 -0.561567
F2    F     F_    0.065416 0.578721 0.292882 -0.561564
F3    F     F_    0.934583 0.078721 0.207117 -0.561564
F4    F     F_    0.565417 0.921280 0.707116 -0.561562
N5    N     N_R   0.872403 0.686348 0.794331 0.193320
O29   O     O_R   0.768581 0.747568 0.757925 -0.359122
O30   O     O_R   0.975096 0.712655 0.857485 -0.376222
N6    N     N_R   0.627580 0.313652 0.294328 0.193327
O31   O     O_R   0.731451 0.252440 0.257939 -0.359139
O32   O     O_R   0.524863 0.287342 0.357473 -0.376222
N7    N     N_R   0.372421 0.813653 0.205673 0.193327
O33   O     O_R   0.268551 0.752440 0.242061 -0.359139
O34   O     O_R   0.475138 0.787342 0.142528 -0.376222
N8    N     N_R   0.127570 0.186347 0.705674 0.193330
O35   O     O_R   0.231459 0.247557 0.742055 -0.359148
O36   O     O_R   0.024843 0.212658 0.642533 -0.376223
F5    F     F_    0.077063 0.488072 0.845082 -0.582096
F6    F     F_    0.422937 0.511928 0.345084 -0.582094
F7    F     F_    0.577063 0.011928 0.154916 -0.582093
F8    F     F_    0.922936 0.988071 0.654917 -0.582089

loop_
_geom_bond_atom_site_label_1
_geom_bond_atom_site_label_2
_geom_bond_distance
_ccdc_geom_bond_type
O17   V3    1.784275 S    
C39   H23   1.112969 S    
C22   C26   1.551260 S    
O19   V1    1.784274 S    
O13   V1    2.008312 S    
C11   N7    1.483987 S    
C10   C26   1.597067 S    
O15   V3    2.008309 S    
C32   C40   1.563837 S    
N1    O21   1.302300 A    
O1    C5    1.336305 A    
O5    C1    1.344787 A    
C40   F4    1.387829 S    
C38   F2    1.387829 S    
O9    V1    2.017259 S    
C23   C39   1.550586 S    
C18   H26   1.113807 S    
C11   N3    1.476220 S    
C22   C38   1.550585 S    
O16   V4    2.008310 S    
C11   C15   1.578242 S    
O4    C8    1.336306 A    
N4    O27   1.302302 A    
C24   H20   1.109496 S    
C10   N6    1.483988 S    
C16   F8    1.388011 S    
O1    V3    2.008279 S    
N6    O31   1.301690 A    
O2    V4    2.008280 S    
O3    V1    2.008279 S    
C19   H27   1.113806 S    
C14   F6    1.388012 S    
C17   C25   1.562257 S    
C1    O15   1.339168 A    
C2    O16   1.339168 A    
C19   C27   1.562258 S    
O2    C6    1.336304 A    
C10   N2    1.476220 S    
C20   C28   1.562258 S    
O14   V2    2.008310 S    
C1    C32   1.531141 S    
C15   C31   1.560063 S    
C36   H32   1.112632 S    
O5    V1    2.017277 S    
C37   H21   1.112970 S    
C23   H15   1.097389 S    
O11   C7    1.347139 A    
H5    C17   1.108905 S    
O12   C8    1.347141 A    
C4    C29   1.531140 S    
C30   C38   1.563838 S    
H10   C34   1.110431 S    
C29   C37   1.563841 S    
N1    O22   1.300139 A    
C22   H14   1.097390 S    
O7    C3    1.344787 A    
C13   F5    1.388012 S    
N7    O34   1.302621 A    
O7    V3    2.017278 S    
C12   N4    1.476222 S    
O8    V4    2.017277 S    
C32   C36   1.549961 S    
C12   C16   1.578241 S    
C15   F7    1.388012 S    
O18   V4    1.784275 S    
C22   H18   1.109496 S    
C15   H3    1.113247 S    
C18   C26   1.562257 S    
O3    C7    1.336305 A    
C38   H22   1.112971 S    
C9    C13   1.578245 S    
C16   C32   1.560063 S    
N5    O30   1.302618 A    
C12   N8    1.483988 S    
C35   H31   1.112633 S    
C19   C35   1.551148 S    
C2    C31   1.531141 S    
C7    C25   1.533476 S    
O8    C4    1.344787 A    
H6    C18   1.108905 S    
N2    O24   1.300140 A    
O9    C5    1.347140 A    
N3    O26   1.300140 A    
O11   V3    2.017258 S    
O6    V2    2.017277 S    
C37   F1    1.387828 S    
C17   H25   1.113806 S    
C17   C33   1.551144 S    
C39   F3    1.387829 S    
N8    O36   1.302621 A    
H7    C19   1.108905 S    
N5    O29   1.301676 A    
C14   C30   1.560063 S    
H8    C20   1.108905 S    
C13   C29   1.560059 S    
C3    O13   1.339169 A    
C8    C26   1.533472 S    
C10   C14   1.578242 S    
C23   C27   1.551259 S    
C40   H24   1.112969 S    
C21   H13   1.097389 S    
C3    C30   1.531141 S    
O6    C2    1.344787 A    
N7    O33   1.301688 A    
C21   C25   1.551255 S    
O12   V4    2.017257 S    
C9    N5    1.483988 S    
C20   C36   1.551147 S    
C24   C28   1.551261 S    
O10   C6    1.347140 A    
O20   V2    1.784274 S    
O10   V2    2.017260 S    
H12   C36   1.110430 S    
H9    C33   1.110432 S    
C24   C40   1.550585 S    
C31   C39   1.563838 S    
N4    O28   1.300141 A    
C34   H30   1.112633 S    
C33   H29   1.112633 S    
N2    O23   1.302302 A    
N6    O32   1.302621 A    
C21   C37   1.550588 S    
C13   H1    1.113246 S    
H11   C35   1.110431 S    
C5    C27   1.533473 S    
C6    C28   1.533473 S    
C14   H2    1.113247 S    
C16   H4    1.113247 S    
C24   H16   1.097391 S    
C9    C25   1.597067 S    
C30   C34   1.549958 S    
C4    O14   1.339168 A    
N3    O25   1.302302 A    
C29   C33   1.549955 S    
C11   C27   1.597066 S    
C9    N1    1.476216 S    
C21   H17   1.109500 S    
N8    O35   1.301692 A    
C12   C28   1.597066 S    
C20   H28   1.113806 S    
C31   C35   1.549957 S    
O4    V2    2.008279 S    
C23   H19   1.109498 S    
C18   C34   1.551148 S    
