data_mof_unit_6105.cif
_audit_creation_date              2012-12-10T18:59:17-0500
_audit_creation_method            fapswitch 2.2
_symmetry_space_group_name_H-M    P1
_symmetry_Int_Tables_number       1
_space_group_crystal_system       triclinic
_cell_length_a                    10.761363
_cell_length_b                    10.805746
_cell_length_c                    9.57869
_cell_angle_alpha                 90.599171
_cell_angle_beta                  90.49809
_cell_angle_gamma                 90.997782
_cell_volume                      1113.58003734

loop_
_atom_site_label
_atom_site_type_symbol
_atom_type_description
_atom_site_fract_x
_atom_site_fract_y
_atom_site_fract_z
_atom_type_partial_charge
C1    C     C_R   0.506437 0.262450 0.499219 0.821985
C2    C     C_R   0.063909 0.390069 0.563333 0.105079
C3    C     C_R   0.128639 0.488639 0.498422 -0.075694
C4    C     C_R   0.064971 0.582205 0.430520 -0.170599
C5    C     C_R   0.936769 0.582868 0.431635 -0.194377
C6    C     C_R   0.870768 0.489570 0.499962 -0.064368
C7    C     C_R   0.517307 0.065165 0.624148 0.066908
C8    C     C_R   0.525872 0.129550 0.498593 -0.194165
C9    C     C_R   0.558551 0.062111 0.376663 0.391181
C10   C     C_R   0.555081 0.932784 0.379094 -0.254196
C11   C     C_R   0.522651 0.870422 0.501830 -0.161157
C12   C     C_R   0.262608 0.496568 0.499506 0.793501
C13   C     C_R   0.516229 0.938127 0.625856 0.109929
C14   C     C_3   0.424982 0.932249 0.742129 -0.427287
C15   C     C_3   0.426302 0.072894 0.740735 -0.409935
C16   C     C_R   0.562366 0.590747 0.075732 0.130455
C17   C     C_R   0.424672 0.420909 0.070826 0.388790
C18   C     C_R   0.425207 0.421447 0.922676 -0.055600
C19   C     C_R   0.566468 0.587467 0.929133 0.151987
C20   C     C_3   0.704149 0.613378 0.932007 0.204021
C21   C     C_3   0.696131 0.625810 0.089768 -0.478691
C22   C     C_R   0.504447 0.737534 0.500622 0.809650
C23   C     C_R   0.737240 0.497344 0.500239 0.776362
C24   C     C_R   0.126410 0.289973 0.624489 -0.160724
C25   C     C_R   0.059917 0.192291 0.684190 -0.121979
C26   C     C_R   0.930628 0.191545 0.682293 -0.083831
C27   C     C_R   0.867073 0.288793 0.621477 -0.083538
C28   C     C_R   0.932603 0.389956 0.562898 0.118396
Cu1   Cu    Cu3+1 0.499990 0.499980 0.640670 0.978471
Cu2   Cu    Cu3+1 0.500010 0.500020 0.359330 1.023029
H1    H     H_    0.114992 0.656662 0.379311 0.151336
H2    H     H_    0.466291 0.893697 0.838814 0.205957
H3    H     H_    0.336301 0.111918 0.707505 0.178927
H4    H     H_    0.468216 0.115443 0.836686 0.237858
H5    H     H_    0.366275 0.356785 0.864522 0.151647
H6    H     H_    0.730916 0.700874 0.879267 0.108909
H7    H     H_    0.751524 0.557054 0.147472 0.263921
H8    H     H_    0.709076 0.722745 0.127837 0.155725
H9    H     H_    0.226576 0.285319 0.624664 0.130063
H10   H     H_    0.108711 0.116086 0.730702 0.139889
H11   H     H_    0.879308 0.114876 0.727209 0.144636
H12   H     H_    0.766690 0.283266 0.620023 0.143042
H13   H     H_    0.888652 0.657728 0.381035 0.144337
H14   H     H_    0.572963 0.881695 0.283632 0.188329
H15   H     H_    0.334212 0.890034 0.709322 0.195456
N1    N     N_R   0.500790 0.500930 0.147930 -0.188286
N2    N     N_R   0.500790 0.500890 0.852020 -0.185800
O1    O     O_R   0.500000 0.319640 0.618810 -0.597963
O2    O     O_R   0.500010 0.319680 0.381230 -0.488038
O3    O     O_R   0.319640 0.499980 0.618820 -0.592533
O4    O     O_R   0.319650 0.500020 0.381230 -0.543852
O5    O     O_R   0.499990 0.680320 0.618770 -0.585408
O6    O     O_R   0.500000 0.680360 0.381190 -0.588501
O7    O     O_R   0.680350 0.499980 0.618770 -0.534235
O8    O     O_R   0.680360 0.500020 0.381180 -0.580865
Br1   Br    Br    0.312171 0.305105 0.154907 -0.446428
Cl1   Cl    Cl    0.796385 0.482781 0.887725 -0.563629
Cl2   Cl    Cl    0.601404 0.131610 0.217907 -0.578097

loop_
_geom_bond_atom_site_label_1
_geom_bond_atom_site_label_2
_ccdc_geom_bond_type
C12   O3    A    
Cu2   O4    S    
C1    O1    A    
C23   O8    A    
Cu1   Cu2   S    
C22   O6    A    
C1    C8    S    
C9    C10   A    
C11   C22   S    
C19   C20   S    
C27   H12   S    
Cu1   O7    S    
C18   N2    A    
C24   H9    S    
C7    C15   S    
C17   C18   A    
C5    H13   S    
C7    C8    A    
C13   C14   S    
C24   C25   A    
C11   C13   A    
C17   Br1   S    
C26   C27   A    
C16   C21   S    
Cu1   N2    S    
C16   C19   A    
C6    C23   S    
C22   O5    A    
Cu2   O2    S    
Cu2   N1    S    
C2    C3    A    
C14   H15   S    
Cu1   O3    S    
C25   H10   S    
C2    C24   A    
C5    C6    A    
Cu2   O6    S    
C19   N2    A    
C4    H1    S    
C10   C11   A    
Cu1   O1    S    
C10   H14   S    
C3    C4    A    
C20   H6    S    
C7    C13   A    
C12   O4    A    
C21   H7    S    
C17   N1    A    
C23   O7    A    
C20   C21   S    
C9    Cl2   S    
C18   H5    S    
C16   N1    A    
C27   C28   A    
C20   Cl1   S    
C14   C15   S    
C4    C5    A    
C2    C28   A    
C3    C12   S    
C15   H4    S    
C25   C26   A    
C1    O2    A    
Cu2   O8    S    
C15   H3    S    
C6    C28   A    
C21   H8    S    
C26   H11   S    
C14   H2    S    
C8    C9    A    
Cu1   O5    S    
