data_mof_unit_45882.cif
_audit_creation_date              2012-12-10T20:46:24-0500
_audit_creation_method            fapswitch 2.2
_symmetry_space_group_name_H-M    P1
_symmetry_Int_Tables_number       1
_space_group_crystal_system       triclinic
_cell_length_a                    10.16445
_cell_length_b                    8.989954
_cell_length_c                    8.125885
_cell_angle_alpha                 89.203078
_cell_angle_beta                  87.140182
_cell_angle_gamma                 90.935532
_cell_volume                      741.422417316

loop_
_atom_site_label
_atom_site_type_symbol
_atom_type_description
_atom_site_fract_x
_atom_site_fract_y
_atom_site_fract_z
_atom_type_partial_charge
C1    C     C_R   0.499871 0.217925 0.500708 0.927707
C2    C     C_1   0.499196 0.934923 0.498998 -0.182877
C3    C     C_3   0.961149 0.703006 0.207615 -0.374533
C4    C     C_3   0.104290 0.751041 0.164782 -0.858110
C5    C     C_3   0.073566 0.378075 0.243495 -0.435983
C6    C     C_3   0.073701 0.216457 0.302280 -0.909521
C7    C     C_3   0.888990 0.835685 0.631945 0.124479
C8    C     C_3   0.027306 0.885425 0.565753 -0.339065
C9    C     C_3   0.093043 0.993317 0.679268 -1.002577
C10   C     C_3   0.046959 0.417700 0.785801 0.055001
C11   C     C_3   0.906258 0.353125 0.799376 -0.350947
C12   C     C_R   0.499015 0.782060 0.499307 0.997404
C13   C     C_3   0.886119 0.222931 0.922111 -0.957495
C14   C     C_R   0.256559 0.488472 0.504653 0.828441
C15   C     C_R   0.742091 0.519322 0.495347 0.797843
C16   C     C_2   0.944420 0.601301 0.359509 0.032266
C17   C     C_2   0.040333 0.481375 0.384219 0.030202
C18   C     C_2   0.851889 0.627909 0.479726 0.350316
C19   C     C_2   0.111740 0.485862 0.520211 0.241374
C20   C     C_1   0.499511 0.065049 0.501031 -0.211960
H1    H     H_    0.156809 0.782515 0.275512 0.253453
H2    H     H_    0.168644 0.406691 0.177575 0.236446
H3    H     H_    0.894631 0.758988 0.740365 0.159717
H4    H     H_    0.835426 0.934980 0.676905 0.161395
H5    H     H_    0.091709 0.788336 0.551533 0.249211
H6    H     H_    0.020108 0.939560 0.443486 0.240296
H7    H     H_    0.042411 0.100802 0.673826 0.279040
H8    H     H_    0.197664 0.011857 0.636888 0.265072
H9    H     H_    0.089164 0.949012 0.807479 0.276970
H10   H     H_    0.070890 0.466291 0.904983 0.165406
H11   H     H_    0.119762 0.328094 0.761664 0.135599
H12   H     H_    0.158669 0.660274 0.102197 0.261292
H13   H     H_    0.839027 0.443210 0.839030 0.243723
H14   H     H_    0.880477 0.314262 0.675670 0.212732
H15   H     H_    0.980393 0.169556 0.948648 0.266257
H16   H     H_    0.819571 0.137907 0.871376 0.264617
H17   H     H_    0.837418 0.260818 0.039023 0.272558
H18   H     H_    0.106107 0.848393 0.079357 0.240198
H19   H     H_    0.923175 0.643120 0.100655 0.193296
H20   H     H_    0.900889 0.804432 0.221889 0.242939
H21   H     H_    0.151902 0.199418 0.390933 0.257291
H22   H     H_    0.976094 0.185992 0.362024 0.264876
H23   H     H_    0.093656 0.142406 0.196186 0.258415
H24   H     H_    0.996568 0.388847 0.153911 0.225871
N1    N     N_1   0.500000 0.500000 0.073640 -0.041602
N2    N     N_1   0.500000 0.500000 0.926360 -0.041304
O1    O     O_R   0.500000 0.285350 0.636850 -0.611503
O2    O     O_3   0.054534 0.535180 0.667629 -0.690152
O3    O     O_R   0.500000 0.714650 0.636850 -0.603351
O4    O     O_R   0.500000 0.285360 0.363100 -0.604437
O5    O     O_R   0.500000 0.714640 0.363100 -0.607336
O6    O     O_R   0.319080 0.500000 0.636840 -0.597612
O7    O     O_R   0.680920 0.500000 0.636840 -0.616334
O8    O     O_R   0.319090 0.500000 0.363090 -0.628148
O9    O     O_R   0.680910 0.500000 0.363090 -0.608539
O10   O     O_3   0.814742 0.773638 0.506316 -0.681875
Zn1   Zn    Zn3+2 0.500000 0.500000 0.682780 0.974945
Zn2   Zn    Zn3+2 0.500000 0.500000 0.317220 0.968615

loop_
_geom_bond_atom_site_label_1
_geom_bond_atom_site_label_2
_ccdc_geom_bond_type
C15   C18   S    
C4    H1    S    
C18   O10   S    
O1    Zn1   S    
C8    H6    S    
C1    O4    A    
C10   H10   S    
C13   H17   S    
C9    H9    S    
C2    C12   S    
O8    Zn2   S    
C12   O3    A    
C3    H19   S    
C7    C8    S    
O5    Zn2   S    
N1    N2    T    
C8    H5    S    
C11   C13   S    
C4    H12   S    
C7    O10   S    
C7    H3    S    
C15   O7    A    
C14   C19   S    
C17   C19   D    
C5    H24   S    
C4    H18   S    
C3    H20   S    
C13   H15   S    
C6    H23   S    
N2    Zn1   S    
C10   O2    S    
C5    C6    S    
N1    Zn2   S    
C5    C17   S    
C10   C11   S    
C5    H2    S    
C2    C20   T    
C7    H4    S    
O4    Zn2   S    
C16   C17   S    
C11   H13   S    
C12   O5    A    
O3    Zn1   S    
C9    H7    S    
C13   H16   S    
C16   C18   D    
O6    Zn1   S    
O9    Zn2   S    
O7    Zn1   S    
C19   O2    S    
C1    O1    A    
C1    C20   S    
C14   O8    A    
C6    H22   S    
C10   H11   S    
C11   H14   S    
C14   O6    A    
C3    C16   S    
C3    C4    S    
C9    H8    S    
C8    C9    S    
C6    H21   S    
C15   O9    A    
