data_mof_unit_61403.cif
_audit_creation_date              2012-12-10T16:55:51-0500
_audit_creation_method            fapswitch 2.2
_symmetry_space_group_name_H-M    P1
_symmetry_Int_Tables_number       1
_space_group_crystal_system       triclinic
_cell_length_a                    14.34996
_cell_length_b                    10.940777
_cell_length_c                    9.68654
_cell_angle_alpha                 90.181911
_cell_angle_beta                  90.087762
_cell_angle_gamma                 90.21852
_cell_volume                      1520.7634556

loop_
_atom_site_label
_atom_site_type_symbol
_atom_type_description
_atom_site_fract_x
_atom_site_fract_y
_atom_site_fract_z
_atom_type_partial_charge
C1    C     C_R   0.499453 0.265265 0.499900 0.842326
C2    C     C_1   0.771285 0.499859 0.500149 -0.194344
C3    C     C_2   0.505850 0.932916 0.387093 -0.154411
C4    C     C_2   0.507641 0.866692 0.503166 -0.315429
C5    C     C_2   0.511392 0.066697 0.388096 -0.163321
C6    C     C_2   0.495358 0.133273 0.501828 -0.328638
C7    C     C_2   0.434024 0.451288 0.922119 -0.196021
C8    C     C_2   0.440094 0.436947 0.078128 0.520416
C9    C     C_R   0.331056 0.499811 0.499933 0.815832
C10   C     C_R   0.501642 0.734740 0.500308 0.841928
C11   C     C_R   0.668955 0.499995 0.500046 0.808607
C12   C     C_1   0.228746 0.499596 0.499743 -0.183824
C13   C     C_1   0.143353 0.499499 0.499710 -0.004066
C14   C     C_1   0.042719 0.499505 0.499799 0.005324
C15   C     C_1   0.957322 0.499583 0.499929 0.005385
C16   C     C_1   0.856684 0.499726 0.500084 -0.007429
Cu1   Cu    Cu3+1 0.500020 0.500020 0.638630 0.934732
Cu2   Cu    Cu3+1 0.499980 0.499980 0.361370 0.973734
H1    H     H_    0.501752 0.888273 0.286920 0.166300
H2    H     H_    0.516390 0.908001 0.604040 0.148920
H3    H     H_    0.527065 0.111202 0.290815 0.164557
H4    H     H_    0.476872 0.092284 0.599592 0.147641
H5    H     H_    0.372003 0.417448 0.870508 0.171548
H6    H     H_    0.560544 0.522756 0.894311 0.187967
H7    H     H_    0.542089 0.560471 0.105112 0.145412
N1    N     N_2   0.499070 0.498660 0.846910 -0.289870
N2    N     N_2   0.499040 0.498630 0.153040 -0.303348
O1    O     O_R   0.500010 0.321960 0.617040 -0.574872
O2    O     O_R   0.499990 0.321920 0.382900 -0.544720
O3    O     O_R   0.376070 0.500020 0.617100 -0.564268
O4    O     O_R   0.376040 0.499980 0.382950 -0.500911
O5    O     O_R   0.500010 0.678080 0.617100 -0.567975
O6    O     O_R   0.499990 0.678040 0.382960 -0.577779
O7    O     O_R   0.623960 0.500020 0.617050 -0.558539
O8    O     O_R   0.623930 0.499980 0.382900 -0.562988
O9    O     O_3   0.373538 0.367203 0.145767 -0.536802
C17   C     C_3   0.374179 0.246004 0.095287 0.055032
H8    H     H_    0.445990 0.207573 0.096024 0.128887
H9    H     H_    0.345225 0.240927 0.988940 0.127203
C18   C     C_3   0.312891 0.167197 0.187415 -0.757579
H10   H     H_    0.239508 0.198688 0.181517 0.243770
H11   H     H_    0.316251 0.070342 0.153207 0.196590
H12   H     H_    0.336810 0.173561 0.296207 0.255023

loop_
_geom_bond_atom_site_label_1
_geom_bond_atom_site_label_2
_ccdc_geom_bond_type
C15   C16   S    
C1    O1    A    
C3    H1    S    
C17   H8    S    
C17   C18   S    
C2    C16   T    
Cu2   O8    S    
C11   O8    A    
Cu1   Cu2   S    
C7    C8    S    
C17   H9    S    
Cu2   O2    S    
C13   C14   S    
Cu1   O3    S    
C7    N1    D    
C9    O3    A    
C7    H5    S    
Cu1   N1    S    
C1    O2    A    
O9    C17   S    
C9    C12   S    
H6    N1    S    
C10   O6    A    
C11   O7    A    
C5    C6    D    
Cu2   O6    S    
H7    N2    S    
Cu1   O7    S    
C9    O4    A    
C4    C10   S    
C3    C4    D    
C4    H2    S    
C10   O5    A    
C5    H3    S    
C12   C13   T    
C8    O9    S    
Cu1   O5    S    
C8    N2    D    
C14   C15   T    
C18   H10   S    
C2    C11   S    
Cu2   O4    S    
Cu1   O1    S    
C18   H12   S    
Cu2   N2    S    
C1    C6    S    
C18   H11   S    
C3    C5    S    
C6    H4    S    
