data_mof_unit_62138.cif
_audit_creation_date              2013-03-05T16:28:37-0500
_audit_creation_method            fapswitch 2.2
_symmetry_space_group_name_H-M    P1
_symmetry_Int_Tables_number       1
_space_group_crystal_system       triclinic
_cell_length_a                    23.489553
_cell_length_b                    22.51451
_cell_length_c                    27.763183
_cell_angle_alpha                 90.000011
_cell_angle_beta                  89.9806
_cell_angle_gamma                 90.0
_cell_volume                      14682.7188457

loop_
_atom_site_label
_atom_site_type_symbol
_atom_site_description
_atom_site_fract_x
_atom_site_fract_y
_atom_site_fract_z
_atom_type_partial_charge
O1    O     O_R   0.416150 0.549570 0.500020 -0.554053
O2    O     O_R   0.583850 0.450430 0.499980 -0.557633
O3    O     O_R   0.583850 0.549570 0.499980 -0.554056
O4    O     O_R   0.416150 0.450430 0.500020 -0.557631
C1    C     C_R   0.389033 0.500006 0.499889 1.020036
C2    C     C_R   0.610966 0.500006 0.500111 1.020039
O5    O     O_R   0.500010 0.549550 0.428760 -0.541711
O6    O     O_R   0.499990 0.450450 0.571240 -0.538653
O7    O     O_R   0.499990 0.549550 0.571240 -0.541713
O8    O     O_R   0.500010 0.450450 0.428760 -0.538655
O9    O     O_2   0.598235 0.842583 0.513612 -0.427622
O10   O     O_2   0.401818 0.157419 0.513939 -0.427136
O11   O     O_2   0.401765 0.842582 0.486387 -0.427620
O12   O     O_2   0.598182 0.157419 0.486061 -0.427138
C3    C     C_R   0.499922 0.499967 0.405687 1.025566
C4    C     C_R   0.500077 0.499967 0.594313 1.025566
Zn1   Zn    Zn3+2 0.500000 0.566180 0.500000 1.178388
Zn2   Zn    Zn3+2 0.500000 0.433820 0.500000 1.178489
C5    C     C_R   0.528918 0.253289 0.536458 0.114036
C6    C     C_R   0.471236 0.746713 0.536560 0.114188
C7    C     C_R   0.471082 0.253289 0.463542 0.114037
C8    C     C_R   0.528764 0.746713 0.463440 0.114186
C9    C     C_R   0.448323 0.511391 0.176052 0.774658
C10   C     C_R   0.551677 0.511390 0.823948 0.774659
O13   O     O_2   0.399942 0.522468 0.200694 -0.381522
O14   O     O_2   0.600058 0.522467 0.799306 -0.381522
N1    N     N_R   0.497585 0.500494 0.200570 -0.318604
N2    N     N_R   0.502415 0.500494 0.799430 -0.318604
C11   C     C_R   0.547829 0.489320 0.177530 0.711092
C12   C     C_R   0.452170 0.489320 0.822470 0.711093
C13   C     C_R   0.500574 0.444962 0.276863 0.166792
C14   C     C_R   0.499425 0.444962 0.723137 0.166792
C15   C     C_R   0.502485 0.445584 0.327240 0.563933
C16   C     C_R   0.497515 0.445584 0.672760 0.563935
C17   C     C_R   0.494455 0.553432 0.327015 0.538343
C18   C     C_R   0.505545 0.553432 0.672985 0.538342
C19   C     C_R   0.493353 0.552997 0.277049 0.636468
C20   C     C_R   0.506648 0.552997 0.722951 0.636469
C21   C     C_R   0.496325 0.499305 0.251955 -0.181521
C22   C     C_R   0.503675 0.499305 0.748045 -0.181521
C23   C     C_R   0.499049 0.496763 0.101076 -0.204315
C24   C     C_R   0.500951 0.496763 0.898923 -0.204315
C25   C     C_R   0.447941 0.510032 0.125611 -0.268534
C26   C     C_R   0.552059 0.510032 0.874389 -0.268534
C27   C     C_R   0.398334 0.522242 0.099115 0.670478
C28   C     C_R   0.601666 0.522241 0.900885 0.670479
C29   C     C_R   0.549639 0.486526 0.127099 -0.179237
C30   C     C_R   0.450361 0.486526 0.872901 -0.179236
C31   C     C_R   0.499161 0.499728 0.352702 -0.495867
C32   C     C_R   0.500839 0.499728 0.647298 -0.495866
C33   C     C_R   0.448285 0.487104 0.974372 -0.019420
C34   C     C_R   0.551715 0.487103 0.025628 -0.019420
C35   C     C_R   0.552195 0.498418 0.975476 -0.095709
C36   C     C_R   0.447805 0.498419 0.024524 -0.095709
C37   C     C_R   0.500473 0.493909 0.949597 0.005728
C38   C     C_R   0.499526 0.493909 0.050403 0.005728
C39   C     C_R   0.399205 0.469499 0.948107 0.198858
C40   C     C_R   0.600794 0.469497 0.051893 0.198858
C41   C     C_R   0.400211 0.471195 0.897665 0.652473
C42   C     C_R   0.599789 0.471194 0.102335 0.652473
O15   O     O_2   0.404412 0.480850 0.796344 -0.397257
O16   O     O_2   0.595588 0.480849 0.203656 -0.397257
C43   C     C_R   0.398483 0.517351 0.049198 0.586352
C44   C     C_R   0.601517 0.517350 0.950802 0.586351
C45   C     C_R   0.879516 0.495615 0.459106 0.718470
C46   C     C_R   0.120484 0.495621 0.540894 0.718471
N3    N     N_R   0.852609 0.497275 0.502668 -0.318526
N4    N     N_R   0.147391 0.497275 0.497332 -0.318526
C47   C     C_R   0.881640 0.496423 0.545231 0.768891
C48   C     C_R   0.118359 0.496417 0.454769 0.768892
C49   C     C_R   0.941218 0.494934 0.545228 -0.249050
C50   C     C_R   0.058782 0.494928 0.454772 -0.249051
C51   C     C_R   0.970033 0.494606 0.500546 -0.138041
C52   C     C_R   0.029967 0.494606 0.499455 -0.138041
C53   C     C_R   0.939036 0.494634 0.456951 -0.235469
C54   C     C_R   0.060964 0.494640 0.543049 -0.235469
C55   C     C_R   0.972588 0.494320 0.588405 0.638057
C56   C     C_R   0.027412 0.494307 0.411595 0.638057
C57   C     C_R   0.031770 0.494098 0.587329 0.641000
C58   C     C_R   0.968230 0.494086 0.412672 0.641002
C59   C     C_R   0.529544 0.315872 0.534556 0.654916
C60   C     C_R   0.470639 0.684129 0.534687 0.653718
C61   C     C_R   0.470456 0.315872 0.465444 0.654918
C62   C     C_R   0.529361 0.684130 0.465313 0.653717
O17   O     O_2   0.848394 0.495107 0.418251 -0.398925
O18   O     O_2   0.151605 0.495118 0.581749 -0.398925
O19   O     O_2   0.852587 0.497675 0.587165 -0.380882
O20   O     O_2   0.147413 0.497663 0.412835 -0.380882
C63   C     C_R   0.238081 0.447767 0.486119 0.636873
C64   C     C_R   0.761918 0.447769 0.513885 0.636875
C65   C     C_R   0.297023 0.447707 0.487264 0.528851
C66   C     C_R   0.702976 0.447708 0.512740 0.528845
C67   C     C_R   0.326688 0.500008 0.499000 -0.497739
C68   C     C_R   0.673311 0.500008 0.501000 -0.497738
C69   C     C_R   0.296273 0.552451 0.509360 0.551566
C70   C     C_R   0.703726 0.552449 0.490635 0.551563
C71   C     C_R   0.236729 0.552786 0.507863 0.168148
C72   C     C_R   0.763271 0.552785 0.492132 0.168147
C73   C     C_R   0.207962 0.499735 0.496322 -0.180337
C74   C     C_R   0.792038 0.499736 0.503678 -0.180336
N5    N     N_R   0.500000 0.345660 0.500000 -0.259299
N6    N     N_R   0.500000 0.654340 0.500000 -0.258979
C75   C     C_R   0.550308 0.873714 0.504884 0.692362
C76   C     C_R   0.449711 0.126286 0.505054 0.692434
C77   C     C_R   0.449692 0.873714 0.495116 0.692362
C78   C     C_R   0.550288 0.126286 0.494945 0.692434
N7    N     N_R   0.500000 0.843570 0.500000 -0.300512
N8    N     N_R   0.500000 0.156430 0.500000 -0.300487
C79   C     C_R   0.447943 0.936665 0.498596 -0.161434
C80   C     C_R   0.552051 0.063334 0.498413 -0.161504
C81   C     C_R   0.552056 0.936665 0.501404 -0.161434
C82   C     C_R   0.447949 0.063334 0.501587 -0.161505
C83   C     C_R   0.500000 0.968352 0.500000 -0.041092
C84   C     C_R   0.500000 0.031647 0.500000 -0.041039
C85   C     C_R   0.395967 0.968725 0.499565 0.227518
C86   C     C_R   0.604030 0.031272 0.499195 0.227526
C87   C     C_R   0.604032 0.968725 0.500434 0.227519
C88   C     C_R   0.395970 0.031272 0.500805 0.227527
C89   C     C_R   0.500000 0.221164 0.500000 -0.088089
C90   C     C_R   0.500000 0.778837 0.500000 -0.088055
N9    N     N_R   0.556498 0.223053 0.575707 0.289661
O21   O     O_R   0.603096 0.244207 0.594351 -0.152871
O22   O     O_R   0.533161 0.176483 0.595225 -0.298124
N10   N     N_R   0.443771 0.776951 0.575879 0.289860
O23   O     O_R   0.397197 0.755827 0.594615 -0.153234
O24   O     O_R   0.467164 0.823522 0.595337 -0.298098
N11   N     N_R   0.443501 0.223053 0.424293 0.289662
O25   O     O_R   0.396904 0.244207 0.405649 -0.152873
O26   O     O_R   0.466839 0.176483 0.404774 -0.298124
N12   N     N_R   0.556229 0.776951 0.424120 0.289861
O27   O     O_R   0.602803 0.755826 0.405385 -0.153232
O28   O     O_R   0.532836 0.823522 0.404663 -0.298097
F1    F     F_    0.351624 0.536341 0.025082 -0.539704
F2    F     F_    0.648376 0.536339 0.974918 -0.539704
F3    F     F_    0.946417 0.494170 0.632040 -0.490787
F4    F     F_    0.053583 0.494152 0.367960 -0.490787
F5    F     F_    0.060088 0.493820 0.629978 -0.491520
F6    F     F_    0.939912 0.493802 0.370023 -0.491521
F7    F     F_    0.209772 0.396823 0.475589 -0.523918
F8    F     F_    0.790228 0.396827 0.524420 -0.523918
F9    F     F_    0.324782 0.396497 0.476423 -0.508464
F10   F     F_    0.675218 0.396501 0.523586 -0.508461
F11   F     F_    0.324317 0.603455 0.520416 -0.520265
F12   F     F_    0.675683 0.603452 0.479575 -0.520262
N13   N     N_R   0.205861 0.606621 0.518135 0.283208
O29   O     O_R   0.158994 0.619038 0.495283 -0.307779
O30   O     O_R   0.225554 0.644780 0.549141 -0.166212
N14   N     N_R   0.794139 0.606618 0.481856 0.283208
O31   O     O_R   0.841006 0.619038 0.504706 -0.307779
O32   O     O_R   0.774446 0.644773 0.450846 -0.166212
F13   F     F_    0.558591 0.347261 0.568172 -0.498689
F14   F     F_    0.441819 0.652747 0.568467 -0.499844
F15   F     F_    0.441408 0.347261 0.431828 -0.498692
F16   F     F_    0.558181 0.652747 0.431533 -0.499840
F17   F     F_    0.490767 0.606562 0.349942 -0.509110
F18   F     F_    0.509234 0.606562 0.650058 -0.509112
F19   F     F_    0.489960 0.605144 0.252665 -0.524163
F20   F     F_    0.510041 0.605144 0.747335 -0.524163
F21   F     F_    0.349492 0.539852 0.121087 -0.487883
F22   F     F_    0.650508 0.539850 0.878913 -0.487882
N15   N     N_R   0.342291 0.938404 0.500783 0.271603
O33   O     O_R   0.326543 0.910735 0.539717 -0.202823
O34   O     O_R   0.306384 0.944558 0.465466 -0.210348
N16   N     N_R   0.657712 0.061591 0.500210 0.271618
O35   O     O_R   0.673646 0.089236 0.539092 -0.202638
O36   O     O_R   0.693452 0.055451 0.464750 -0.210561
N17   N     N_R   0.657709 0.938404 0.499216 0.271603
O37   O     O_R   0.673456 0.910735 0.460282 -0.202824
O38   O     O_R   0.693616 0.944558 0.534533 -0.210349
N18   N     N_R   0.342288 0.061591 0.499790 0.271618
O39   O     O_R   0.326354 0.089236 0.460908 -0.202637
O40   O     O_R   0.306548 0.055451 0.535250 -0.210561
F23   F     F_    0.493580 0.393099 0.648857 -0.517666
F24   F     F_    0.506419 0.393099 0.351143 -0.517667
N19   N     N_R   0.497179 0.389346 0.748718 0.286318
O41   O     O_R   0.466938 0.345404 0.732221 -0.179392
O42   O     O_R   0.527173 0.381348 0.787576 -0.306491
N20   N     N_R   0.502820 0.389346 0.251282 0.286318
O43   O     O_R   0.533061 0.345403 0.267778 -0.179392
O44   O     O_R   0.472825 0.381348 0.212424 -0.306491
F25   F     F_    0.352886 0.454453 0.873005 -0.507437
F26   F     F_    0.647114 0.454451 0.126995 -0.507437
N21   N     N_R   0.351432 0.441899 0.971682 0.282039
O45   O     O_R   0.299828 0.450838 0.956244 -0.136099
O46   O     O_R   0.359793 0.403716 0.006164 -0.288484
N22   N     N_R   0.648567 0.441898 0.028318 0.282039
O47   O     O_R   0.700171 0.450836 0.043756 -0.136100
O48   O     O_R   0.640205 0.403715 0.993835 -0.288484

loop_
_geom_bond_atom_site_label_1
_geom_bond_atom_site_label_2
_geom_bond_distance
_ccdc_geom_bond_type
C46   N4    1.364929 A    
C69   F11   1.359018 S    
C6    C60   1.410057 A    
O2    Zn2   2.004785 S    
C50   C52   1.412982 A    
C62   N6    1.361046 A    
C51   C52   1.408141 A    
C27   F21   1.358334 S    
C54   C57   1.407520 A    
C76   N8    1.369504 A    
Zn1   N6    1.984879 S    
O3    C2    1.284902 A    
C48   O20   1.349599 S    
C82   C84   1.416234 A    
N20   O43   1.301304 A    
N16   O36   1.300978 A    
N17   O38   1.300978 A    
C59   N5    1.360991 A    
C87   N17   1.434164 S    
C8    C90   1.417552 A    
C77   N7    1.369498 A    
C72   N14   1.440839 S    
C63   C73   1.396293 A    
O1    C1    1.284904 A    
C43   F1    1.357593 S    
C12   C30   1.402170 A    
N16   O35   1.301173 A    
C17   C19   1.387489 A    
O7    C4    1.287071 A    
C10   O14   1.349522 S    
O10   C76   1.348181 S    
O8    C3    1.285788 A    
N21   O46   1.301623 A    
N13   O29   1.301173 A    
C75   N7    1.369500 A    
C35   C44   1.411615 A    
C56   C58   1.390481 A    
N20   O44   1.301214 A    
C39   C41   1.401137 A    
N1    C11   1.365602 A    
C36   C43   1.411615 A    
C88   N18   1.434151 S    
C40   C42   1.401137 A    
C9    C25   1.400768 A    
C86   C87   1.408636 A    
N9    O22   1.301291 A    
C75   C81   1.421197 A    
C19   F19   1.357622 S    
C41   F25   1.359071 S    
C50   C56   1.407372 A    
N13   O30   1.301319 A    
C29   C42   1.406764 A    
C62   F16   1.355232 S    
C7    C61   1.410075 A    
N1    C21   1.427165 S    
C63   F7    1.357701 S    
C6    C90   1.417555 A    
C70   C72   1.399323 A    
C17   C31   1.408146 A    
C13   C15   1.399414 A    
C33   C39   1.420748 A    
C9    N1    1.364927 A    
C63   C65   1.384893 A    
C66   F10   1.358273 S    
C53   C58   1.407521 A    
C80   C84   1.416236 A    
C47   O19   1.349599 S    
C79   C83   1.416235 A    
O4    Zn2   2.004787 S    
O5    C3    1.287071 A    
C46   C54   1.399531 A    
O6    C4    1.285788 A    
C8    N12   1.439053 S    
C60   N6    1.361045 A    
C51   C53   1.412668 A    
N8    C89   1.457450 S    
O2    C2    1.285139 A    
C24   C26   1.412040 A    
C64   C74   1.396296 A    
N15   O34   1.300980 A    
N2    C22   1.427165 S    
C26   C28   1.405383 A    
N15   O33   1.301174 A    
C44   F2    1.357593 S    
C35   C37   1.415328 A    
C42   F26   1.359071 S    
C14   N19   1.440529 S    
C36   C38   1.415327 A    
C16   C32   1.411311 A    
C47   C49   1.399852 A    
C13   N20   1.440528 S    
N14   O31   1.301175 A    
C20   F20   1.357620 S    
N19   O42   1.301212 A    
C71   C73   1.409281 A    
N17   O37   1.301176 A    
C76   C82   1.421208 A    
C45   N3    1.364930 A    
C59   F13   1.355149 S    
C27   C43   1.390233 A    
O6    Zn2   2.012973 S    
C28   C44   1.390233 A    
N3    C47   1.364666 A    
Zn2   N5    1.984879 S    
C14   C16   1.399414 A    
C85   N15   1.434166 S    
N12   O28   1.301293 A    
N21   O45   1.301507 A    
N11   O26   1.301291 A    
C23   C38   1.408376 A    
C24   C37   1.408379 A    
C65   C67   1.406586 A    
C64   C66   1.384893 A    
N19   O41   1.301306 A    
C85   C88   1.408636 A    
C28   F22   1.358334 S    
C66   C68   1.406583 A    
C23   C29   1.409901 A    
C55   C57   1.390479 A    
C81   C83   1.416235 A    
C24   C30   1.409900 A    
C68   C70   1.409649 A    
C15   F24   1.358425 S    
C25   C27   1.405382 A    
N9    O21   1.301233 A    
C34   C40   1.420748 A    
N3    C74   1.424123 S    
O11   C77   1.348186 S    
C57   F5    1.358331 S    
C11   C29   1.402168 A    
C72   C74   1.409280 A    
C10   C26   1.400768 A    
C55   F3    1.358327 S    
C40   N22   1.439891 S    
C7    N11   1.439093 S    
C52   C54   1.412667 A    
N22   O48   1.301623 A    
N11   O25   1.301232 A    
C80   C86   1.418568 A    
N7    C90   1.457434 S    
C49   C55   1.407372 A    
C14   C22   1.408968 A    
C18   C32   1.408147 A    
C34   C35   1.415514 A    
C18   F18   1.357754 S    
C30   C41   1.406764 A    
N10   O24   1.301294 A    
C83   C84   1.425054 A    
C78   C80   1.421210 A    
O7    Zn1   2.012973 S    
C77   C79   1.421197 A    
C11   O16   1.349636 S    
C5    N9    1.439092 S    
C61   N5    1.360994 A    
C71   N13   1.440838 S    
C86   N16   1.434153 S    
C23   C25   1.412040 A    
C10   N2    1.364924 A    
N14   O32   1.301319 A    
O4    C1    1.285140 A    
O5    Zn1   2.012976 S    
C46   O18   1.349684 S    
C1    C67   1.464675 S    
C69   C71   1.399323 A    
C45   O17   1.349685 S    
C61   F15   1.355148 S    
O9    C75   1.348183 S    
O1    Zn1   2.004787 S    
C45   C53   1.399531 A    
C81   C87   1.418558 A    
C33   C36   1.415514 A    
C18   C20   1.387489 A    
N12   O27   1.301237 A    
N4    C73   1.424125 S    
C19   C21   1.396985 A    
C16   F23   1.358425 S    
C20   C22   1.396985 A    
C39   N21   1.439890 S    
C2    C68   1.464672 S    
C67   C69   1.409650 A    
C78   N8    1.369503 A    
O8    Zn2   2.012976 S    
C58   F6    1.358328 S    
N2    C12   1.365605 A    
C13   C21   1.408969 A    
O3    Zn1   2.004785 S    
C33   C37   1.413790 A    
C3    C31   1.471146 S    
C4    C32   1.471146 S    
C6    N10   1.439050 S    
C79   C85   1.418556 A    
C5    C89   1.417585 A    
C70   F12   1.359018 S    
C34   C38   1.413791 A    
O12   C78   1.348180 S    
C9    O13   1.349523 S    
C15   C31   1.411312 A    
C7    C89   1.417586 A    
N18   O39   1.301175 A    
C12   O15   1.349634 S    
C49   C51   1.412984 A    
N4    C48   1.364668 A    
C82   C88   1.418570 A    
C48   C50   1.399852 A    
C64   F8    1.357702 S    
N18   O40   1.300979 A    
N22   O47   1.301505 A    
C5    C59   1.410075 A    
C56   F4    1.358325 S    
C60   F14   1.355233 S    
C17   F17   1.357755 S    
C8    C62   1.410057 A    
N10   O23   1.301238 A    
C65   F9    1.358271 S    
