data_mof_unit_41668.cif
_audit_creation_date              2012-10-26T17:11:21-0400
_audit_creation_method            fapswitch 2.2
_symmetry_space_group_name_H-M    P1
_symmetry_Int_Tables_number       1
_space_group_crystal_system       triclinic
_cell_length_a                    27.922412
_cell_length_b                    18.728146
_cell_length_c                    16.820636
_cell_angle_alpha                 89.807405
_cell_angle_beta                  62.737098
_cell_angle_gamma                 89.689008
_cell_volume                      7818.85708408

loop_
_atom_site_label
_atom_site_type_symbol
_atom_type_description
_atom_site_fract_x
_atom_site_fract_y
_atom_site_fract_z
_atom_type_partial_charge
C1    C     C_R   0.296026 0.730449 0.328985 0.539390
C2    C     C_R   0.597394 0.998172 0.513972 0.010229
C3    C     C_R   0.692616 0.708959 0.901890 -0.026703
C4    C     C_R   0.927171 0.902029 0.066032 0.569189
C5    C     C_R   0.072879 0.097883 0.933917 0.568356
C6    C     C_R   0.072607 0.901704 0.934251 0.568202
C7    C     C_R   0.927286 0.098220 0.065863 0.568682
C8    C     C_R   0.427093 0.402150 0.066101 0.568762
C9    C     C_R   0.572845 0.597911 0.933965 0.569128
C10   C     C_R   0.572796 0.401919 0.934075 0.568297
C11   C     C_R   0.427201 0.598099 0.065879 0.568391
C12   C     C_R   0.071362 0.616267 0.436326 0.013959
C13   C     C_R   0.903266 0.501738 0.484039 0.011146
C14   C     C_R   0.929551 0.383429 0.561025 0.014470
C15   C     C_R   0.973251 0.619835 0.425823 0.015617
C16   C     C_R   0.027526 0.379919 0.571688 0.014274
C17   C     C_R   0.570934 0.116736 0.437575 0.014667
C18   C     C_R   0.430724 0.882215 0.557780 0.010598
C19   C     C_R   0.472926 0.120148 0.426867 0.015084
C20   C     C_R   0.528310 0.879148 0.569400 0.015058
C21   C     C_R   0.058507 0.674708 0.396980 -0.132828
C22   C     C_R   0.942462 0.324879 0.600110 -0.128592
C23   C     C_R   0.009710 0.676729 0.392429 -0.129831
C24   C     C_R   0.097387 0.498133 0.513931 0.010510
C25   C     C_R   0.991186 0.322910 0.604798 -0.129155
C26   C     C_R   0.557838 0.175471 0.398989 -0.129348
C27   C     C_R   0.444337 0.822825 0.594621 -0.135668
C28   C     C_R   0.509097 0.177392 0.394294 -0.130241
C29   C     C_R   0.492717 0.821266 0.600288 -0.130509
C30   C     C_R   0.986694 0.559870 0.462507 0.021475
C31   C     C_R   0.014192 0.439808 0.534735 0.019991
C32   C     C_R   0.035591 0.558420 0.468616 0.022726
C33   C     C_R   0.965331 0.441241 0.528583 0.022048
C34   C     C_R   0.486569 0.059988 0.462950 0.021223
C35   C     C_R   0.577130 0.877629 0.574238 -0.113956
C36   C     C_R   0.514687 0.939345 0.533354 0.020555
C37   C     C_R   0.535418 0.058615 0.469173 0.021987
C38   C     C_R   0.465943 0.940636 0.526901 0.022272
C39   C     C_R   0.451837 0.000870 0.491569 0.000510
C40   C     C_R   0.549282 0.998604 0.505186 -0.000652
C41   C     C_R   0.951648 0.501076 0.492030 0.000869
C42   C     C_R   0.049201 0.498643 0.505355 -0.000270
C43   C     C_R   0.370576 0.940071 0.506559 -0.050287
C44   C     C_R   0.630164 0.059700 0.491471 -0.050584
C45   C     C_R   0.613054 0.935889 0.544045 -0.036222
C46   C     C_R   0.423573 0.122150 0.423564 -0.113501
C47   C     C_R   0.387474 0.064029 0.454385 -0.035716
C48   C     C_R   0.870244 0.440404 0.507347 -0.050861
C49   C     C_R   0.130317 0.559543 0.491016 -0.050288
C50   C     C_R   0.112925 0.435932 0.544352 -0.036048
C51   C     C_R   0.887530 0.564060 0.454126 -0.035426
C52   C     C_R   0.327792 0.937108 0.482238 0.016134
C53   C     C_R   0.672469 0.062870 0.516990 0.016188
C54   C     C_R   0.663738 0.934779 0.544919 -0.041443
C55   C     C_R   0.336453 0.065254 0.454515 -0.041853
C56   C     C_R   0.827708 0.437208 0.482419 0.016026
C57   C     C_R   0.382691 0.883481 0.550691 -0.124138
C58   C     C_R   0.172548 0.562811 0.516718 0.015933
C59   C     C_R   0.163695 0.434765 0.544981 -0.041667
C60   C     C_R   0.836515 0.565292 0.454244 -0.041795
C61   C     C_R   0.312516 0.999772 0.452943 0.200692
C62   C     C_R   0.687520 0.000283 0.546821 0.201054
C63   C     C_R   0.812583 0.499789 0.452705 0.201126
C64   C     C_R   0.187541 0.500260 0.546704 0.201324
C65   C     C_3   0.287635 0.870313 0.880231 -0.281055
C66   C     C_3   0.337892 0.852608 0.793913 -0.437911
C67   C     C_3   0.808219 0.366542 0.035167 -0.278023
C68   C     C_R   0.618555 0.115942 0.446193 -0.118552
C69   C     C_3   0.769754 0.418568 0.105339 -0.438183
C70   C     C_3   0.702643 0.859227 0.137200 -0.279816
C71   C     C_3   0.653556 0.831862 0.219862 -0.428210
C72   C     C_3   0.302488 0.147582 0.852643 -0.266721
C73   C     C_3   0.278523 0.073082 0.880116 -0.433012
C74   C     C_3   0.691611 0.135787 0.965491 -0.272031
C75   C     C_3   0.631636 0.140329 0.030668 -0.427503
C76   C     C_3   0.204756 0.632903 0.133969 -0.270414
C77   C     C_3   0.232723 0.561674 0.096753 -0.429655
C78   C     C_3   0.198187 0.352632 0.145729 -0.282679
C79   C     C_R   0.076713 0.377981 0.575454 -0.113810
C80   C     C_3   0.150348 0.320740 0.226675 -0.428531
C81   C     C_3   0.797768 0.637297 0.863307 -0.267608
C82   C     C_3   0.772228 0.565058 0.901000 -0.433353
C83   C     C_R   0.923789 0.621998 0.422821 -0.113300
C84   C     C_R   0.881818 0.384331 0.552821 -0.118889
C85   C     C_R   0.703836 0.269295 0.671093 0.540679
C86   C     C_R   0.118912 0.615576 0.445234 -0.121402
C87   C     C_R   0.220790 0.768187 0.953342 0.026457
C88   C     C_R   0.779855 0.235001 0.046672 0.026978
C89   C     C_R   0.778164 0.769596 0.047989 0.025593
C90   C     C_R   0.222712 0.228357 0.951400 0.030363
C91   C     C_R   0.720908 0.266746 0.952814 0.030716
C92   C     C_R   0.276124 0.727997 0.050332 0.028480
C93   C     C_R   0.277585 0.270676 0.048454 0.026330
C94   C     C_R   0.722837 0.727626 0.951600 0.028881
C95   C     C_R   0.267578 0.805583 0.940542 0.029759
C96   C     C_R   0.704036 0.730292 0.670972 0.539463
C97   C     C_R   0.777834 0.306018 0.019343 0.030298
C98   C     C_R   0.727750 0.800972 0.067745 0.026969
C99   C     C_R   0.274888 0.201050 0.927679 0.026241
C100  C     C_R   0.722558 0.195854 0.980797 0.027946
C101  C     C_R   0.228210 0.692199 0.065582 0.025335
C102  C     C_R   0.225368 0.297795 0.072319 0.028172
C103  C     C_R   0.773035 0.695821 0.932397 0.025909
C104  C     C_R   0.295202 0.784039 0.988301 -0.111912
C105  C     C_R   0.748270 0.320821 0.972622 -0.114932
C106  C     C_R   0.700752 0.779355 0.019102 -0.112161
C107  C     C_R   0.296068 0.269496 0.329022 0.539356
C108  C     C_R   0.301704 0.223099 0.976453 -0.114652
C109  C     C_R   0.752489 0.180932 0.026845 -0.117749
C110  C     C_R   0.201375 0.712527 0.015988 -0.114558
C111  C     C_R   0.198612 0.275919 0.023415 -0.111780
C112  C     C_R   0.800194 0.717725 0.980669 -0.114360
C113  C     C_R   0.145187 0.830354 0.943296 -0.177469
C114  C     C_R   0.854670 0.170097 0.057130 -0.173993
C115  C     C_R   0.853896 0.832122 0.057587 -0.174351
C116  C     C_R   0.146670 0.166748 0.941792 -0.177137
C117  C     C_R   0.646001 0.331239 0.942292 -0.178305
C118  C     C_R   0.796257 0.230897 0.328871 0.540996
C119  C     C_R   0.353082 0.667203 0.058354 -0.174198
C120  C     C_R   0.353355 0.333112 0.058141 -0.175263
C121  C     C_R   0.646632 0.666551 0.942036 -0.174279
C122  C     C_R   0.115825 0.848205 0.896989 0.025781
C123  C     C_R   0.884096 0.151885 0.103262 0.026602
C124  C     C_R   0.883658 0.849097 0.103520 0.027347
C125  C     C_R   0.116568 0.150503 0.896263 0.026399
C126  C     C_R   0.616227 0.348679 0.896525 0.025204
C127  C     C_R   0.383445 0.650906 0.103513 0.025654
C128  C     C_R   0.383406 0.349519 0.103744 0.027148
C129  C     C_R   0.203904 0.769444 0.671129 0.540442
C130  C     C_R   0.616575 0.650440 0.896389 0.027404
C131  C     C_R   0.129893 0.817614 0.813140 0.221817
C132  C     C_R   0.870303 0.182651 0.186954 0.221266
C133  C     C_R   0.869856 0.817949 0.187115 0.222756
C134  C     C_R   0.130250 0.181916 0.812867 0.223545
C135  C     C_R   0.629901 0.317595 0.813062 0.222350
C136  C     C_R   0.369759 0.682152 0.186864 0.222874
C137  C     C_R   0.369738 0.318119 0.187151 0.222717
C138  C     C_R   0.630356 0.681857 0.812975 0.223456
C139  C     C_R   0.179704 0.781874 0.768236 -0.021493
C140  C     C_R   0.203922 0.230527 0.670985 0.539335
C141  C     C_R   0.820751 0.219005 0.231713 -0.022084
C142  C     C_R   0.820246 0.782209 0.231970 -0.024806
C143  C     C_R   0.179882 0.217569 0.767955 -0.023247
C144  C     C_R   0.679598 0.281636 0.768111 -0.020592
C145  C     C_R   0.319750 0.717305 0.232278 -0.019346
C146  C     C_R   0.320126 0.282425 0.232053 -0.024878
C147  C     C_R   0.680177 0.717054 0.767908 -0.023068
C148  C     C_R   0.209004 0.764584 0.815137 -0.155291
C149  C     C_R   0.791815 0.237329 0.184649 -0.159391
C150  C     C_R   0.790915 0.765373 0.185291 -0.157631
C151  C     C_R   0.796078 0.769481 0.329012 0.539454
C152  C     C_R   0.209453 0.233912 0.814367 -0.160086
C153  C     C_R   0.708895 0.264105 0.814818 -0.163487
C154  C     C_R   0.289511 0.732997 0.186639 -0.163234
C155  C     C_R   0.290645 0.265883 0.185559 -0.156810
C156  C     C_R   0.710000 0.732733 0.814170 -0.162601
C157  C     C_R   0.199911 0.630706 0.516288 0.574600
C158  C     C_R   0.800185 0.369304 0.483383 0.574508
C159  C     C_R   0.804139 0.632153 0.469588 0.536503
C160  C     C_R   0.195925 0.367881 0.530177 0.536366
C161  C     C_R   0.699868 0.130723 0.516450 0.575084
C162  C     C_R   0.403415 0.001551 0.483711 0.010734
C163  C     C_R   0.300218 0.869278 0.483267 0.574914
C164  C     C_R   0.304112 0.132130 0.469710 0.536708
C165  C     C_R   0.695946 0.867889 0.530136 0.536827
C166  C     C_R   0.190677 0.786767 0.903587 -0.032065
C167  C     C_R   0.809986 0.215351 0.096206 -0.032603
C168  C     C_R   0.808497 0.788566 0.097349 -0.033612
C169  C     C_R   0.192447 0.209627 0.901755 -0.025826
C170  C     C_R   0.690759 0.286137 0.903224 -0.025819
C171  C     C_R   0.306812 0.709407 0.099135 -0.026153
C172  C     C_R   0.307884 0.289677 0.097926 -0.032954
Cu1   Cu    Cu3+1 0.209920 0.785290 0.495070 0.987082
Cu2   Cu    Cu3+1 0.504760 0.500000 0.075850 1.013348
Cu3   Cu    Cu3+1 0.995240 1.000000 0.924150 1.017100
Cu4   Cu    Cu3+1 0.004760 0.000000 0.075850 1.015907
Cu5   Cu    Cu3+1 0.790080 0.214710 0.504930 0.985007
Cu6   Cu    Cu3+1 0.790080 0.785290 0.504930 0.971434
Cu7   Cu    Cu3+1 0.209920 0.214710 0.495070 0.967682
Cu8   Cu    Cu3+1 0.709920 0.285290 0.495070 0.983354
Cu9   Cu    Cu3+1 0.290080 0.714710 0.504930 0.985013
Cu10  Cu    Cu3+1 0.290080 0.285290 0.504930 0.970434
Cu11  Cu    Cu3+1 0.709920 0.714710 0.495070 0.966604
Cu12  Cu    Cu3+1 0.495240 0.500000 0.924150 1.016097
H1    H     H_    0.502386 0.774605 0.628520 0.114631
H2    H     H_    0.414992 0.167850 0.392580 0.130570
H3    H     H_    0.354744 0.840508 0.582337 0.143359
H4    H     H_    0.646490 0.159094 0.415306 0.144852
H5    H     H_    0.085034 0.332547 0.607167 0.130930
H6    H     H_    0.915220 0.667623 0.391694 0.129936
H7    H     H_    0.853713 0.341452 0.584301 0.144585
H8    H     H_    0.146943 0.658652 0.414335 0.140877
H9    H     H_    0.165012 0.684841 0.026087 0.113574
H10   H     H_    0.753781 0.126871 0.049106 0.109031
H11   H     H_    0.838517 0.693323 0.966881 0.112910
H12   H     H_    0.499600 0.223841 0.365491 0.114498
H13   H     H_    0.158926 0.297322 0.040438 0.115733
H14   H     H_    0.747123 0.374920 0.950305 0.110863
H15   H     H_    0.331298 0.812252 0.978604 0.115906
H16   H     H_    0.341523 0.202138 0.959309 0.112728
H17   H     H_    0.662445 0.803873 0.033001 0.115083
H18   H     H_    0.133571 0.851380 0.009616 0.142084
H19   H     H_    0.866131 0.148970 0.990911 0.140644
H20   H     H_    0.865252 0.853596 0.991473 0.142817
H21   H     H_    0.135408 0.144982 0.007744 0.141595
H22   H     H_    0.634609 0.352559 0.008400 0.139584
H23   H     H_    0.417787 0.777155 0.618260 0.107799
H24   H     H_    0.364462 0.645886 0.992248 0.140467
H25   H     H_    0.364591 0.354866 0.992195 0.142291
H26   H     H_    0.635164 0.645038 0.008174 0.140443
H27   H     H_    0.246547 0.735056 0.782825 0.142272
H28   H     H_    0.754323 0.266927 0.217117 0.141388
H29   H     H_    0.753837 0.735295 0.217474 0.143097
H30   H     H_    0.246385 0.264349 0.782249 0.139190
H31   H     H_    0.746478 0.234654 0.782277 0.137561
H32   H     H_    0.251820 0.762194 0.219382 0.138327
H33   H     H_    0.253747 0.235470 0.217657 0.144145
H34   H     H_    0.584860 0.220592 0.373912 0.108715
H35   H     H_    0.747389 0.762194 0.781761 0.140600
H36   H     H_    0.283154 0.032287 0.374746 0.323726
H37   H     H_    0.716475 0.967643 0.625574 0.322906
H38   H     H_    0.783278 0.532370 0.374428 0.322239
H39   H     H_    0.216477 0.467690 0.625514 0.323889
H40   H     H_    0.370990 0.834160 0.808345 0.155213
H41   H     H_    0.328853 0.810348 0.756669 0.147919
H42   H     H_    0.351478 0.901165 0.751420 0.148766
H43   H     H_    0.256540 0.892244 0.863033 0.157265
H44   H     H_    0.297097 0.913505 0.915913 0.134012
H45   H     H_    0.000502 0.276651 0.634143 0.115114
H46   H     H_    0.741830 0.443248 0.082704 0.144476
H47   H     H_    0.745926 0.390510 0.169765 0.160642
H48   H     H_    0.793222 0.461706 0.116268 0.142545
H49   H     H_    0.837875 0.346831 0.056973 0.159276
H50   H     H_    0.831672 0.395706 0.971322 0.137354
H51   H     H_    0.621834 0.814018 0.202043 0.151454
H52   H     H_    0.665086 0.786594 0.250424 0.159778
H53   H     H_    0.636721 0.875387 0.269988 0.150597
H54   H     H_    0.731724 0.881403 0.158483 0.160900
H55   H     H_    0.690224 0.904406 0.107615 0.134709
H56   H     H_    0.000389 0.722999 0.363111 0.114866
H57   H     H_    0.281473 0.055119 0.940736 0.148453
H58   H     H_    0.235703 0.072445 0.893948 0.165009
H59   H     H_    0.301217 0.034930 0.824986 0.137689
H60   H     H_    0.299975 0.164935 0.791589 0.154084
H61   H     H_    0.346172 0.143983 0.833628 0.136560
H62   H     H_    0.625532 0.138823 0.100733 0.154902
H63   H     H_    0.613633 0.190140 0.020090 0.166763
H64   H     H_    0.610440 0.094192 0.020014 0.136839
H65   H     H_    0.697528 0.136346 0.895650 0.151653
H66   H     H_    0.706868 0.083137 0.975050 0.131041
H67   H     H_    0.915262 0.279979 0.625723 0.109192
H68   H     H_    0.228108 0.546680 0.036794 0.150980
H69   H     H_    0.276187 0.564478 0.078474 0.164221
H70   H     H_    0.214151 0.519577 0.148385 0.133436
H71   H     H_    0.207697 0.646141 0.195844 0.147766
H72   H     H_    0.161073 0.626676 0.154378 0.136406
H73   H     H_    0.119036 0.302503 0.208092 0.151380
H74   H     H_    0.163543 0.274857 0.253858 0.159049
H75   H     H_    0.132254 0.361889 0.279763 0.150445
H76   H     H_    0.226511 0.375610 0.168142 0.158350
H77   H     H_    0.183822 0.397917 0.119279 0.134515
H78   H     H_    0.085746 0.719559 0.371253 0.107135
H79   H     H_    0.777406 0.551532 0.960975 0.147320
H80   H     H_    0.728652 0.565677 0.919517 0.162396
H81   H     H_    0.792105 0.522977 0.849785 0.139969
H82   H     H_    0.793587 0.649723 0.802257 0.156749
H83   H     H_    0.841753 0.633044 0.841626 0.137047
H84   H     H_    0.095339 0.777971 0.746943 0.328326
H85   H     H_    0.904901 0.221590 0.253476 0.327321
H86   H     H_    0.904663 0.777460 0.253020 0.317704
H87   H     H_    0.095423 0.222857 0.747205 0.317981
H88   H     H_    0.595289 0.277874 0.746952 0.327587
H89   H     H_    0.585390 0.832124 0.605905 0.131350
H90   H     H_    0.404355 0.723104 0.252369 0.327865
H91   H     H_    0.404593 0.277251 0.252804 0.317661
H92   H     H_    0.595588 0.723257 0.747482 0.317686
O1    O     O_R   0.255040 0.869590 0.478480 -0.425482
O2    O     O_R   0.817950 0.203450 0.375560 -0.478288
O3    O     O_R   0.817950 0.796550 0.375560 -0.475631
O4    O     O_R   0.182050 0.203450 0.624440 -0.475778
O5    O     O_R   0.682050 0.296550 0.624440 -0.478370
O6    O     O_R   0.317950 0.703450 0.375560 -0.479158
O7    O     O_R   0.317950 0.296550 0.375560 -0.475859
O8    O     O_R   0.682050 0.703450 0.624440 -0.475773
O9    O     O_R   0.250530 0.763330 0.367210 -0.532466
O10   O     O_R   0.749470 0.236670 0.632790 -0.532070
O11   O     O_R   0.749470 0.763330 0.632790 -0.524814
O12   O     O_R   0.744960 0.130410 0.521520 -0.425889
O13   O     O_R   0.250530 0.236670 0.367210 -0.526181
O14   O     O_R   0.750530 0.263330 0.367210 -0.533202
O15   O     O_R   0.249470 0.736670 0.632790 -0.532249
O16   O     O_R   0.249470 0.263330 0.632790 -0.525008
O17   O     O_R   0.750530 0.736670 0.367210 -0.526449
O18   O     O_R   0.177260 0.690030 0.513710 -0.546519
O19   O     O_R   0.822740 0.309970 0.486290 -0.547494
O20   O     O_R   0.822740 0.690030 0.486290 -0.523460
O21   O     O_R   0.177260 0.309970 0.513710 -0.524589
O22   O     O_R   0.677260 0.190030 0.513710 -0.547299
O23   O     O_R   0.744960 0.869590 0.521520 -0.467902
O24   O     O_R   0.322740 0.809970 0.486290 -0.547470
O25   O     O_R   0.322740 0.190030 0.486290 -0.524030
O26   O     O_R   0.677260 0.809970 0.513710 -0.524691
O27   O     O_R   0.051640 0.926880 0.885090 -0.436897
O28   O     O_R   0.948360 0.073120 0.114910 -0.436542
O29   O     O_R   0.948360 0.926880 0.114910 -0.437630
O30   O     O_R   0.051640 0.073120 0.885090 -0.437621
O31   O     O_R   0.551640 0.426880 0.885090 -0.436304
O32   O     O_R   0.448360 0.573120 0.114910 -0.436697
O33   O     O_R   0.448360 0.426880 0.114910 -0.437927
O34   O     O_R   0.255040 0.130410 0.478480 -0.467777
O35   O     O_R   0.551640 0.573120 0.885090 -0.437513
O36   O     O_R   0.940620 0.926560 0.986760 -0.540490
O37   O     O_R   0.059380 0.073440 0.013240 -0.541232
O38   O     O_R   0.059380 0.926560 0.013240 -0.541819
O39   O     O_R   0.940620 0.073440 0.986760 -0.541151
O40   O     O_R   0.440620 0.426560 0.986760 -0.540724
O41   O     O_R   0.559380 0.573440 0.013240 -0.541599
O42   O     O_R   0.559380 0.426560 0.013240 -0.542376
O43   O     O_R   0.440620 0.573440 0.986760 -0.541960
O44   O     O_3   0.274276 0.996015 0.422506 -0.655825
O45   O     O_R   0.755040 0.369590 0.478480 -0.426305
O46   O     O_3   0.725392 0.004136 0.578049 -0.657302
O47   O     O_3   0.774467 0.495946 0.422001 -0.657834
O48   O     O_3   0.225413 0.504135 0.577931 -0.656023
O49   O     O_3   0.094854 0.823924 0.776410 -0.658067
O50   O     O_3   0.905263 0.175805 0.223774 -0.658631
O51   O     O_3   0.905028 0.823560 0.223581 -0.661752
O52   O     O_3   0.094897 0.176730 0.776706 -0.661875
O53   O     O_3   0.594674 0.323743 0.776678 -0.658740
O54   O     O_3   0.405406 0.677133 0.222539 -0.659490
O55   O     O_3   0.405069 0.323383 0.223349 -0.662382
O56   O     O_R   0.244960 0.630410 0.521520 -0.425677
O57   O     O_3   0.594919 0.677059 0.776939 -0.662389
O58   O     O_R   0.244960 0.369590 0.521520 -0.468030
O59   O     O_R   0.755040 0.630410 0.478480 -0.468216
O60   O     O_R   0.182050 0.796550 0.624440 -0.478142

loop_
_geom_bond_atom_site_label_1
_geom_bond_atom_site_label_2
_ccdc_geom_bond_type
C61   O44   S    
C159  O59   A    
C31   C42   A    
C26   H34   S    
Cu7   O34   S    
C50   C79   A    
C14   C33   A    
C19   C46   A    
C16   C31   A    
C96   O8    A    
C124  C133  A    
C50   C59   A    
Cu2   O33   S    
Cu1   O60   S    
C52   C61   A    
C160  O58   A    
C24   C42   A    
C76   H71   S    
C137  O55   S    
C134  C143  A    
C13   C51   A    
C117  C170  A    
C113  C122  A    
C91   C100  A    
C117  C126  A    
C88   C97   A    
C97   C105  A    
C100  C109  A    
C135  O53   S    
C85   O5    A    
C8    O40   A    
C24   C50   A    
C102  C111  A    
C85   C144  S    
C13   C41   A    
C137  C146  A    
C127  C136  A    
C117  H22   S    
C69   H48   S    
Cu2   Cu12  S    
C113  C166  A    
C118  O2    A    
C74   C100  S    
C101  C110  A    
C152  H30   S    
H88   O53   S    
Cu8   O14   S    
C103  C112  A    
C142  C151  S    
C112  H11   S    
C59   C160  S    
Cu3   Cu4   S    
C150  C168  A    
C46   H2    S    
C88   C109  A    
C54   C165  S    
C35   C45   A    
C51   C83   A    
C153  H31   S    
C15   C30   A    
C16   C25   A    
C96   C147  S    
C151  O17   A    
C7    C123  S    
C72   C73   S    
C9    O35   A    
C86   H8    S    
C98   C106  A    
C12   C86   A    
C136  O54   S    
C18   C38   A    
C23   H56   S    
C122  C131  A    
C66   H41   S    
C3    C156  A    
C82   H81   S    
C57   H3    S    
C92   C104  A    
C52   C163  S    
H38   O47   S    
C2    C40   A    
C22   H67   S    
C35   H89   S    
C80   H73   S    
C75   H64   S    
C3    C121  A    
C119  C171  A    
H84   O49   S    
C93   C172  S    
C163  O24   A    
C123  C132  A    
C27   C29   A    
H86   O51   S    
C91   C105  A    
C83   H6    S    
C1    C145  S    
C140  C143  S    
C121  C130  A    
C114  C167  A    
C87   C110  A    
C99   C108  A    
C133  C142  A    
C158  O19   A    
C37   C40   A    
C38   C39   A    
C78   C80   S    
C5    O30   A    
C158  O45   A    
C164  O34   A    
H85   O50   S    
Cu3   O39   S    
C96   O11   A    
C4    C124  S    
C47   C162  A    
C8    C128  S    
C73   H58   S    
C2    C44   A    
C22   C25   A    
C87   C95   A    
C153  C170  A    
C30   C41   A    
Cu6   O23   S    
C71   H51   S    
C5    O37   A    
C132  O50   S    
Cu4   O37   S    
H90   O54   S    
C157  O56   A    
C90   C111  A    
C161  O22   A    
C155  C172  A    
C2    C45   A    
C58   C64   A    
C139  C148  A    
C85   O10   A    
Cu8   O45   S    
C34   C39   A    
Cu7   O21   S    
C77   H69   S    
C154  H32   S    
C80   H75   S    
C107  C146  S    
C163  O1    A    
Cu3   O27   S    
Cu4   O28   S    
C11   C127  S    
C160  O21   A    
C129  C139  S    
C110  H9    S    
C44   C53   A    
C77   H68   S    
C121  H26   S    
C39   C162  A    
C19   C28   A    
C75   H62   S    
Cu5   O2    S    
C114  C123  A    
Cu7   O4    S    
Cu3   O30   S    
C116  C125  A    
C82   H80   S    
C67   H49   S    
C145  C154  A    
Cu2   O41   S    
C90   C99   A    
C74   H65   S    
C81   C103  S    
C132  C141  A    
C79   H5    S    
C49   C86   A    
C118  O14   A    
C58   C157  S    
C165  O23   A    
Cu11  O59   S    
C89   C98   A    
C14   C22   A    
H91   O55   S    
Cu9   O6    S    
C106  H17   S    
C10   O31   A    
C55   C61   A    
C90   C169  S    
C28   H12   S    
C29   H1    S    
C154  C171  A    
C76   H72   S    
C63   O47   S    
Cu9   O56   S    
C131  C139  A    
C43   C57   A    
C43   C162  A    
C21   H78   S    
C65   C95   S    
C68   H4    S    
C5    C125  S    
C81   H83   S    
C78   H76   S    
C51   C60   A    
C70   H54   S    
C115  C168  A    
C10   C126  S    
C72   C99   S    
C119  C127  A    
C125  C134  A    
C67   H50   S    
C78   C102  S    
C34   C37   A    
C148  C166  A    
C72   H60   S    
H37   O46   S    
C149  C167  A    
C60   C159  S    
C14   C84   A    
C118  C141  S    
C1    O9    A    
C133  O51   S    
C9    C130  S    
H87   O52   S    
C89   C112  A    
C25   H45   S    
C69   H47   S    
C93   C108  A    
C24   C49   A    
C84   H7    S    
C150  H29   S    
C140  O4    A    
C165  O26   A    
Cu6   O3    S    
C94   C106  A    
C146  C155  A    
Cu3   O36   S    
Cu10  O58   S    
C149  H28   S    
C70   C71   S    
Cu12  O35   S    
Cu6   Cu11  S    
C91   C170  S    
C161  O12   A    
Cu7   Cu10  S    
Cu1   Cu9   S    
C134  O52   S    
C131  O49   S    
Cu1   O1    S    
C77   H70   S    
Cu2   O32   S    
C159  O20   A    
C148  H27   S    
Cu10  O7    S    
C15   C83   A    
C54   C62   A    
C72   H61   S    
C89   C168  S    
C140  O16   A    
C6    O38   A    
C18   C57   A    
C88   C167  S    
C115  H20   S    
C66   H42   S    
C113  H18   S    
C147  C156  A    
C92   C101  A    
C9    O41   A    
C105  H14   S    
C138  O57   S    
C126  C135  A    
Cu5   O19   S    
C11   O43   A    
C21   C23   A    
Cu6   O20   S    
C80   H74   S    
Cu11  O17   S    
C75   H63   S    
C120  H25   S    
C46   C47   A    
C17   C68   A    
C115  C124  A    
C107  O7    A    
Cu12  O40   S    
C93   C102  A    
C120  C128  A    
C16   C79   A    
C33   C41   A    
C142  C150  A    
C36   C38   A    
C164  O25   A    
C4    O36   A    
C152  C169  A    
C7    O39   A    
Cu4   O29   S    
C155  H33   S    
C156  H35   S    
C43   C52   A    
C67   C97   S    
C20   C36   A    
C73   H57   S    
Cu8   O22   S    
C32   C42   A    
Cu9   O15   S    
Cu10  O16   S    
C157  O18   A    
Cu4   O38   S    
C81   C82   S    
C141  C149  A    
Cu11  O26   S    
C65   H43   S    
C59   C64   A    
H92   O57   S    
C60   C63   A    
C17   C26   A    
C71   H53   S    
Cu10  O25   S    
C55   C164  S    
C1    O6    A    
Cu5   O10   S    
C87   C166  S    
C92   C171  S    
C144  C153  A    
C129  O60   A    
C151  O3    A    
C56   C158  S    
C8    O33   A    
C31   C33   A    
C116  H21   S    
C4    O29   A    
C7    O28   A    
C15   C23   A    
C12   C32   A    
C20   C35   A    
Cu2   O42   S    
C74   H66   S    
C20   C29   A    
Cu11  O8    S    
C74   C75   S    
C36   C40   A    
C76   C77   S    
C66   H40   S    
C120  C172  A    
H36   O44   S    
C12   C21   A    
C49   C58   A    
C48   C84   A    
C65   H44   S    
C67   C69   S    
Cu12  O31   S    
C108  H16   S    
C128  C137  A    
H39   O48   S    
C53   C62   A    
C73   H59   S    
C138  C147  A    
Cu5   Cu8   S    
C56   C63   A    
C109  H10   S    
C17   C37   A    
C71   H52   S    
C64   O48   S    
C135  C144  A    
C45   C54   A    
C81   H82   S    
C78   H77   S    
C44   C68   A    
C70   H55   S    
C6    C122  S    
C95   C104  A    
C47   C55   A    
C76   C101  S    
C48   C56   A    
C143  C152  A    
C11   O32   A    
Cu9   O24   S    
C104  H15   S    
C18   C27   A    
C136  C145  A    
C19   C34   A    
C94   C103  A    
C13   C48   A    
Cu5   O12   S    
C119  H24   S    
Cu6   O11   S    
Cu1   O18   S    
C26   C28   A    
Cu12  O43   S    
C69   H46   S    
C111  H13   S    
C30   C32   A    
C53   C161  S    
C10   O42   A    
C116  C169  A    
Cu7   O13   S    
C3    C94   S    
C27   H23   S    
C6    O27   A    
C62   O46   S    
C70   C98   S    
Cu1   O9    S    
C129  O15   A    
C65   C66   S    
C82   H79   S    
C114  H19   S    
Cu8   O5    S    
C107  O13   A    
C130  C138  A    
