data_mof_unit_21019.cif
_audit_creation_date              2012-12-10T18:04:42-0500
_audit_creation_method            fapswitch 2.2
_symmetry_space_group_name_H-M    P1
_symmetry_Int_Tables_number       1
_space_group_crystal_system       triclinic
_cell_length_a                    19.637363
_cell_length_b                    17.933321
_cell_length_c                    12.585066
_cell_angle_alpha                 90.261732
_cell_angle_beta                  97.786937
_cell_angle_gamma                 89.852731
_cell_volume                      4391.07343941

loop_
_atom_site_label
_atom_site_type_symbol
_atom_type_description
_atom_site_fract_x
_atom_site_fract_y
_atom_site_fract_z
_atom_type_partial_charge
Br1   Br    Br    0.453133 0.793853 0.670902 -0.556026
Br2   Br    Br    0.454806 0.204747 0.675427 -0.562507
Br3   Br    Br    0.953100 0.293868 0.670935 -0.555959
Br4   Br    Br    0.954875 0.704754 0.675419 -0.562570
C1    C     C_R   0.414855 0.105905 0.447494 0.905845
C2    C     C_R   0.749050 0.745126 0.643655 0.118396
C3    C     C_R   0.241983 0.523039 0.994120 -0.138938
C4    C     C_R   0.280664 0.033132 0.865522 0.119396
C5    C     C_R   0.230328 0.992206 0.799576 -0.161295
C6    C     C_R   0.160539 0.007258 0.800883 -0.113502
C7    C     C_R   0.140319 0.063249 0.867642 -0.098341
C8    C     C_R   0.189846 0.104214 0.933454 -0.148224
C9    C     C_R   0.259703 0.089417 0.932501 -0.157714
C10   C     C_R   0.780701 0.533436 0.865506 0.119418
C11   C     C_R   0.730262 0.492810 0.799321 -0.161352
C12   C     C_R   0.660527 0.508185 0.800471 -0.113357
C13   C     C_R   0.247023 0.758028 0.640539 0.117546
C14   C     C_R   0.640460 0.564179 0.867342 -0.098509
C15   C     C_R   0.690081 0.604812 0.933446 -0.148661
C16   C     C_R   0.759884 0.589713 0.932625 -0.157507
C17   C     C_R   0.302013 0.730746 0.161705 0.121592
C18   C     C_R   0.236442 0.722128 0.102468 -0.164036
C19   C     C_R   0.229862 0.702344 0.994031 -0.148594
C20   C     C_R   0.288484 0.691192 0.943973 -0.113598
C21   C     C_R   0.353661 0.700322 0.001559 -0.144742
C22   C     C_R   0.360549 0.719339 0.109980 -0.167178
C23   C     C_R   0.308390 0.277600 0.168647 0.122096
C24   C     C_R   0.248968 0.245032 0.643605 0.118364
C25   C     C_R   0.367357 0.287729 0.117870 -0.168761
C26   C     C_R   0.361136 0.305638 0.009345 -0.133688
C27   C     C_R   0.296240 0.314280 0.950726 -0.094795
C28   C     C_R   0.237268 0.306707 0.000609 -0.146811
C29   C     C_R   0.243143 0.288145 0.109154 -0.191808
C30   C     C_R   0.801996 0.230790 0.161681 0.121589
C31   C     C_R   0.736422 0.222197 0.102443 -0.164051
C32   C     C_R   0.729836 0.202437 0.993996 -0.148574
C33   C     C_R   0.788455 0.191286 0.943930 -0.113558
C34   C     C_R   0.853635 0.200394 0.001515 -0.144729
C35   C     C_R   0.310536 0.789006 0.677579 -0.313911
C36   C     C_R   0.860529 0.219384 0.109946 -0.167226
C37   C     C_R   0.808475 0.777683 0.168691 0.122170
C38   C     C_R   0.867452 0.787740 0.117914 -0.168766
C39   C     C_R   0.861251 0.805668 0.009397 -0.133819
C40   C     C_R   0.796366 0.814405 0.950784 -0.094690
C41   C     C_R   0.737388 0.806910 0.000669 -0.146806
C42   C     C_R   0.743241 0.788328 0.109205 -0.191962
C43   C     C_R   0.312394 0.213846 0.681013 -0.299413
C44   C     C_R   0.810495 0.289064 0.677557 -0.313787
C45   C     C_R   0.812473 0.713929 0.681055 -0.299368
C46   C     C_R   0.358478 0.797982 0.607493 0.286461
C47   C     C_R   0.360375 0.203371 0.611096 0.278071
C48   C     C_R   0.858453 0.298009 0.607490 0.286461
C49   C     C_R   0.414426 0.894512 0.446797 0.906775
C50   C     C_R   0.860438 0.703417 0.611119 0.278003
C51   C     C_R   0.676459 0.186630 0.506080 -0.245370
C52   C     C_R   0.677162 0.813306 0.507161 -0.244510
C53   C     C_R   0.176438 0.686661 0.506077 -0.245358
C54   C     C_R   0.177089 0.313229 0.507119 -0.244471
C55   C     C_R   0.646174 0.195546 0.685871 -0.155458
C56   C     C_R   0.645235 0.804014 0.685554 -0.178739
C57   C     C_R   0.146210 0.695502 0.685908 -0.155438
C58   C     C_R   0.145169 0.303945 0.685516 -0.178630
C59   C     C_R   0.372524 0.828256 0.418940 -0.113953
C60   C     C_R   0.914860 0.605909 0.447497 0.905837
C61   C     C_R   0.374546 0.173669 0.421642 -0.109000
C62   C     C_R   0.872526 0.328258 0.418940 -0.113948
C63   C     C_R   0.874570 0.673688 0.421655 -0.108992
C64   C     C_R   0.637423 0.967199 0.128972 -0.335080
C65   C     C_R   0.137412 0.467142 0.128979 -0.335041
C66   C     C_R   0.379845 0.008393 0.765087 0.008126
C67   C     C_R   0.879850 0.508456 0.765084 0.008132
C68   C     C_R   0.354778 0.018448 0.862756 -0.034412
C69   C     C_R   0.854783 0.518535 0.862754 -0.034363
C70   C     C_R   0.587740 0.896348 0.554449 0.879063
C71   C     C_R   0.914428 0.394512 0.446798 0.906750
C72   C     C_R   0.588265 0.103057 0.554983 0.884661
C73   C     C_R   0.087728 0.396337 0.554442 0.879021
C74   C     C_R   0.088263 0.603059 0.554983 0.884701
C75   C     C_R   0.401431 0.016642 0.957379 -0.238634
C76   C     C_R   0.901434 0.516654 0.957378 -0.238691
C77   C     C_R   0.472732 0.007228 0.954168 -0.004313
C78   C     C_R   0.972730 0.507198 0.954168 -0.004301
C79   C     C_R   0.494955 0.000686 0.852821 0.244015
C80   C     C_R   0.994954 0.500655 0.852822 0.244022
C81   C     C_R   0.522446 0.003025 0.047059 -0.011529
C82   C     C_R   0.733650 0.231618 0.533240 0.087330
C83   C     C_R   0.022442 0.502987 0.047059 -0.011532
C84   C     C_R   0.592762 0.987479 0.036750 0.132949
C85   C     C_R   0.092755 0.487421 0.036752 0.132950
C86   C     C_R   0.615588 0.990937 0.934760 -0.071906
C87   C     C_R   0.115584 0.490870 0.934763 -0.071890
C88   C     C_R   0.565250 0.997603 0.845271 -0.251813
C89   C     C_R   0.065249 0.497559 0.845274 -0.251826
C90   C     C_R   0.504813 0.011575 0.151042 -0.046281
C91   C     C_R   0.004812 0.511562 0.151040 -0.046299
C92   C     C_R   0.616640 0.975728 0.228891 -0.000006
C93   C     C_R   0.735985 0.771051 0.536348 0.081027
C94   C     C_R   0.116635 0.475704 0.228896 -0.000018
C95   C     C_R   0.699731 0.245607 0.712451 -0.216550
C96   C     C_R   0.700993 0.757128 0.714704 -0.196202
C97   C     C_R   0.199779 0.745546 0.712497 -0.216674
C98   C     C_R   0.200903 0.257021 0.714647 -0.196200
C99   C     C_R   0.636868 0.163167 0.583770 -0.038716
C100  C     C_R   0.636226 0.836020 0.583449 -0.046046
C101  C     C_R   0.136870 0.663166 0.583779 -0.038676
C102  C     C_R   0.136178 0.335971 0.583422 -0.046089
C103  C     C_R   0.360267 0.807081 0.311157 -0.244424
C104  C     C_R   0.233661 0.731604 0.533255 0.087352
C105  C     C_R   0.363619 0.196750 0.314741 -0.251982
C106  C     C_R   0.860274 0.307083 0.311157 -0.244421
C107  C     C_R   0.863645 0.696775 0.314758 -0.252014
C108  C     C_R   0.310451 0.754450 0.275848 0.071878
C109  C     C_R   0.315794 0.252027 0.281481 0.075613
C110  C     C_R   0.810443 0.254473 0.275834 0.071875
C111  C     C_R   0.815851 0.752085 0.281513 0.075634
C112  C     C_R   0.267800 0.728183 0.348156 -0.217253
C113  C     C_R   0.273363 0.278668 0.354141 -0.215911
C114  C     C_R   0.767781 0.228218 0.348134 -0.217242
C115  C     C_R   0.235911 0.270969 0.536303 0.081045
C116  C     C_R   0.773430 0.778740 0.354182 -0.215892
C117  C     C_R   0.278767 0.749918 0.458151 0.034194
C118  C     C_R   0.282245 0.253992 0.462431 0.033240
C119  C     C_R   0.778757 0.249934 0.458137 0.034190
C120  C     C_R   0.782310 0.754060 0.462469 0.033235
C121  C     C_R   0.337922 0.791914 0.495295 0.018286
C122  C     C_R   0.340429 0.210373 0.498916 0.020406
C123  C     C_R   0.837913 0.291925 0.495289 0.018273
C124  C     C_R   0.840480 0.710416 0.498941 0.020428
C125  C     C_R   0.690547 0.991645 0.917875 0.126585
C126  C     C_R   0.746988 0.258075 0.640508 0.117522
C127  C     C_R   0.711165 0.964438 0.821515 -0.175199
C128  C     C_R   0.779733 0.967508 0.803306 -0.146857
C129  C     C_R   0.829981 0.994310 0.882922 -0.117482
C130  C     C_R   0.811195 0.020984 0.978921 -0.108315
C131  C     C_R   0.741980 0.023133 0.994117 -0.138901
C132  C     C_R   0.190543 0.491559 0.917879 0.126655
C133  C     C_R   0.211153 0.464346 0.821516 -0.175179
C134  C     C_R   0.279721 0.467403 0.803303 -0.146863
C135  C     C_R   0.329975 0.494199 0.882917 -0.117478
C136  C     C_R   0.311196 0.520880 0.978919 -0.108359
H1    H     H_    0.613795 0.180625 0.745563 0.183047
H2    H     H_    0.845438 0.510871 0.690367 0.137851
H3    H     H_    0.380361 0.021684 0.031759 0.137981
H4    H     H_    0.880370 0.521708 0.031759 0.137930
H5    H     H_    0.581638 0.001942 0.768950 0.214111
H6    H     H_    0.081640 0.501923 0.768956 0.214109
H7    H     H_    0.325390 0.798919 0.762618 0.180611
H8    H     H_    0.326806 0.203693 0.765977 0.177383
H9    H     H_    0.825334 0.298997 0.762593 0.180618
H10   H     H_    0.826893 0.703784 0.766019 0.177421
H11   H     H_    0.706945 0.270840 0.791344 0.149074
H12   H     H_    0.611654 0.818115 0.744185 0.185331
H13   H     H_    0.708809 0.733901 0.794574 0.152060
H14   H     H_    0.207011 0.770757 0.791405 0.149070
H15   H     H_    0.208701 0.233760 0.794500 0.151939
H16   H     H_    0.664099 0.165487 0.425969 0.160742
H17   H     H_    0.663908 0.832326 0.426260 0.154784
H18   H     H_    0.164026 0.665586 0.425935 0.160718
H19   H     H_    0.163819 0.332238 0.426209 0.154781
H20   H     H_    0.388055 0.833557 0.252860 0.166990
H21   H     H_    0.391030 0.170109 0.255661 0.158319
H22   H     H_    0.888071 0.333554 0.252868 0.166995
H23   H     H_    0.113846 0.680561 0.745612 0.183021
H24   H     H_    0.891038 0.670118 0.255669 0.158291
H25   H     H_    0.727797 0.190272 0.316242 0.123231
H26   H     H_    0.735669 0.819831 0.324431 0.118822
H27   H     H_    0.227839 0.690201 0.316284 0.123246
H28   H     H_    0.235589 0.319746 0.324370 0.118836
H29   H     H_    0.651373 0.961608 0.300159 0.135738
H30   H     H_    0.151365 0.461586 0.300168 0.135769
H31   H     H_    0.674813 0.940347 0.759479 0.129015
H32   H     H_    0.794140 0.946603 0.728628 0.144558
H33   H     H_    0.883369 0.994691 0.870094 0.130510
H34   H     H_    0.111593 0.318053 0.744150 0.185359
H35   H     H_    0.850073 0.042800 0.040255 0.140352
H36   H     H_    0.729258 0.050812 0.065293 0.143302
H37   H     H_    0.174794 0.440261 0.759481 0.129026
H38   H     H_    0.294122 0.446495 0.728622 0.144563
H39   H     H_    0.383362 0.494572 0.870085 0.130545
H40   H     H_    0.350079 0.542693 0.040250 0.140360
H41   H     H_    0.229267 0.550722 0.065298 0.143301
H42   H     H_    0.244964 0.948218 0.747850 0.127972
H43   H     H_    0.122105 0.975431 0.750127 0.141448
H44   H     H_    0.086264 0.074900 0.868361 0.132412
H45   H     H_    0.687676 0.943582 0.125174 0.165449
H46   H     H_    0.174103 0.147769 0.984797 0.138486
H47   H     H_    0.297302 0.122727 0.982712 0.142052
H48   H     H_    0.744775 0.448832 0.747486 0.127909
H49   H     H_    0.622015 0.476614 0.749490 0.141399
H50   H     H_    0.586451 0.576101 0.867912 0.132660
H51   H     H_    0.674456 0.648369 0.984880 0.138658
H52   H     H_    0.797560 0.622811 0.983017 0.142022
H53   H     H_    0.190452 0.731532 0.139362 0.127934
H54   H     H_    0.179310 0.694485 0.949251 0.138191
H55   H     H_    0.283830 0.672758 0.861491 0.156874
H56   H     H_    0.187659 0.443504 0.125185 0.165457
H57   H     H_    0.398885 0.690992 0.962715 0.147302
H58   H     H_    0.411752 0.724609 0.153697 0.132114
H59   H     H_    0.418299 0.281093 0.162010 0.132529
H60   H     H_    0.406631 0.312295 0.970445 0.146766
H61   H     H_    0.292037 0.326760 0.866432 0.147546
H62   H     H_    0.186957 0.314109 0.954818 0.138021
H63   H     H_    0.196822 0.280020 0.145506 0.129408
H64   H     H_    0.690434 0.231604 0.139342 0.127941
H65   H     H_    0.679282 0.194595 0.949216 0.138197
H66   H     H_    0.783797 0.172867 0.861441 0.156870
H67   H     H_    0.453912 0.026152 0.166593 0.124687
H68   H     H_    0.898855 0.191065 0.962664 0.147334
H69   H     H_    0.911734 0.224633 0.153662 0.132110
H70   H     H_    0.918387 0.781034 0.162046 0.132522
H71   H     H_    0.906753 0.812264 0.970497 0.146756
H72   H     H_    0.792177 0.826893 0.866494 0.147521
H73   H     H_    0.687086 0.814380 0.954881 0.138030
H74   H     H_    0.696910 0.780259 0.145552 0.129400
H75   H     H_    0.953913 0.526146 0.166590 0.124683
H76   H     H_    0.345421 0.010747 0.690375 0.137865
N1    N     N_R   0.552340 1.000000 0.237260 -0.103320
N2    N     N_R   0.052340 0.500000 0.237260 -0.103327
N3    N     N_R   0.448170 0.000000 0.762060 -0.108747
N4    N     N_R   0.948170 0.500000 0.762060 -0.108746
O1    O     O_R   0.448200 0.076800 0.373930 -0.631870
O2    O     O_R   0.585240 0.076800 0.457600 -0.629278
O3    O     O_R   0.085240 0.423200 0.457600 -0.637158
O4    O     O_R   0.085240 0.576800 0.457600 -0.629268
O5    O     O_R   0.551780 0.923190 0.626070 -0.615371
O6    O     O_R   0.551780 0.076810 0.626070 -0.612658
O7    O     O_R   0.051780 0.423190 0.626070 -0.615390
O8    O     O_R   0.051780 0.576810 0.626070 -0.612629
O9    O     O_R   0.448200 0.923200 0.373930 -0.623550
O10   O     O_R   0.948200 0.576800 0.373930 -0.631869
O11   O     O_R   0.948200 0.423200 0.373930 -0.623561
O12   O     O_R   0.414750 0.076790 0.542400 -0.593522
O13   O     O_R   0.414750 0.923210 0.542400 -0.591412
O14   O     O_R   0.914750 0.576790 0.542400 -0.593562
O15   O     O_R   0.914750 0.423210 0.542400 -0.591396
O16   O     O_R   0.585240 0.923200 0.457600 -0.637158
Zn1   Zn    Zn3+2 0.522330 0.000000 0.387520 0.936661
Zn2   Zn    Zn3+2 0.022330 0.500000 0.387520 0.936651
Zn3   Zn    Zn3+2 0.477660 1.000000 0.612480 0.983471
Zn4   Zn    Zn3+2 0.977660 0.500000 0.612480 0.983462

loop_
_geom_bond_atom_site_label_1
_geom_bond_atom_site_label_2
_ccdc_geom_bond_type
C96   H13   S    
C1    O1    A    
C53   H18   S    
C24   C43   A    
C4    C9    A    
C9    H47   S    
N1    Zn1   S    
C23   C25   A    
C91   H75   S    
O15   Zn4   S    
C26   H60   S    
C15   C16   A    
C104  C117  A    
C113  C118  A    
C11   H48   S    
C42   H74   S    
C103  H20   S    
C106  H22   S    
C116  H26   S    
C41   C42   A    
C23   C29   A    
C60   O14   A    
C79   C88   A    
C127  H31   S    
C33   C34   A    
C34   H68   S    
C45   H10   S    
O11   Zn2   S    
C30   C36   A    
C17   C18   A    
C73   C102  S    
C34   C36   A    
O8    Zn4   S    
C93   C120  A    
C54   H19   S    
C13   C35   A    
C3    C136  A    
C74   C101  S    
C31   H64   S    
C81   C84   A    
O7    Zn4   S    
C113  H28   S    
C45   C50   A    
C58   H34   S    
C51   C99   A    
C91   N2    A    
C55   C95   A    
C62   C123  A    
C30   C31   A    
C56   H12   S    
N3    Zn3   S    
C13   C97   A    
C5    H42   S    
C80   N4    A    
C125  C131  A    
C86   C125  S    
C119  C123  A    
C73   O3    A    
C75   H3    S    
C87   C132  S    
C31   C32   A    
C4    C5    A    
C25   H59   S    
C83   C91   A    
O12   Zn3   S    
C41   H73   S    
C37   C42   A    
C18   H53   S    
C71   O15   A    
O9    Zn1   S    
C85   C87   A    
C25   C26   A    
C39   H71   S    
C5    C6    A    
C106  C110  A    
C38   H70   S    
C105  C109  A    
C114  C119  A    
C11   C12   A    
C65   C94   A    
C72   C99   S    
C37   C38   A    
C6    C7    A    
N4    Zn4   S    
C44   H9    S    
C6    H43   S    
C44   C126  A    
O14   Zn4   S    
C52   C93   A    
C37   C111  S    
C65   C85   A    
O4    Zn2   S    
C77   C79   A    
C48   C123  A    
C18   C19   A    
C74   O8    A    
C51   H16   S    
C135  C136  A    
C4    C68   S    
C130  H35   S    
C3    H41   S    
C72   O6    A    
C10   C69   S    
C10   C16   A    
C21   H57   S    
C20   C21   A    
C52   C100  A    
C1    C61   S    
O16   Zn1   S    
Br2   C47   S    
C13   C104  A    
C67   C69   A    
C14   C15   A    
C43   C47   A    
C98   H15   S    
C20   H55   S    
C76   H4    S    
C21   C22   A    
C50   C124  A    
C36   H69   S    
C29   H63   S    
C90   N1    A    
C67   N4    A    
C28   C29   A    
O1    Zn1   S    
C54   C102  A    
C2    C96   A    
C118  C122  A    
C57   C97   A    
C39   C40   A    
C60   C63   S    
C117  C121  A    
C52   H17   S    
C24   C98   A    
C87   C89   A    
C79   N3    A    
C81   C90   A    
C86   C88   A    
C27   C28   A    
C7    C8    A    
C8    H46   S    
C35   C46   A    
C78   C83   A    
C1    O12   A    
C89   H6    S    
C112  H27   S    
C46   C121  A    
C64   C92   A    
C62   C106  A    
C71   O11   A    
C61   C105  A    
C110  C114  A    
C49   O9    A    
C68   C75   A    
C67   H2    S    
C109  C113  A    
C23   C109  S    
C76   C78   A    
C84   C86   A    
C64   H45   S    
C73   O7    A    
C78   C80   A    
C92   H29   S    
C94   N2    A    
C129  C130  A    
C64   C84   A    
O10   Zn2   S    
C30   C110  S    
C38   C39   A    
N2    Zn2   S    
C59   C103  A    
C127  C128  A    
C134  H38   S    
C49   O13   A    
C108  C112  A    
C17   C108  S    
C57   C101  A    
C40   C41   A    
C70   C100  S    
C2    C93   A    
Br1   C46   S    
C115  C118  A    
C63   C107  A    
C33   H66   S    
C43   H8    S    
C14   H50   S    
C129  H33   S    
O6    Zn3   S    
O2    Zn1   S    
C95   C126  A    
Br4   C50   S    
C88   H5    S    
C57   H23   S    
C47   C122  A    
C12   C14   A    
C82   C126  A    
C107  H24   S    
C132  C133  A    
C56   C96   A    
O3    Zn2   S    
C16   H52   S    
C53   C101  A    
C107  C111  A    
Br3   C48   S    
C24   C115  A    
C130  C131  A    
C58   C102  A    
C70   O5    A    
C128  H32   S    
C133  C134  A    
C114  H25   S    
C75   C77   A    
C66   N3    A    
C120  C124  A    
C72   O2    A    
C131  H36   S    
C51   C82   A    
C83   C85   A    
C66   H76   S    
O13   Zn3   S    
C55   C99   A    
C3    C132  A    
C105  H21   S    
C63   C124  A    
C61   C122  A    
C60   O10   A    
C49   C59   S    
C26   C27   A    
C95   H11   S    
C97   H14   S    
O5    Zn3   S    
C62   C71   S    
C17   C22   A    
C19   H54   S    
C125  C127  A    
C54   C115  A    
C136  H40   S    
C69   C76   A    
C15   H51   S    
C128  C129  A    
C80   C89   A    
C65   H56   S    
C2    C45   A    
C28   H62   S    
C22   H58   S    
C27   H61   S    
C135  H39   S    
C134  C135  A    
C19   C20   A    
C94   H30   S    
C116  C120  A    
C44   C48   A    
C53   C104  A    
C133  H37   S    
C8    C9    A    
C55   H1    S    
C59   C121  A    
C32   C33   A    
C111  C116  A    
C35   H7    S    
C82   C119  A    
C10   C11   A    
C103  C108  A    
C7    H44   S    
C66   C68   A    
C112  C117  A    
C90   H67   S    
C40   H72   S    
C56   C100  A    
C70   O16   A    
C12   H49   S    
C77   C81   A    
C92   N1    A    
C74   O4    A    
C32   H65   S    
C58   C98   A    
