data_mof_unit_57864.cif
_audit_creation_date              2012-10-26T19:53:27-0400
_audit_creation_method            fapswitch 2.2
_symmetry_space_group_name_H-M    P1
_symmetry_Int_Tables_number       1
_space_group_crystal_system       triclinic
_cell_length_a                    9.069953
_cell_length_b                    7.896739
_cell_length_c                    10.651395
_cell_angle_alpha                 86.413755
_cell_angle_beta                  90.268528
_cell_angle_gamma                 90.011372
_cell_volume                      761.383145863

loop_
_atom_site_label
_atom_site_type_symbol
_atom_type_description
_atom_site_fract_x
_atom_site_fract_y
_atom_site_fract_z
_atom_type_partial_charge
C1    C     C_R   0.220496 0.499985 0.500052 0.544146
C2    C     C_3   0.632209 0.476199 0.054951 -0.126270
C3    C     C_3   0.516513 0.487103 0.877888 0.025754
C4    C     C_3   0.488322 0.515416 0.121956 0.018180
C5    C     C_1   0.065516 0.499984 0.500084 -0.064449
C6    C     C_1   0.934475 0.500021 0.500085 -0.065820
C7    C     C_3   0.375662 0.822899 0.043020 -0.276355
C8    C     C_3   0.302649 0.897379 0.921476 -0.448493
C9    C     C_3   0.626609 0.176943 0.967100 -0.280340
C10   C     C_3   0.685482 0.105884 0.095203 -0.433146
C11   C     C_3   0.740954 0.712323 0.908601 -0.281878
C12   C     C_R   0.779503 0.500011 0.500025 0.543130
C13   C     C_3   0.722956 0.844042 0.798725 -0.392232
C14   C     C_3   0.283419 0.272029 0.108066 -0.263647
C15   C     C_3   0.137386 0.280661 0.035341 -0.463895
C16   C     C_R   0.492812 0.505363 0.259149 0.530004
C17   C     C_R   0.510578 0.495098 0.740709 0.538723
C18   C     C_3   0.454884 0.658184 0.021677 0.022261
C19   C     C_3   0.549699 0.345373 0.979521 0.013673
C20   C     C_3   0.599281 0.618057 0.952067 0.022429
C21   C     C_3   0.404936 0.386228 0.047156 0.019273
C22   C     C_3   0.371219 0.528101 0.945142 -0.105571
Cu1   Cu    Cu3+1 0.500000 0.669080 0.500000 0.967448
Cu2   Cu    Cu3+1 0.500000 0.330920 0.500000 0.974552
H1    H     H_    0.264558 0.549226 0.894965 0.108838
H2    H     H_    0.709666 0.969676 0.093773 0.137176
H3    H     H_    0.547398 0.089777 0.927366 0.156171
H4    H     H_    0.720105 0.196001 0.900849 0.143419
H5    H     H_    0.744955 0.785463 0.708941 0.190497
H6    H     H_    0.611397 0.899613 0.794693 0.169927
H7    H     H_    0.805546 0.946513 0.806850 0.119299
H8    H     H_    0.792568 0.770553 0.989445 0.130352
H9    H     H_    0.822005 0.616472 0.879940 0.125290
H10   H     H_    0.082675 0.404544 0.047003 0.138558
H11   H     H_    0.154064 0.266348 0.933478 0.149516
H12   H     H_    0.740273 0.459741 0.103838 0.101593
H13   H     H_    0.063172 0.177987 0.072890 0.140545
H14   H     H_    0.323271 0.140396 0.120019 0.148735
H15   H     H_    0.258882 0.311796 0.203794 0.166163
H16   H     H_    0.366891 0.869368 0.837045 0.178742
H17   H     H_    0.189997 0.844434 0.911823 0.139078
H18   H     H_    0.294063 0.036155 0.922103 0.148175
H19   H     H_    0.289146 0.798726 0.115458 0.147968
H20   H     H_    0.455630 0.910320 0.081038 0.151228
H21   H     H_    0.789013 0.171017 0.119919 0.140740
H22   H     H_    0.603405 0.121303 0.170578 0.184308
N1    N     N_1   0.500000 0.076820 0.500000 -0.095241
N2    N     N_1   0.500000 0.923180 0.500000 -0.099220
O1    O     O_R   0.288390 0.642760 0.500000 -0.493615
O2    O     O_R   0.711610 0.357240 0.500000 -0.493570
O3    O     O_R   0.711610 0.642760 0.500000 -0.508622
O4    O     O_R   0.288390 0.357240 0.500000 -0.497692
O5    O     O_R   0.499960 0.642760 0.316850 -0.505410
O6    O     O_R   0.500040 0.357240 0.683150 -0.508677
O7    O     O_R   0.500040 0.642760 0.683150 -0.516401
O8    O     O_R   0.499960 0.357240 0.316850 -0.515347

loop_
_geom_bond_atom_site_label_1
_geom_bond_atom_site_label_2
_ccdc_geom_bond_type
Cu2   O4    S    
Cu2   O6    S    
C2    C4    S    
Cu1   Cu2   S    
C16   O8    A    
C3    C19   S    
Cu1   N2    S    
C7    H19   S    
C14   H14   S    
C9    C10   S    
C17   O7    A    
C15   H10   S    
Cu1   O3    S    
N1    N2    T    
C11   H9    S    
C7    C18   S    
C4    C18   S    
C10   H2    S    
C10   H21   S    
C2    C19   S    
C7    C8    S    
C18   C22   S    
C21   C22   S    
C8    H17   S    
Cu1   O7    S    
C4    C21   S    
C11   C13   S    
C1    C5    S    
C14   C21   S    
C15   H11   S    
C4    C16   S    
C19   C21   S    
C9    C19   S    
C11   H8    S    
C3    C17   S    
C18   C20   S    
Cu2   O2    S    
C5    C6    T    
C1    O4    A    
C11   C20   S    
Cu1   O1    S    
Cu2   O8    S    
C2    C20   S    
C6    C12   S    
C10   H22   S    
C3    C20   S    
C12   O3    A    
C2    H12   S    
C13   H6    S    
C9    H3    S    
C13   H5    S    
C16   O5    A    
C15   H13   S    
C3    C22   S    
Cu1   O5    S    
C8    H16   S    
C7    H20   S    
C14   H15   S    
C14   C15   S    
Cu2   N1    S    
C1    O1    A    
C17   O6    A    
C13   H7    S    
C9    H4    S    
C8    H18   S    
C12   O2    A    
C22   H1    S    
