data_mof_unit_22845.cif
_audit_creation_date              2012-10-26T18:34:48-0400
_audit_creation_method            fapswitch 2.2
_symmetry_space_group_name_H-M    P1
_symmetry_Int_Tables_number       1
_space_group_crystal_system       triclinic
_cell_length_a                    10.82174
_cell_length_b                    9.688155
_cell_length_c                    17.72366
_cell_angle_alpha                 89.997553
_cell_angle_beta                  94.997743
_cell_angle_gamma                 90.024413
_cell_volume                      1851.13148295

loop_
_atom_site_label
_atom_site_type_symbol
_atom_type_description
_atom_site_fract_x
_atom_site_fract_y
_atom_site_fract_z
_atom_type_partial_charge
C1    C     C_R   0.262496 0.499979 0.499465 0.566502
C2    C     C_R   0.500941 0.500088 0.643753 0.566729
C3    C     C_R   0.871621 0.500019 0.500493 0.037887
C4    C     C_R   0.128379 0.499981 0.499509 0.037875
C5    C     C_R   0.389808 0.529417 0.839581 0.016152
C6    C     C_R   0.610208 0.470753 0.160418 0.016167
C7    C     C_R   0.388267 0.530290 0.148201 -0.018828
C8    C     C_R   0.611685 0.469583 0.851802 -0.018816
C9    C     C_R   0.391876 0.536121 0.760002 -0.005319
C10   C     C_R   0.608150 0.464027 0.239997 -0.005322
C11   C     C_R   0.388445 0.532883 0.227977 0.010987
C12   C     C_R   0.737504 0.500021 0.500537 0.566491
C13   C     C_R   0.611516 0.467006 0.772026 0.011016
C14   C     C_R   0.501537 0.500764 0.726642 -0.022967
C15   C     C_R   0.498456 0.499243 0.273359 -0.022978
C16   C     C_R   0.419072 0.074144 0.450570 0.120732
C17   C     C_R   0.580928 0.925855 0.549430 0.120762
C18   C     C_R   0.580966 0.074053 0.549386 0.127745
C19   C     C_R   0.419036 0.925946 0.450612 0.127755
C20   C     C_R   0.500503 0.499406 0.884762 0.033313
C21   C     C_R   0.499477 0.500613 0.115238 0.033313
C22   C     C_3   0.270467 0.548342 0.877585 -0.355623
C23   C     C_1   0.500126 0.499777 0.966136 -0.023371
C24   C     C_3   0.729569 0.452014 0.122413 -0.355611
C25   C     C_3   0.270572 0.554954 0.096713 -0.398438
C26   C     C_3   0.729347 0.444751 0.903295 -0.398422
C27   C     C_2   0.280694 0.579546 0.710455 0.236567
C28   C     C_2   0.719377 0.420730 0.289542 0.236526
C29   C     C_2   0.273709 0.570212 0.263785 0.198980
C30   C     C_2   0.726233 0.429604 0.736219 0.198969
C31   C     C_3   0.326822 0.145722 0.393921 -0.318380
C32   C     C_3   0.673171 0.854277 0.606083 -0.318392
C33   C     C_3   0.673526 0.145560 0.605775 -0.335679
C34   C     C_1   0.499848 0.500243 0.033863 -0.023371
C35   C     C_3   0.326492 0.854438 0.394213 -0.335687
C36   C     C_R   0.063599 0.374628 0.498221 -0.119466
C37   C     C_R   0.936401 0.625372 0.501781 -0.119514
C38   C     C_R   0.935816 0.374643 0.498714 -0.113931
C39   C     C_R   0.064184 0.625358 0.501288 -0.113991
C40   C     C_R   0.499056 0.499913 0.356247 0.566731
Cu1   Cu    Cu3+1 0.500000 0.640660 0.500000 0.951096
Cu2   Cu    Cu3+1 0.500000 0.359340 0.500000 0.951113
H1    H     H_    0.111309 0.276537 0.496879 0.131519
H2    H     H_    0.741258 0.539131 0.082971 0.109463
H3    H     H_    0.185717 0.565660 0.126754 0.125356
H4    H     H_    0.281111 0.649925 0.062795 0.131071
H5    H     H_    0.253968 0.465851 0.057768 0.139233
H6    H     H_    0.814192 0.433884 0.873259 0.125318
H7    H     H_    0.746064 0.533844 0.942233 0.139214
H8    H     H_    0.718681 0.349812 0.937218 0.131103
H9    H     H_    0.254530 0.524067 0.658419 0.104626
H10   H     H_    0.745462 0.476198 0.341592 0.104637
H11   H     H_    0.217960 0.657314 0.242712 0.099593
H12   H     H_    0.888691 0.723463 0.503123 0.131516
H13   H     H_    0.781918 0.342440 0.757270 0.099576
H14   H     H_    0.326697 0.257352 0.394329 0.232746
H15   H     H_    0.345202 0.116887 0.335368 0.113707
H16   H     H_    0.230771 0.116096 0.404346 0.094485
H17   H     H_    0.673306 0.742646 0.605671 0.232693
H18   H     H_    0.769224 0.883912 0.595669 0.094464
H19   H     H_    0.654776 0.883102 0.664635 0.113722
H20   H     H_    0.673083 0.257024 0.605211 0.222648
H21   H     H_    0.655734 0.116743 0.664432 0.094148
H22   H     H_    0.769510 0.116384 0.594987 0.092282
H23   H     H_    0.887629 0.276561 0.497553 0.137794
H24   H     H_    0.326912 0.742972 0.394786 0.222612
H25   H     H_    0.230503 0.883634 0.404979 0.092269
H26   H     H_    0.344320 0.883235 0.335559 0.094174
H27   H     H_    0.112372 0.723440 0.502447 0.137810
H28   H     H_    0.185897 0.547935 0.837734 0.178666
H29   H     H_    0.258656 0.461228 0.917008 0.109464
H30   H     H_    0.274426 0.646548 0.909980 0.144956
H31   H     H_    0.814139 0.452589 0.162264 0.178647
H32   H     H_    0.725745 0.353787 0.090038 0.144969
N1    N     N_R   0.500000 0.852070 0.500000 -0.227426
N2    N     N_R   0.500000 0.147930 0.500000 -0.227439
O1    O     O_R   0.319640 0.618740 0.499990 -0.515982
O2    O     O_2   0.779009 0.318974 0.274423 -0.501151
O3    O     O_2   0.239417 0.502791 0.316285 -0.530163
O4    O     O_2   0.760582 0.497032 0.683737 -0.530180
O5    O     O_R   0.680360 0.381260 0.500010 -0.515975
O6    O     O_R   0.680360 0.618740 0.500010 -0.522423
O7    O     O_R   0.319640 0.381260 0.499990 -0.522394
O8    O     O_R   0.500000 0.618830 0.391250 -0.516107
O9    O     O_R   0.500000 0.381170 0.608750 -0.516080
O10   O     O_R   0.500000 0.618830 0.608750 -0.493657
O11   O     O_R   0.500000 0.381170 0.391250 -0.493645
O12   O     O_2   0.221198 0.681418 0.725553 -0.501160

loop_
_geom_bond_atom_site_label_1
_geom_bond_atom_site_label_2
_ccdc_geom_bond_type
C4    C36   A    
C8    C13   A    
C8    C26   S    
Cu1   Cu2   S    
C40   O8    A    
C5    C20   A    
C16   C31   S    
C7    C11   A    
Cu1   O10   S    
C8    C20   A    
C40   O11   A    
C32   H19   S    
C10   C15   A    
C26   H8    S    
Cu1   O1    S    
C24   H31   S    
C1    O1    A    
C2    O9    A    
C3    C12   S    
C11   C15   A    
C5    C22   S    
C3    C38   A    
C33   H20   S    
C38   H23   S    
C31   H14   S    
C28   O2    D    
C25   H5    S    
C26   H6    S    
C30   O4    D    
C13   C14   A    
Cu2   O5    S    
C22   H30   S    
C27   H9    S    
C16   C19   A    
C20   C23   S    
C13   C30   S    
C26   H7    S    
C21   C34   S    
C35   H24   S    
C7    C21   A    
Cu1   O8    S    
C31   H16   S    
C9    C14   A    
C5    C9    A    
Cu1   N1    S    
C29   O3    D    
C4    C39   A    
C35   H25   S    
C33   H21   S    
C23   C34   T    
C6    C24   S    
C17   C18   A    
C39   H27   S    
C12   O6    A    
Cu2   O9    S    
C6    C21   A    
C11   C29   S    
C37   H12   S    
C24   H2    S    
C32   H18   S    
C25   H3    S    
C22   H29   S    
C9    C27   S    
C10   C28   S    
C18   N2    A    
C16   N2    A    
Cu2   O7    S    
C6    C10   A    
C1    O7    A    
C30   H13   S    
Cu2   N2    S    
C7    C25   S    
C1    C4    S    
C31   H15   S    
C19   N1    A    
C37   C39   A    
C19   C35   S    
C28   H10   S    
C24   H32   S    
C29   H11   S    
C35   H26   S    
C33   H22   S    
Cu1   O6    S    
C36   C38   A    
C12   O5    A    
C2    O10   A    
C27   O12   D    
C2    C14   S    
C18   C33   S    
C15   C40   S    
C3    C37   A    
C17   N1    A    
C17   C32   S    
C36   H1    S    
Cu2   O11   S    
C32   H17   S    
C25   H4    S    
C22   H28   S    
