data_mof_unit_22287.cif
_audit_creation_date              2012-12-11T17:01:32-0500
_audit_creation_method            fapswitch 2.2
_symmetry_space_group_name_H-M    P1
_symmetry_Int_Tables_number       1
_space_group_crystal_system       triclinic
_cell_length_a                    15.009407
_cell_length_b                    14.922262
_cell_length_c                    14.96851
_cell_angle_alpha                 109.904401
_cell_angle_beta                  109.084847
_cell_angle_gamma                 109.26538
_cell_volume                      2585.74624172

loop_
_atom_site_label
_atom_site_type_symbol
_atom_type_description
_atom_site_fract_x
_atom_site_fract_y
_atom_site_fract_z
_atom_type_partial_charge
C1    C     C_R   0.930386 0.744657 0.022315 0.722619
C2    C     C_R   0.225052 0.775727 0.315223 -0.124379
C3    C     C_R   0.967272 0.408558 0.224144 -0.115794
C4    C     C_R   0.796833 0.195008 0.704358 0.648864
C5    C     C_R   0.315070 0.590500 0.050350 -0.127268
C6    C     C_R   0.036818 0.501936 0.327358 0.110216
C7    C     C_R   0.325832 0.498883 0.036199 0.033282
C8    C     C_R   0.327077 0.810369 0.324657 0.073150
C9    C     C_R   0.935315 0.132469 0.934651 0.031300
C10   C     C_3   0.538396 0.482224 0.961866 -0.367933
C11   C     C_3   0.436585 0.487572 0.952169 -0.374838
C12   C     C_R   0.703333 0.131238 0.699666 -0.342690
C13   C     C_3   0.535117 0.401311 0.086296 0.702421
C14   C     C_3   0.631918 0.606219 0.166308 -0.412419
C15   C     C_3   0.605039 0.496011 0.074433 0.169290
C16   C     C_R   0.098930 0.591174 0.794704 -0.283811
C17   C     C_3   0.427326 0.497895 0.054656 0.294982
C18   C     C_3   0.427783 0.400250 0.070032 -0.526514
C19   C     C_3   0.527149 0.604992 0.158360 -0.473380
C20   C     C_R   0.623433 0.979547 0.513932 0.187001
C21   C     C_R   0.625363 0.017894 0.614424 0.089875
C22   C     C_R   0.535415 0.955711 0.619600 -0.105256
C23   C     C_R   0.069524 0.501179 0.700637 -0.117539
C24   C     C_R   0.436634 0.879472 0.522968 -0.233470
C25   C     C_R   0.430294 0.864743 0.422828 0.055772
C26   C     C_R   0.526598 0.903328 0.419134 0.092506
C27   C     C_3   0.556382 0.955030 0.355947 -0.599470
C28   C     C_R   0.703133 0.407352 0.007850 -0.149645
C29   C     C_3   0.662213 0.039489 0.459532 -0.269664
C30   C     C_R   0.133493 0.607559 0.529196 0.043552
C31   C     C_R   0.085171 0.508510 0.432339 -0.011007
C32   C     C_R   0.077240 0.415194 0.439856 -0.393394
C33   C     C_R   0.090385 0.415396 0.536964 0.856101
C34   C     C_R   0.704416 0.496654 0.077508 -0.248689
C35   C     C_R   0.107730 0.508269 0.623980 -0.209531
C36   C     C_R   0.145249 0.607591 0.624113 0.013285
C37   C     C_3   0.120144 0.698864 0.658915 0.696806
C38   C     C_3   0.106892 0.698423 0.554823 -0.616075
C39   C     C_R   0.848460 0.880270 0.952386 0.086002
C40   C     C_R   0.003664 0.409646 0.699378 0.817049
C41   C     C_R   0.901557 0.833825 0.907006 0.095983
C42   C     C_R   0.926095 0.862116 0.833981 -0.183821
C43   C     C_R   0.923870 0.953987 0.830321 -0.144757
C44   C     C_R   0.895819 0.016217 0.898765 0.001002
C45   C     C_R   0.053154 0.592160 0.314648 -0.111407
C46   C     C_R   0.844682 0.969516 0.947148 0.029959
C47   C     C_3   0.857990 0.020961 0.059061 0.548198
C48   C     C_3   0.863178 0.924717 0.065788 -0.423501
C49   C     C_R   0.795302 0.588160 0.105168 0.863051
C50   C     C_R   0.700985 0.195911 0.789842 0.659430
C51   C     C_R   0.026794 0.751468 0.936278 -0.223019
C52   C     C_R   0.948803 0.776281 0.950488 -0.135319
C53   C     C_R   0.223252 0.406936 0.967049 -0.111358
C54   C     C_R   0.313777 0.772368 0.221353 -0.122681
C55   C     C_R   0.904828 0.196396 0.994586 -0.160462
C56   C     C_R   0.998220 0.195598 0.905911 -0.073791
F1    F     F_    0.848152 0.736137 0.043178 -0.729965
F2    F     F_    0.849638 0.154896 0.659035 -0.656511
F3    F     F_    0.509632 0.298983 0.010568 -0.686327
F4    F     F_    0.077225 0.322866 0.540978 -0.627484
F5    F     F_    0.209899 0.794413 0.750269 -0.667586
F6    F     F_    0.764898 0.021882 0.055408 -0.652362
F7    F     F_    0.967919 0.303471 0.630572 -0.606537
F8    F     F_    0.845421 0.688566 0.194938 -0.696349
F9    F     F_    0.636192 0.160785 0.829701 -0.692967
H1    H     H_    0.201567 0.321533 0.930485 0.109577
H2    H     H_    0.439841 0.559299 0.942708 0.179750
H3    H     H_    0.364322 0.412323 0.876998 0.187016
H4    H     H_    0.358893 0.320920 0.997298 0.212728
H5    H     H_    0.684013 0.620966 0.248205 0.188917
H6    H     H_    0.676009 0.675912 0.157373 0.254825
H7    H     H_    0.530909 0.679848 0.156716 0.180767
H8    H     H_    0.523066 0.610297 0.232786 0.180095
H9    H     H_    0.417947 0.405494 0.141878 0.139090
H10   H     H_    0.536340 0.974592 0.696317 0.225703
H11   H     H_    0.163486 0.674007 0.831798 0.208230
H12   H     H_    0.374816 0.792650 0.198528 0.112267
H13   H     H_    0.364678 0.841102 0.527865 0.151416
H14   H     H_    0.504855 0.989903 0.328824 0.220875
H15   H     H_    0.732672 0.035104 0.453384 0.254111
H16   H     H_    0.051254 0.339763 0.368949 0.177064
H17   H     H_    0.044165 0.676027 0.663792 -0.011307
H18   H     H_    0.021825 0.671737 0.497787 0.171438
H19   H     H_    0.648445 0.321654 0.973509 0.276909
H20   H     H_    0.170177 0.774825 0.568899 0.233612
H21   H     H_    0.960140 0.823253 0.790847 0.142426
H22   H     H_    0.956525 0.982812 0.784766 0.149196
H23   H     H_    0.840151 0.168501 0.012282 0.190435
H24   H     H_    0.934355 0.100483 0.120307 0.014074
H25   H     H_    0.944258 0.948623 0.129272 0.163438
H26   H     H_    0.792692 0.873312 0.069227 0.272400
H27   H     H_    0.059868 0.763355 0.884466 0.165354
H28   H     H_    0.097198 0.676082 0.377262 0.117869
H29   H     H_    0.581103 0.414664 0.169241 0.020779
H30   H     H_    0.566626 0.901925 0.291586 0.213033
H31   H     H_    0.671016 0.122799 0.490999 0.177693
H32   H     H_    0.022049 0.166678 0.845961 0.136567
H33   H     H_    0.208354 0.805140 0.380704 0.107123
H34   H     H_    0.936338 0.323695 0.203625 0.126678
H35   H     H_    0.377546 0.671617 0.080349 0.097374
H36   H     H_    0.514518 0.402014 0.894255 0.210828
H37   H     H_    0.587913 0.547820 0.951107 0.183545
N1    N     N_R   0.995640 0.706130 0.053910 -0.108454
N2    N     N_R   0.054010 0.556790 0.847890 -0.083110
N3    N     N_R   0.789940 0.443190 0.997130 -0.101113
N4    N     N_R   0.997630 0.443170 0.791110 -0.129266
N5    N     N_R   0.846320 0.556810 0.053910 -0.112015
N6    N     N_R   0.791080 0.293860 0.847890 -0.147851
N7    N     N_R   0.052880 0.706130 0.997130 -0.072629
N8    N     N_R   0.002370 0.556830 0.208890 -0.054499
N9    N     N_R   0.153680 0.443190 0.946090 -0.041457
N10   N     N_R   0.208920 0.706140 0.152110 -0.044019
N11   N     N_R   0.947120 0.293870 0.002870 -0.056024
N12   N     N_R   0.004360 0.293870 0.946090 -0.052071
N13   N     N_R   0.151690 0.706140 0.208890 -0.046201
N14   N     N_R   0.945990 0.443210 0.152110 -0.051000
N15   N     N_R   0.210060 0.556810 0.002870 -0.041430
N16   N     N_R   0.848310 0.293860 0.791110 -0.152304
Ni1   Ni    Ni4+2 0.999010 0.630300 0.130220 0.281940
Ni2   Ni    Ni4+2 0.000990 0.369700 0.869780 0.294170
Ni3   Ni    Ni4+2 0.130280 0.630280 0.000000 0.213361
Ni4   Ni    Ni4+2 0.869720 0.369720 0.000000 0.249350

loop_
_geom_bond_atom_site_label_1
_geom_bond_atom_site_label_2
_ccdc_geom_bond_type
C6    C45   A    
C38   H18   S    
C28   H19   S    
C47   H24   S    
C41   C42   A    
C27   H30   S    
C35   C36   A    
C3    C6    A    
C45   H28   S    
C47   F6    S    
N2    N4    A    
C39   C41   A    
C32   H16   S    
N3    N5    A    
C26   C27   S    
C40   F7    S    
N14   Ni4   S    
C13   C18   S    
C22   H10   S    
C36   C37   S    
C27   H14   S    
C3    N14   A    
C30   C31   A    
C27   C29   S    
N9    N15   A    
C23   C40   A    
C30   C38   S    
C14   H6    S    
C55   H23   S    
N15   Ni3   S    
C17   C19   S    
C16   N2    A    
N11   Ni4   S    
C31   C32   A    
C44   C46   A    
C7    C17   S    
C48   H26   S    
C9    C55   A    
C4    C12   A    
C1    N1    A    
C15   C34   S    
C54   H12   S    
C53   N9    A    
C18   H4    S    
C6    C31   S    
C28   C34   A    
C18   H9    S    
C49   F8    S    
C48   H25   S    
C21   C22   A    
C50   N6    A    
C8    C25   S    
C14   H5    S    
C4    N16   A    
C19   H7    S    
C56   H32   S    
N5    Ni1   S    
C1    C52   A    
C11   H2    S    
C20   C29   S    
N1    Ni1   S    
C38   H20   S    
C51   C52   A    
N6    N16   A    
C19   H8    S    
C24   C25   A    
C49   N5    A    
C8    C54   A    
C5    C7    A    
C45   N8    A    
N2    Ni3   S    
C55   N11   A    
C25   C26   A    
C12   C21   S    
C5    N15   A    
N9    Ni2   S    
C43   C44   A    
C37   C38   S    
C1    F1    S    
C51   H27   S    
C2    N13   A    
C12   C50   A    
C47   C48   S    
C5    H35   S    
C10   H37   S    
C28   N3    A    
C17   C18   S    
C54   N10   A    
C9    C56   A    
C53   H1    S    
C39   C46   A    
C42   H21   S    
C24   H13   S    
C16   C23   A    
C23   C35   S    
C13   C15   S    
C22   C24   A    
C37   H17   S    
C42   C43   A    
C7    C53   A    
N8    N14   A    
C11   H3    S    
C40   N4    A    
N11   N12   A    
C46   C47   S    
C11   C17   S    
C9    C44   S    
C41   C52   S    
N4    Ni2   S    
C10   C15   S    
C16   H11   S    
C14   C19   S    
C10   H36   S    
C2    C8    A    
N6    Ni4   S    
N8    Ni1   S    
C29   H31   S    
C37   F5    S    
C13   F3    S    
C33   F4    S    
N13   Ni1   S    
C30   C36   A    
C13   H29   S    
N1    N7    A    
C43   H22   S    
C32   C33   A    
N10   Ni3   S    
N7    Ni3   S    
C29   H15   S    
C20   C26   A    
C33   C35   A    
N3    Ni4   S    
C50   F9    S    
N16   Ni2   S    
C10   C11   S    
C3    H34   S    
C20   C21   A    
C2    H33   S    
C34   C49   A    
C51   N7    A    
C4    F2    S    
C56   N12   A    
C14   C15   S    
N10   N13   A    
N12   Ni2   S    
C39   C48   S    
