data_mof_unit_32928.cif
_audit_creation_date              2013-03-05T16:05:14-0500
_audit_creation_method            fapswitch 2.2
_symmetry_space_group_name_H-M    P1
_symmetry_Int_Tables_number       1
_space_group_crystal_system       triclinic
_cell_length_a                    11.555147
_cell_length_b                    14.99056
_cell_length_c                    15.470786
_cell_angle_alpha                 81.738754
_cell_angle_beta                  91.051999
_cell_angle_gamma                 103.853867
_cell_volume                      2574.50539586

loop_
_atom_site_label
_atom_site_type_symbol
_atom_site_description
_atom_site_fract_x
_atom_site_fract_y
_atom_site_fract_z
_atom_type_partial_charge
O1    O     O_R   0.466720 0.383110 0.605620 -0.629612
O2    O     O_R   0.533280 0.616890 0.394380 -0.625574
O3    O     O_R   0.509090 0.531900 0.639510 -0.587283
O4    O     O_R   0.490910 0.468100 0.360490 -0.614152
C1    C     C_R   0.483744 0.441557 0.662346 0.884022
C2    C     C_R   0.521030 0.558218 0.338170 0.866080
O5    O     O_R   0.644370 0.425610 0.483050 -0.621157
O6    O     O_R   0.355630 0.574390 0.516950 -0.620147
O7    O     O_R   0.686740 0.574390 0.516930 -0.597507
O8    O     O_R   0.313260 0.425610 0.483070 -0.574421
C3    C     C_R   0.717956 0.500954 0.500027 0.902864
C4    C     C_R   0.282159 0.499453 0.499425 0.899620
Zn1   Zn    Zn3+2 0.471710 0.400660 0.477370 0.962646
Zn2   Zn    Zn3+2 0.528290 0.599340 0.522630 0.967165
C5    C     C_1   0.839279 0.503215 0.499312 -0.164489
C6    C     C_1   0.161409 0.499295 0.498112 -0.144262
C7    C     C_1   0.941606 0.503494 0.498455 -0.010482
C8    C     C_1   0.059850 0.501521 0.497836 -0.001097
C9    C     C_R   0.481878 0.405120 0.755640 -0.089364
C10   C     C_R   0.557997 0.592442 0.247457 -0.081027
C11   C     C_R   0.469544 0.277025 0.874588 0.129496
C12   C     C_R   0.697468 0.695522 0.139406 0.133948
C13   C     C_R   0.466295 0.310436 0.785035 -0.227366
C14   C     C_R   0.649732 0.671720 0.225048 -0.239401
C15   C     C_R   0.506984 0.467626 0.815051 -0.192581
C16   C     C_R   0.519463 0.533119 0.186792 -0.250970
C17   C     C_R   0.521620 0.438641 0.903327 0.060894
C18   C     C_R   0.571444 0.549666 0.104046 0.066255
C19   C     C_R   0.486780 0.341974 0.936253 0.042460
C20   C     C_R   0.647118 0.638340 0.074889 0.062531
C21   C     C_R   0.565415 0.505404 0.959498 0.057287
C22   C     C_R   0.545695 0.479890 0.049346 0.053523
C23   C     C_R   0.502647 0.385220 0.082787 -0.244779
C24   C     C_R   0.629137 0.596916 0.928118 -0.275076
C25   C     C_R   0.473013 0.316656 0.028337 -0.039252
C26   C     C_R   0.669840 0.663085 0.983860 -0.050281
H1    H     H_    0.448093 0.472873 0.205374 0.203625
H2    H     H_    0.512023 0.539874 0.791986 0.191556
H3    H     H_    0.688225 0.712154 0.275726 0.155668
H4    H     H_    0.454002 0.262510 0.737577 0.156042
H5    H     H_    0.493781 0.362609 0.152485 0.195411
H6    H     H_    0.650600 0.618357 0.859747 0.215403
N1    N     N_R   0.566020 0.731700 0.552730 -0.139783
N2    N     N_R   0.433980 0.268300 0.447270 -0.137462
C27   C     C_R   0.691086 0.845135 0.629549 -0.316911
C28   C     C_R   0.345658 0.162788 0.348717 -0.291937
C29   C     C_R   0.656292 0.755104 0.610229 0.113546
C30   C     C_R   0.356247 0.245819 0.381255 0.119948
C31   C     C_R   0.517227 0.798115 0.507406 -0.092108
C32   C     C_R   0.496259 0.207288 0.485564 -0.093695
C33   C     C_R   0.564226 0.893418 0.514544 -0.000147
C34   C     C_R   0.493693 0.123778 0.451441 -0.005197
C35   C     C_R   0.645548 0.914543 0.582025 0.125442
C36   C     C_R   0.413431 0.101749 0.383331 0.129341
C37   C     C_R   0.530104 0.967716 0.460225 0.016556
C38   C     C_R   0.561051 0.058679 0.485688 0.017896
C39   C     C_R   0.657784 0.079204 0.543819 0.080822
C40   C     C_R   0.469372 0.956655 0.380205 0.073119
C41   C     C_R   0.690076 0.005771 0.596630 -0.210787
C42   C     C_R   0.403351 0.020225 0.347763 -0.181634
H7    H     H_    0.756175 0.020123 0.646573 0.147045
H8    H     H_    0.347751 0.008154 0.291369 0.150493
H9    H     H_    0.546204 0.224884 0.542705 0.136607
H10   H     H_    0.445118 0.776186 0.464049 0.143402
H11   H     H_    0.760630 0.862197 0.676804 0.172117
H12   H     H_    0.283924 0.145719 0.296424 0.167763
C43   C     C_2   0.410490 0.223636 0.071525 0.909407
O9    O     O_2   0.461030 0.180778 0.127122 -0.658505
O10   O     O_R   0.290844 0.187978 0.053016 -0.800434
H13   H     H_    0.256725 0.124822 0.088136 0.332147
C44   C     C_2   0.716110 0.759762 0.941619 0.895134
O11   O     O_2   0.798713 0.778292 0.888661 -0.631351
O12   O     O_R   0.660145 0.828638 0.958447 -0.824503
H14   H     H_    0.698303 0.891662 0.924626 0.334172
C45   C     C_3   0.740696 0.175370 0.541615 -0.443857
C46   C     C_3   0.872630 0.175042 0.529514 -0.353282
C47   C     C_3   0.951641 0.273131 0.519882 -0.783060
H15   H     H_    0.932149 0.313909 0.457864 0.273673
H16   H     H_    0.936697 0.307993 0.575967 0.249365
H17   H     H_    0.046628 0.270208 0.519107 0.286603
H18   H     H_    0.904238 0.134408 0.586887 0.221258
H19   H     H_    0.883744 0.143371 0.470372 0.242425
H20   H     H_    0.720418 0.223813 0.485452 0.224669
H21   H     H_    0.729352 0.202292 0.603454 0.197541
C48   C     C_3   0.490104 0.889857 0.319990 -0.449010
C49   C     C_3   0.531111 0.940500 0.227705 -0.327350
C50   C     C_3   0.579904 0.879111 0.174883 -0.842006
H22   H     H_    0.661838 0.864557 0.205883 0.251347
H23   H     H_    0.512557 0.813073 0.171301 0.279551
H24   H     H_    0.603482 0.915353 0.107648 0.272258
H25   H     H_    0.455262 0.960914 0.191685 0.233099
H26   H     H_    0.602211 0.004334 0.232461 0.249343
H27   H     H_    0.561397 0.855671 0.345637 0.219928
H28   H     H_    0.406483 0.835774 0.315280 0.198114
C51   C     C_3   0.470286 0.174995 0.897632 -0.432316
C52   C     C_3   0.591990 0.163416 0.932214 -0.345857
C53   C     C_3   0.591103 0.061127 0.957816 -0.831310
H29   H     H_    0.522325 0.028604 0.009494 0.274399
H30   H     H_    0.571828 0.023815 0.900174 0.262946
H31   H     H_    0.679671 0.054751 0.983310 0.248431
H32   H     H_    0.661556 0.194731 0.880696 0.223901
H33   H     H_    0.616386 0.199496 0.990107 0.243889
H34   H     H_    0.397035 0.136823 0.943223 0.233913
H35   H     H_    0.452574 0.139358 0.838740 0.197390
C54   C     C_3   0.812412 0.771377 0.125444 -0.446999
C55   C     C_3   0.918025 0.732172 0.104065 -0.331759
C56   C     C_3   0.033252 0.808234 0.091432 -0.836107
H36   H     H_    0.024614 0.862495 0.036354 0.274477
H37   H     H_    0.054392 0.840521 0.151898 0.252498
H38   H     H_    0.107912 0.777840 0.076287 0.253513
H39   H     H_    0.929556 0.677991 0.158446 0.225676
H40   H     H_    0.901495 0.699618 0.043545 0.241135
H41   H     H_    0.803167 0.829397 0.075319 0.235971
H42   H     H_    0.834937 0.803721 0.185855 0.195255
C57   C     C_2   0.277607 0.304585 0.343547 0.938018
O13   O     O_2   0.195219 0.313349 0.387149 -0.642252
O14   O     O_R   0.285945 0.337902 0.254328 -0.842751
H43   H     H_    0.223580 0.373636 0.234794 0.340992
C58   C     C_2   0.732758 0.692535 0.642610 0.978713
O15   O     O_2   0.699656 0.630304 0.703061 -0.663292
O16   O     O_R   0.847597 0.709153 0.607107 -0.799607
H44   H     H_    0.893280 0.662902 0.635168 0.343801

loop_
_geom_bond_atom_site_label_1
_geom_bond_atom_site_label_2
_geom_bond_distance
_ccdc_geom_bond_type
N2    C30   1.372479 A    
C50   H22   1.107307 S    
C52   H33   1.109556 S    
C17   C19   1.427386 A    
O12   H14   1.013756 S    
C51   C52   1.535131 S    
C24   H6    1.075825 S    
O7    Zn2   1.960422 S    
C53   H29   1.110977 S    
C35   C41   1.390526 A    
C55   H40   1.109672 S    
C47   H15   1.111051 S    
O5    C3    1.297990 A    
O1    C1    1.307134 A    
C54   H41   1.103123 S    
C28   H12   1.086141 S    
C49   H25   1.110793 S    
C45   H21   1.111866 S    
C39   C41   1.394845 A    
C55   C56   1.526295 S    
C40   C42   1.392354 A    
C13   H4    1.083645 S    
C14   H3    1.083793 S    
C38   C39   1.425054 A    
C42   H8    1.084336 S    
C27   C29   1.387125 A    
O4    Zn1   1.929489 S    
C48   H27   1.109257 S    
C10   C14   1.395692 A    
C51   H34   1.102429 S    
C31   C33   1.421176 A    
C32   C34   1.420665 A    
C56   H36   1.110959 S    
C24   C26   1.398672 A    
C26   C44   1.477435 S    
C29   C58   1.468668 S    
C27   C35   1.388589 A    
C31   H10   1.078862 S    
C52   H32   1.112235 S    
C32   H9    1.076795 S    
C56   H37   1.110907 S    
O2    C2    1.305937 A    
C3    C5    1.394378 S    
O2    Zn2   1.963729 S    
C53   H30   1.110904 S    
C34   C36   1.413130 A    
C55   H39   1.112020 S    
C47   H16   1.111235 S    
C28   C30   1.386527 A    
C41   H7    1.083545 S    
C17   C21   1.415680 A    
C43   O9    1.223147 D    
C4    C6    1.394508 S    
C54   H42   1.112278 S    
C18   C22   1.412386 A    
C46   C47   1.522162 S    
O4    C2    1.307877 A    
C46   H19   1.112394 S    
C44   O12   1.398277 S    
C49   C50   1.521207 S    
N1    C31   1.361784 A    
C36   C42   1.390189 A    
C11   C51   1.521835 S    
C57   O14   1.395586 S    
C48   C49   1.542835 S    
C11   C19   1.436955 A    
C33   C35   1.410555 A    
C9    C13   1.396038 A    
C45   C46   1.540634 S    
C15   H2    1.078507 S    
C48   H28   1.111529 S    
C21   C22   1.395528 A    
C25   C43   1.476593 S    
O6    C4    1.295580 A    
C52   C53   1.525220 S    
C28   C36   1.387174 A    
C37   C38   1.434597 A    
C7    C8    1.373953 S    
C21   C24   1.413417 A    
O7    C3    1.298737 A    
O16   H44   1.013980 S    
C58   O16   1.397776 S    
O8    C4    1.301085 A    
C30   C57   1.469119 S    
C11   C13   1.406925 A    
C27   H11   1.085993 S    
C56   H38   1.110440 S    
C12   C14   1.408472 A    
C37   C40   1.422648 A    
O1    Zn1   1.963729 S    
C40   C48   1.522834 S    
C53   H31   1.110527 S    
C51   H35   1.112676 S    
C47   H17   1.109246 S    
N2    C32   1.359860 A    
C5    C7    1.181722 T    
O6    Zn2   1.942611 S    
C12   C20   1.433610 A    
O3    C1    1.311883 A    
O8    Zn1   1.960422 S    
C46   H18   1.109744 S    
C58   O15   1.217683 D    
C16   H1    1.075084 S    
C1    C9    1.466632 S    
O3    Zn2   1.929491 S    
C15   C17   1.392376 A    
C12   C54   1.523307 S    
C2    C10   1.457872 S    
C54   C55   1.535660 S    
C19   C25   1.422293 A    
C16   C18   1.388044 A    
C20   C26   1.416549 A    
C23   H5    1.081890 S    
C22   C23   1.410496 A    
C39   C45   1.524092 S    
C18   C20   1.421479 A    
C44   O11   1.223043 D    
C49   H26   1.112468 S    
O14   H43   1.013866 S    
C45   H20   1.109010 S    
C10   C16   1.380160 A    
C23   C25   1.397468 A    
C33   C37   1.425243 A    
O10   H13   1.014034 S    
C9    C15   1.383639 A    
C34   C38   1.427889 A    
O5    Zn1   1.942611 S    
C6    C8    1.181869 T    
C50   H24   1.108366 S    
C50   H23   1.110814 S    
C43   O10   1.398095 S    
N1    C29   1.372157 A    
Zn1   N2    2.046359 S    
C57   O13   1.219647 D    
Zn2   N1    2.046357 S    
