data_mof_unit_31402.cif
_audit_creation_date              2012-12-10T17:17:53-0500
_audit_creation_method            fapswitch 2.2
_symmetry_space_group_name_H-M    P1
_symmetry_Int_Tables_number       1
_space_group_crystal_system       triclinic
_cell_length_a                    15.580872
_cell_length_b                    15.222712
_cell_length_c                    9.682426
_cell_angle_alpha                 89.952114
_cell_angle_beta                  88.90319
_cell_angle_gamma                 89.817485
_cell_volume                      2296.07497065

loop_
_atom_site_label
_atom_site_type_symbol
_atom_type_description
_atom_site_fract_x
_atom_site_fract_y
_atom_site_fract_z
_atom_type_partial_charge
C1    C     C_R   0.387858 0.874936 0.499620 0.858192
C2    C     C_R   0.388664 0.125724 0.500835 0.862860
C3    C     C_R   0.887858 0.374936 0.499620 0.858193
C4    C     C_R   0.888664 0.625724 0.500835 0.862860
C5    C     C_R   0.307433 0.246305 0.383425 0.274387
C6    C     C_R   0.296546 0.765404 0.372977 0.277900
C7    C     C_R   0.807433 0.746305 0.383425 0.274385
C8    C     C_R   0.796545 0.265404 0.372977 0.277900
C9    C     C_R   0.735162 0.799921 0.384035 -0.241181
C10   C     C_R   0.728774 0.206315 0.377496 -0.253186
C11   C     C_R   0.235162 0.299921 0.384035 -0.241178
C12   C     C_R   0.228774 0.706314 0.377496 -0.253185
C13   C     C_R   0.686306 0.813160 0.505709 -0.104220
C14   C     C_R   0.686823 0.186027 0.502719 -0.108810
C15   C     C_R   0.186306 0.313160 0.505709 -0.104221
C16   C     C_R   0.186824 0.686027 0.502719 -0.108810
C17   C     C_R   0.657896 0.998237 0.138348 -0.114948
C18   C     C_R   0.157896 0.498237 0.138348 -0.114948
C19   C     C_R   0.735167 0.996232 0.065108 -0.122742
C20   C     C_R   0.235167 0.496232 0.065108 -0.122743
C21   C     C_R   0.735488 0.995915 0.923156 -0.155337
C22   C     C_R   0.235488 0.495915 0.923156 -0.155337
C23   C     C_R   0.658555 0.997880 0.853585 -0.151327
C24   C     C_R   0.158555 0.497880 0.853585 -0.151327
C25   C     C_R   0.577669 0.998826 0.923424 0.190591
C26   C     C_R   0.077669 0.498826 0.923424 0.190588
C27   C     C_R   0.577522 0.998879 0.072343 0.211853
C28   C     C_R   0.077522 0.498879 0.072343 0.211851
C29   C     C_R   0.426437 0.001895 0.075754 0.023932
C30   C     C_R   0.926437 0.501895 0.075754 0.023931
C31   C     C_R   0.617399 0.120534 0.500346 0.816018
C32   C     C_R   0.616905 0.878896 0.500824 0.814358
C33   C     C_R   0.117399 0.620534 0.500346 0.816017
C34   C     C_R   0.116905 0.378896 0.500824 0.814358
C35   C     C_R   0.426459 0.001677 0.928527 -0.032234
C36   C     C_R   0.926459 0.501677 0.928527 -0.032235
C37   C     C_R   0.341324 0.229826 0.754549 0.226407
C38   C     C_R   0.356849 0.746254 0.733557 0.205506
C39   C     C_R   0.841324 0.729826 0.754549 0.226408
C40   C     C_R   0.856849 0.246254 0.733557 0.205506
C41   C     C_R   0.298384 0.236265 0.880325 -0.201697
C42   C     C_R   0.321278 0.728386 0.863426 -0.175647
C43   C     C_R   0.798384 0.736265 0.880325 -0.201700
C44   C     C_R   0.821277 0.228386 0.863426 -0.175647
C45   C     C_R   0.711987 0.757516 0.886569 0.436308
C46   C     C_R   0.732233 0.222943 0.880240 0.463574
C47   C     C_R   0.211987 0.257515 0.886569 0.436311
C48   C     C_R   0.232234 0.722943 0.880240 0.463574
C49   C     C_R   0.672299 0.783111 0.763634 -0.238454
C50   C     C_R   0.684169 0.208857 0.760761 -0.292173
C51   C     C_R   0.172299 0.283112 0.763634 -0.238458
C52   C     C_R   0.184169 0.708857 0.760761 -0.292173
C53   C     C_R   0.715573 0.776098 0.632819 0.034794
C54   C     C_R   0.722068 0.217958 0.627769 0.029752
C55   C     C_R   0.215573 0.276098 0.632819 0.034796
C56   C     C_R   0.222068 0.717958 0.627769 0.029753
C57   C     C_R   0.295869 0.233633 0.630968 -0.009953
C58   C     C_R   0.302974 0.757728 0.620832 0.001480
C59   C     C_R   0.795869 0.733633 0.630968 -0.009953
C60   C     C_R   0.802973 0.257728 0.620832 0.001480
C61   C     C_R   0.331969 0.204156 0.504835 -0.126801
C62   C     C_R   0.330707 0.797195 0.497016 -0.127866
C63   C     C_R   0.831969 0.704156 0.504835 -0.126800
C64   C     C_R   0.830707 0.297196 0.497015 -0.127866
Cu1   Cu    Cu3+1 0.499990 0.000000 0.640660 0.969971
Cu2   Cu    Cu3+1 0.999990 0.500000 0.640660 0.969971
Cu3   Cu    Cu3+1 0.500010 0.000000 0.359340 0.986947
Cu4   Cu    Cu3+1 0.000010 0.500000 0.359340 0.986948
H1    H     H_    0.795938 0.995007 0.866016 0.170049
H2    H     H_    0.295938 0.495007 0.866016 0.170049
H3    H     H_    0.667484 0.999173 0.745156 0.204610
H4    H     H_    0.167484 0.499173 0.745156 0.204610
H5    H     H_    0.365816 0.003016 0.875996 0.144687
H6    H     H_    0.865816 0.503016 0.875996 0.144687
H7    H     H_    0.333682 0.228562 0.973006 0.228065
H8    H     H_    0.363283 0.716257 0.948280 0.208705
H9    H     H_    0.833682 0.728563 0.973007 0.228066
H10   H     H_    0.863283 0.216257 0.948280 0.208705
H11   H     H_    0.609041 0.808881 0.776461 0.217373
H12   H     H_    0.618556 0.191608 0.775846 0.221767
H13   H     H_    0.109041 0.308881 0.776461 0.217372
H14   H     H_    0.118556 0.691608 0.775846 0.221767
H15   H     H_    0.719330 0.833898 0.289540 0.213776
H16   H     H_    0.708517 0.176979 0.281838 0.226283
H17   H     H_    0.219330 0.333898 0.289540 0.213775
H18   H     H_    0.208518 0.676978 0.281838 0.226282
H19   H     H_    0.365732 0.003495 0.131806 0.166796
H20   H     H_    0.865733 0.503495 0.131806 0.166796
H21   H     H_    0.665743 0.999597 0.246434 0.189048
H22   H     H_    0.165743 0.499597 0.246434 0.189048
H23   H     H_    0.795339 0.995484 0.119301 0.163891
H24   H     H_    0.295339 0.495484 0.119301 0.163892
N1    N     N_R   0.501200 0.000000 0.147910 -0.201096
N2    N     N_R   0.001200 0.500000 0.147910 -0.201096
N3    N     N_R   0.501270 0.000000 0.852040 -0.200684
N4    N     N_R   0.001270 0.500000 0.852040 -0.200684
O1    O     O_R   0.409820 0.909830 0.618810 -0.567113
O2    O     O_R   0.409820 0.090170 0.618810 -0.562983
O3    O     O_R   0.909820 0.409830 0.618810 -0.567113
O4    O     O_R   0.909820 0.590170 0.618810 -0.562983
O5    O     O_R   0.409840 0.909830 0.381240 -0.542906
O6    O     O_R   0.409840 0.090170 0.381240 -0.547693
O7    O     O_R   0.909840 0.409830 0.381240 -0.542906
O8    O     O_R   0.909840 0.590170 0.381240 -0.547693
O9    O     O_R   0.590170 0.090170 0.618760 -0.597540
O10   O     O_R   0.590170 0.909830 0.618760 -0.605572
O11   O     O_R   0.090170 0.590170 0.618760 -0.597540
O12   O     O_R   0.090170 0.409830 0.618760 -0.605572
O13   O     O_R   0.590190 0.090180 0.381190 -0.607571
O14   O     O_R   0.590190 0.909820 0.381190 -0.613681
O15   O     O_R   0.090190 0.590180 0.381190 -0.607571
O16   O     O_R   0.090190 0.409820 0.381190 -0.613680
Br1   Br    Br    0.383374 0.251530 0.226900 -0.580961
Br2   Br    Br    0.344264 0.791702 0.194654 -0.583816
Br3   Br    Br    0.883374 0.751530 0.226900 -0.580962
Br4   Br    Br    0.844262 0.291703 0.194653 -0.583817
Br5   Br    Br    0.460933 0.254690 0.753813 -0.592039
Br6   Br    Br    0.474031 0.716871 0.699453 -0.615375
Br7   Br    Br    0.960933 0.754690 0.753813 -0.592038
Br8   Br    Br    0.974031 0.216872 0.699453 -0.615376
O17   O     O_3   0.673260 0.767690 0.015912 -0.576129
C65   C     C_3   0.591716 0.727292 0.021409 0.055450
H25   H     H_    0.590075 0.665302 0.960014 0.171229
H26   H     H_    0.542139 0.773742 0.983826 0.189664
C66   C     C_3   0.569319 0.704125 0.170562 -0.698423
H27   H     H_    0.563204 0.764862 0.233233 0.271361
H28   H     H_    0.507354 0.668336 0.175479 0.229663
H29   H     H_    0.620160 0.661621 0.214216 0.245248
O18   O     O_3   0.695793 0.221770 0.012680 -0.569404
C67   C     C_3   0.616763 0.268581 0.017138 0.086878
H30   H     H_    0.563269 0.222055 0.999718 0.200115
H31   H     H_    0.614441 0.322779 0.939441 0.168694
C68   C     C_3   0.602148 0.311222 0.157648 -0.696948
H32   H     H_    0.659571 0.348999 0.187826 0.262175
H33   H     H_    0.586632 0.260635 0.236532 0.261332
H34   H     H_    0.546952 0.357366 0.152786 0.234822
O19   O     O_3   0.173261 0.267689 0.015913 -0.576129
C69   C     C_3   0.091713 0.227296 0.021407 0.055448
H35   H     H_    0.090068 0.165309 0.960005 0.171234
H36   H     H_    0.042140 0.273751 0.983832 0.189663
C70   C     C_3   0.069317 0.204122 0.170558 -0.698420
H37   H     H_    0.063209 0.264856 0.233238 0.271358
H38   H     H_    0.007349 0.168339 0.175473 0.229664
H39   H     H_    0.120155 0.161611 0.214204 0.245246
O20   O     O_3   0.195793 0.721769 0.012680 -0.569404
C71   C     C_3   0.116763 0.768581 0.017138 0.086878
H40   H     H_    0.063269 0.722054 0.999718 0.200115
H41   H     H_    0.114442 0.822778 0.939442 0.168694
C72   C     C_3   0.102149 0.811222 0.157648 -0.696949
H42   H     H_    0.159571 0.848998 0.187827 0.262174
H43   H     H_    0.086633 0.760634 0.236532 0.261332
H44   H     H_    0.046952 0.857365 0.152788 0.234823

loop_
_geom_bond_atom_site_label_1
_geom_bond_atom_site_label_2
_ccdc_geom_bond_type
C58   C62   A    
Cu2   Cu4   S    
C40   C60   A    
C31   O13   A    
C34   O16   A    
C13   C32   S    
C33   O11   A    
Cu4   O7    S    
C14   C31   S    
C1    C62   S    
C46   O18   S    
O20   C71   S    
C53   C59   A    
C54   C60   A    
C3    C64   S    
C20   H24   S    
C4    C63   S    
Cu3   O5    S    
C50   C54   A    
C32   O14   A    
C19   C21   A    
C24   C26   A    
Cu1   O2    S    
C5    C11   A    
C48   C52   A    
C70   H38   S    
C6    C12   A    
C49   C53   A    
C2    O6    A    
C7    Br3   S    
C18   C20   A    
C28   N2    A    
Cu4   O16   S    
Cu2   O4    S    
C9    C13   A    
C6    Br2   S    
C38   C58   A    
C11   C15   A    
Cu3   O13   S    
C12   C16   A    
Cu1   Cu3   S    
C68   H34   S    
C33   O15   A    
Cu2   O11   S    
C40   C44   A    
C71   H41   S    
C2    C61   S    
C5    Br1   S    
C32   O10   A    
C68   H33   S    
C31   O9    A    
Cu1   O9    S    
C26   C28   A    
C44   C46   A    
C46   C50   A    
C13   C53   A    
C26   N4    A    
C5    C61   A    
C18   H22   S    
C23   H3    S    
C17   H21   S    
C10   C14   A    
C70   H39   S    
C1    O1    A    
C39   C43   A    
Cu3   N1    S    
C45   O17   S    
C44   H10   S    
Cu4   N2    S    
C49   H11   S    
C21   H1    S    
Cu4   O15   S    
C17   C27   A    
Cu2   O3    S    
C67   H31   S    
C30   C36   A    
C16   C56   A    
C16   C33   S    
C41   H7    S    
C71   C72   S    
C36   N4    A    
Cu3   O14   S    
C45   C49   A    
Cu2   O12   S    
C39   C59   A    
C48   O20   S    
C47   O19   S    
C41   C47   A    
C18   C28   A    
C55   C57   A    
C42   C48   A    
C52   H14   S    
C43   C45   A    
C7    C63   A    
O17   C65   S    
C36   H6    S    
C8    C64   A    
C72   H44   S    
C14   C54   A    
C9    H15   S    
C25   N3    A    
C21   C23   A    
C66   H27   S    
C22   C24   A    
C27   N1    A    
C67   C68   S    
C43   H9    S    
C30   H20   S    
C1    O5    A    
Cu1   O10   S    
C24   H4    S    
Cu2   N4    S    
C71   H40   S    
C3    O7    A    
C7    C9    A    
C51   H13   S    
C35   H5    S    
C15   C34   S    
C40   Br8   S    
C59   C63   A    
Cu4   O8    S    
C20   C22   A    
C69   C70   S    
C50   H12   S    
C47   C51   A    
C57   C61   A    
C69   H36   S    
C35   N3    A    
C25   C27   A    
O19   C69   S    
C29   C35   A    
C42   H8    S    
C4    O4    A    
C12   H18   S    
C60   C64   A    
C34   O12   A    
C6    C62   A    
C65   C66   S    
C72   H43   S    
C67   H30   S    
O18   C67   S    
Cu1   O1    S    
C30   N2    A    
C70   H37   S    
C29   N1    A    
C68   H32   S    
C11   H17   S    
C66   H29   S    
C39   Br7   S    
C4    O8    A    
C10   H16   S    
C17   C19   A    
C56   C58   A    
C51   C55   A    
C23   C25   A    
C37   C41   A    
C29   H19   S    
C19   H23   S    
C69   H35   S    
C8    Br4   S    
C38   Br6   S    
C38   C42   A    
C3    O3    A    
Cu1   N3    S    
C37   Br5   S    
C2    O2    A    
C8    C10   A    
C66   H28   S    
C65   H25   S    
C72   H42   S    
C65   H26   S    
C22   H2    S    
C37   C57   A    
C52   C56   A    
Cu3   O6    S    
C15   C55   A    
