data_mof_unit_50113.cif
_audit_creation_date              2012-12-11T20:26:09-0500
_audit_creation_method            fapswitch 2.2
_symmetry_space_group_name_H-M    P1
_symmetry_Int_Tables_number       1
_space_group_crystal_system       triclinic
_cell_length_a                    8.240883
_cell_length_b                    17.337815
_cell_length_c                    18.77467
_cell_angle_alpha                 102.706561
_cell_angle_beta                  91.584848
_cell_angle_gamma                 98.233297
_cell_volume                      2584.97090701

loop_
_atom_site_label
_atom_site_type_symbol
_atom_type_description
_atom_site_fract_x
_atom_site_fract_y
_atom_site_fract_z
_atom_type_partial_charge
Ba1   Ba    Ba6+2 0.853800 0.535410 0.467450 1.697854
Ba2   Ba    Ba6+2 0.336030 0.464660 0.532560 1.698333
C1    C     C_3   0.710164 0.820257 0.311020 -0.174185
C2    C     C_3   0.616619 0.735885 0.278139 0.619825
C3    C     C_3   0.455788 0.340909 0.308840 0.319377
C4    C     C_3   0.412432 0.316420 0.225837 0.218419
C5    C     C_3   0.049116 0.313581 0.726995 0.343586
C6    C     C_3   0.062667 0.296567 0.802840 -0.337470
C7    C     C_3   0.514884 0.262701 0.682373 0.329545
C8    C     C_3   0.456653 0.182353 0.700315 -0.287783
C9    C     C_R   0.988436 0.468469 0.048378 0.000792
C10   C     C_R   0.896319 0.425775 0.093495 -0.093037
C11   C     C_R   0.762891 0.440913 0.951356 -0.102764
C12   C     C_3   0.120353 0.701891 0.277582 0.328423
C13   C     C_R   0.927370 0.471077 0.977118 0.020884
C14   C     C_R   0.707267 0.439368 0.880419 -0.078012
C15   C     C_R   0.812362 0.468287 0.831591 -0.021938
C16   C     C_R   0.974427 0.505035 0.857327 0.007152
C17   C     C_R   0.032035 0.506740 0.930479 0.032867
C18   C     C_R   0.760305 0.461352 0.757747 -0.006457
C19   C     C_R   0.869932 0.489416 0.710292 -0.308698
C20   C     C_R   0.025952 0.531531 0.735380 0.026295
C21   C     C_R   0.078503 0.540384 0.810154 -0.045751
C22   C     C_R   0.149956 0.506034 0.074345 0.030179
C23   C     C_3   0.083250 0.721363 0.203565 -0.187016
C24   C     C_R   0.207560 0.507979 0.147624 -0.011812
C25   C     C_R   0.104637 0.471770 0.194578 -0.057284
C26   C     C_R   0.954525 0.426205 0.163874 0.004879
C27   C     C_R   0.231058 0.583812 0.839650 -0.015167
C28   C     C_R   0.288337 0.584396 0.910278 -0.087028
C29   C     C_R   0.194246 0.543431 0.956101 0.007188
C30   C     C_R   0.255284 0.540652 0.027324 0.020555
C31   C     C_R   0.421032 0.568322 0.052256 -0.076127
C32   C     C_R   0.370530 0.543039 0.172690 -0.021046
C33   C     C_R   0.477170 0.568667 0.122799 -0.029953
C34   C     C_3   0.240395 0.710085 0.630207 0.278835
C35   C     C_R   0.423781 0.549240 0.246244 -0.038951
C36   C     C_R   0.315083 0.520313 0.294035 -0.314299
C37   C     C_R   0.157511 0.479608 0.269490 0.081925
C38   C     C_2   0.445784 0.718021 0.475851 -0.278277
C39   C     C_3   0.363392 0.769298 0.434470 -0.022038
C40   C     C_2   0.407033 0.857153 0.467502 -0.070302
C41   C     C_2   0.540766 0.884765 0.513951 -0.047456
C42   C     C_2   0.634272 0.827006 0.538606 -0.084462
C43   C     C_1   0.575601 0.749799 0.521950 0.064328
C44   C     C_R   0.808584 0.138532 0.535215 -0.027192
C45   C     C_3   0.268978 0.800964 0.650728 -0.314195
C46   C     C_R   0.855446 0.220497 0.550195 0.062197
C47   C     C_R   0.611437 0.234364 0.480721 -0.045800
C48   C     C_R   0.556225 0.151053 0.470572 -0.110396
C49   C     C_R   0.652890 0.104273 0.502769 -0.032077
C50   C     C_2   0.595689 0.971836 0.540234 -0.019589
C51   C     C_2   0.608942 0.016764 0.489274 -0.094597
C52   C     C_R   0.748691 0.268717 0.529156 -0.235645
C53   C     C_3   0.973961 0.252651 0.306915 0.047161
C54   C     C_3   0.067564 0.186241 0.265508 0.199336
C55   C     C_3   0.739089 0.656430 0.695437 0.268819
C56   C     C_3   0.808522 0.693855 0.773933 -0.211302
H1    H     H_    0.523185 0.722805 0.316824 -0.031605
H2    H     H_    0.372485 0.822778 0.692793 0.186027
H3    H     H_    0.298458 0.824884 0.601838 0.081867
H4    H     H_    0.156342 0.823220 0.672671 0.131879
H5    H     H_    0.061443 0.185278 0.205930 0.067469
H6    H     H_    0.198978 0.200371 0.285224 0.116713
H7    H     H_    0.836448 0.628243 0.664889 -0.004971
H8    H     H_    0.631618 0.609956 0.695819 0.034414
H9    H     H_    0.732464 0.827592 0.370959 0.018851
H10   H     H_    0.844155 0.646470 0.799522 0.010780
H11   H     H_    0.920736 0.737521 0.772968 0.087480
H12   H     H_    0.347661 0.361976 0.336220 -0.043587
H13   H     H_    0.559319 0.391393 0.320803 0.062900
H14   H     H_    0.390729 0.250254 0.207016 0.140636
H15   H     H_    0.296807 0.337593 0.212259 -0.017954
H16   H     H_    0.831431 0.827087 0.287152 0.150893
H17   H     H_    0.127912 0.676048 0.160071 0.036131
H18   H     H_    0.124353 0.372378 0.727980 0.070291
H19   H     H_    0.918218 0.315897 0.713373 -0.076227
H20   H     H_    0.193367 0.297310 0.819462 0.143552
H21   H     H_    0.012420 0.342514 0.843205 0.070167
H22   H     H_    0.991869 0.237000 0.802752 0.126659
H23   H     H_    0.648737 0.267860 0.674933 -0.050265
H24   H     H_    0.448731 0.264307 0.630616 0.087765
H25   H     H_    0.459818 0.133905 0.651024 0.103230
H26   H     H_    0.328689 0.179117 0.717516 0.161167
H27   H     H_    0.059974 0.639734 0.275216 0.053954
H28   H     H_    0.536956 0.173633 0.745434 0.111835
H29   H     H_    0.829650 0.482117 0.653539 0.073542
H30   H     H_    0.580174 0.414767 0.864661 0.115179
H31   H     H_    0.877548 0.390551 0.193668 0.181488
H32   H     H_    0.309846 0.617416 0.808513 0.116263
H33   H     H_    0.605903 0.590247 0.137651 0.098217
H34   H     H_    0.358289 0.524073 0.349795 0.070790
H35   H     H_    0.672218 0.418948 0.985302 0.076046
H36   H     H_    0.779200 0.389259 0.075280 0.108161
H37   H     H_    0.406853 0.619090 0.928195 0.114302
H38   H     H_    0.254952 0.704275 0.284700 -0.031821
H39   H     H_    0.512568 0.588535 0.017806 0.081642
H40   H     H_    0.580163 0.987259 0.432355 0.108037
H41   H     H_    0.748483 0.849313 0.571826 0.094118
H42   H     H_    0.894446 0.101150 0.548444 0.125190
H43   H     H_    0.335545 0.898255 0.449745 0.140725
H44   H     H_    0.411830 0.653603 0.458862 0.074343
H45   H     H_    0.783123 0.333080 0.543387 0.098900
H46   H     H_    0.949344 0.716589 0.192031 0.073903
H47   H     H_    0.355855 0.688493 0.612793 0.005194
H48   H     H_    0.145550 0.690419 0.584256 0.080023
O1    O     O_2   0.871520 0.445720 0.321500 -0.473969
O2    O     O_3   0.691721 0.716489 0.664028 -0.606810
O3    O     O_3   0.060845 0.755069 0.335525 -0.555719
O4    O     O_2   0.318180 0.554310 0.678550 -0.465178
O5    O     O_3   0.068680 0.548140 0.588860 -0.488349
O6    O     O_3   0.527520 0.406960 0.624950 -0.491706
O7    O     O_3   0.189649 0.681815 0.691523 -0.633968
O8    O     O_3   0.608500 0.402060 0.457050 -0.503007
O9    O     O_3   0.104610 0.363860 0.586060 -0.450360
O10   O     O_2   0.195242 0.222411 0.542652 -0.430603
O11   O     O_3   0.108037 0.252760 0.676899 -0.607343
O12   O     O_3   0.121030 0.451930 0.411150 -0.449716
O13   O     O_3   0.581210 0.598010 0.542960 -0.494786
O14   O     O_2   0.335820 0.303580 0.452320 -0.405571
O15   O     O_3   0.497661 0.275232 0.334490 -0.590875
O16   O     O_2   0.425641 0.469583 0.754758 -0.487586
O17   O     O_3   0.480405 0.323915 0.739718 -0.606209
O18   O     O_3   0.662190 0.593100 0.375060 -0.467650
O19   O     O_2   0.754057 0.530575 0.245698 -0.493363
O20   O     O_3   0.041689 0.322196 0.283609 -0.705932
O21   O     O_3   0.729520 0.681154 0.268869 -0.608385
O22   O     O_2   0.853880 0.696450 0.547730 -0.469500
O23   O     O_3   0.085100 0.636210 0.413950 -0.492500
O24   O     O_2   0.038817 0.783057 0.478422 -0.478287
P1    P     P_3+3 0.038810 0.422920 0.331160 0.989999
P2    P     P_3+3 0.678260 0.686080 0.568600 1.002178
P3    P     P_3+3 0.136621 0.737721 0.417917 0.983384
P4    P     P_3+3 0.150900 0.577150 0.668860 0.978458
P5    P     P_3+3 0.065225 0.263622 0.588304 1.048836
P6    P     P_3+3 0.638810 0.588183 0.282136 0.953320
P7    P     P_3+3 0.517758 0.300814 0.430310 1.003795
P8    P     P_3+3 0.549956 0.416401 0.719358 0.933265
C57   C     C_2   0.796307 0.227717 0.279452 0.884077
O25   O     O_2   0.742842 0.256939 0.232057 -0.517883
O26   O     O_R   0.695756 0.165531 0.300838 -0.666075
H49   H     H_    0.748939 0.143935 0.340007 0.292580
C58   C     C_2   0.996912 0.259997 0.388264 0.763604
O27   O     O_2   0.051759 0.207830 0.411309 -0.533967
O28   O     O_R   0.951208 0.323470 0.438161 -0.727472
H50   H     H_    0.862362 0.347675 0.417007 0.239813
O29   O     O_3   0.003135 0.110116 0.275426 -0.673419
H51   H     H_    0.072486 0.072549 0.248446 0.339241
C59   C     C_2   0.687371 0.735550 0.820397 0.906743
O30   O     O_2   0.634976 0.792419 0.804299 -0.560665
O31   O     O_R   0.639522 0.710744 0.883562 -0.776370
H52   H     H_    0.561186 0.744664 0.911406 0.314957
O32   O     O_3   0.536909 0.733147 0.210357 -0.731415
H53   H     H_    0.623686 0.743355 0.176444 0.311293
C60   C     C_2   0.619297 0.885378 0.297458 0.883618
O33   O     O_2   0.687636 0.937514 0.269273 -0.531163
O34   O     O_R   0.457452 0.886288 0.317101 -0.767700
H54   H     H_    0.413240 0.935403 0.308775 0.330930
O35   O     O_3   0.539570 0.346964 0.186955 -0.691251
H55   H     H_    0.524790 0.402630 0.186751 0.286430
C61   C     C_2   0.624222 0.003210 0.621040 0.863060
O36   O     O_2   0.550442 0.966464 0.661960 -0.604030
O37   O     O_R   0.736542 0.071661 0.651203 -0.788709
H56   H     H_    0.746687 0.083903 0.706626 0.315984
C62   C     C_2   0.400101 0.112570 0.427872 0.931982
O38   O     O_2   0.369577 0.125812 0.368060 -0.560606
O39   O     O_R   0.288840 0.059621 0.455781 -0.755254
H57   H     H_    0.187552 0.036740 0.421666 0.333858
C63   C     C_2   0.163581 0.803477 0.199366 0.961816
O40   O     O_2   0.271919 0.811123 0.157139 -0.554366
O41   O     O_R   0.110236 0.870910 0.241819 -0.729668
H58   H     H_    0.167594 0.922705 0.231497 0.319229

loop_
_geom_bond_atom_site_label_1
_geom_bond_atom_site_label_2
_ccdc_geom_bond_type
C12   O3    S    
C53   C54   S    
C19   H29   S    
C39   C40   S    
O34   H54   S    
C47   P7    S    
C60   O34   S    
C32   C35   A    
C57   O26   S    
C63   O40   D    
C8    H25   S    
C46   P5    S    
O37   H56   S    
Ba1   O22   S    
C55   H8    S    
O41   H58   S    
Ba1   P2    S    
C17   C29   A    
C45   H4    S    
C39   P3    S    
O28   H50   S    
Ba2   O12   S    
C5    C6    S    
O10   P5    D    
C42   C43   D    
C13   C17   A    
O17   P8    S    
Ba2   O6    S    
C24   C25   A    
Ba2   P4    S    
O9    P5    S    
C10   C26   A    
C21   C27   A    
C35   C36   A    
C22   C24   A    
Ba1   Ba2   S    
Ba1   O23   S    
C59   O31   S    
C3    C4    S    
C42   H41   S    
C41   C50   S    
C18   P8    S    
C47   C52   A    
C3    O15   S    
C9    C22   A    
C15   C18   A    
C53   C57   S    
C34   C45   S    
C15   C16   A    
C32   C33   A    
Ba1   O13   S    
O8    P7    S    
O15   P7    S    
C1    H16   S    
C5    O11   S    
O12   P1    S    
C7    O17   S    
C45   H2    S    
C9    C13   A    
C24   C32   A    
C8    H28   S    
O29   H51   S    
C25   C37   A    
C14   C15   A    
C6    H21   S    
O31   H52   S    
C54   H6    S    
C26   H31   S    
C27   C28   A    
C7    C8    S    
C56   C59   S    
C50   C61   S    
C5    H19   S    
C2    O32   S    
C62   O39   S    
C19   C20   A    
C6    H20   S    
C63   O41   S    
C10   H36   S    
C34   O7    S    
O22   P2    D    
C12   H38   S    
C27   H32   S    
C61   O37   S    
C4    O35   S    
C38   C43   D    
C57   O25   D    
C44   C46   A    
Ba2   O5    S    
C54   H5    S    
C53   C58   S    
O18   P6    S    
C34   H48   S    
C16   C21   A    
O6    P8    S    
C52   H45   S    
O21   P6    S    
O16   P8    D    
O1    P1    D    
O39   H57   S    
C56   H11   S    
Ba2   O14   S    
C16   C17   A    
O3    P3    S    
C44   C49   A    
C11   H35   S    
C23   H17   S    
C46   C52   A    
C4    H14   S    
C41   C42   S    
C22   C30   A    
C28   H37   S    
Ba2   O9    S    
O35   H55   S    
C53   O20   S    
C28   C29   A    
Ba2   O13   S    
C48   C62   S    
C1    C60   S    
C48   C49   A    
C35   P6    S    
O5    P4    S    
Ba1   O1    S    
O23   P3    S    
O19   P6    D    
C56   H10   S    
C38   C39   S    
C20   P4    S    
O7    P4    S    
C11   C13   A    
O4    P4    D    
O24   P3    D    
Ba1   O8    S    
C1    C2    S    
O11   P5    S    
C40   H43   S    
C60   O33   D    
C50   C51   D    
C4    H15   S    
C14   H30   S    
C23   C63   S    
C58   O28   S    
C44   H42   S    
Ba2   O4    S    
C2    O21   S    
C34   H47   S    
C29   C30   A    
C1    H9    S    
C12   H27   S    
C55   H7    S    
Ba1   P1    S    
C3    H12   S    
O13   P2    S    
C45   H3    S    
C9    C10   A    
C23   H46   S    
C5    H18   S    
C51   H40   S    
C7    H24   S    
C30   C31   A    
C54   O29   S    
Ba1   O18   S    
C3    H13   S    
C61   O36   D    
O26   H49   S    
Ba1   O5    S    
Ba2   O8    S    
C55   C56   S    
C36   C37   A    
C37   P1    S    
O20   P1    S    
C2    H1    S    
C8    H26   S    
C31   C33   A    
C31   H39   S    
Ba1   O12   S    
C12   C23   S    
O2    P2    S    
C38   H44   S    
C62   O38   D    
C55   O2    S    
C18   C19   A    
C43   P2    S    
C47   C48   A    
C40   C41   D    
C11   C14   A    
C25   C26   A    
C6    H22   S    
C20   C21   A    
O14   P7    D    
C49   C51   S    
O32   H53   S    
C59   O30   D    
C58   O27   D    
C36   H34   S    
C7    H23   S    
C33   H33   S    
