data_mof_unit_33499.cif
_audit_creation_date              2012-12-10T16:38:40-0500
_audit_creation_method            fapswitch 2.2
_symmetry_space_group_name_H-M    P1
_symmetry_Int_Tables_number       1
_space_group_crystal_system       triclinic
_cell_length_a                    10.873985
_cell_length_b                    10.826867
_cell_length_c                    17.719783
_cell_angle_alpha                 98.107274
_cell_angle_beta                  73.256133
_cell_angle_gamma                 98.315714
_cell_volume                      1965.82019944

loop_
_atom_site_label
_atom_site_type_symbol
_atom_type_description
_atom_site_fract_x
_atom_site_fract_y
_atom_site_fract_z
_atom_type_partial_charge
C1    C     C_R   0.158190 0.480815 0.516971 0.489291
C2    C     C_R   0.562527 0.345215 0.919257 0.242123
C3    C     C_R   0.634971 0.297977 0.959826 -0.094512
C4    C     C_R   0.842995 0.519964 0.482799 0.523651
C5    C     C_R   0.619498 0.332645 0.040810 -0.042939
C6    C     C_R   0.523704 0.412173 0.083032 -0.030218
C7    C     C_R   0.698578 0.288867 0.079914 0.260663
C8    C     C_R   0.676791 0.321099 0.162119 -0.169792
C9    C     C_R   0.521643 0.460581 0.161918 0.277498
C10   C     C_2   0.980075 0.521235 0.475351 -0.081705
C11   C     C_2   0.020305 0.471523 0.528427 0.277805
C12   C     C_R   0.276549 0.624021 0.843853 0.251116
C13   C     C_2   0.541966 0.966359 0.476076 -0.121385
C14   C     C_2   0.454932 0.036408 0.524950 -0.109130
C15   C     C_R   0.467526 0.168320 0.518180 0.484113
C16   C     C_R   0.530436 0.833004 0.482710 0.503639
C17   C     C_R   0.564446 0.435676 0.287857 0.546354
C18   C     C_R   0.435044 0.562245 0.713033 0.509024
C19   C     C_R   0.390448 0.570940 0.800694 -0.038235
C20   C     C_R   0.590360 0.407353 0.202228 -0.010515
C21   C     C_R   0.223050 0.607415 0.924638 0.268217
C22   C     C_3   0.141510 0.690134 0.134484 -0.065275
C23   C     C_R   0.456440 0.513604 0.840603 -0.160012
C24   C     C_3   0.906285 0.235571 0.056898 -0.137048
C25   C     C_3   0.982082 0.349442 0.633339 -0.092422
C26   C     C_3   0.538115 0.673462 0.175777 -0.009390
C27   C     C_3   0.477066 0.787181 0.224701 -0.354860
C28   C     C_3   0.004129 0.571747 0.949167 0.041886
C29   C     C_3   0.877808 0.611638 0.004789 -0.365134
C30   C     C_3   0.252700 0.815957 0.816678 -0.085235
C31   C     C_3   0.201943 0.330367 0.162675 -0.092815
C32   C     C_3   0.480079 0.197734 0.836934 -0.021402
C33   C     C_3   0.487087 0.154031 0.750516 -0.349125
C34   C     C_R   0.405738 0.495308 0.921212 -0.085576
C35   C     C_R   0.290008 0.547708 0.964771 -0.047700
C36   C     C_R   0.470772 0.430400 0.960120 -0.032047
C37   C     C_R   0.437615 0.445294 0.043910 -0.051318
C38   C     C_R   0.314120 0.482316 0.085543 0.299186
C39   C     C_R   0.243324 0.537659 0.047075 0.272983
H1    H     H_    0.049567 0.561230 0.424851 0.064777
H2    H     H_    0.903509 0.190102 0.109842 0.116513
H3    H     H_    0.933960 0.338611 0.066222 0.138161
H4    H     H_    0.983192 0.197012 0.006795 0.129297
H5    H     H_    0.057817 0.399487 0.660799 0.126328
H6    H     H_    0.019670 0.269615 0.589924 0.109752
H7    H     H_    0.902345 0.309710 0.681351 0.153425
H8    H     H_    0.549663 0.681524 0.112081 0.121461
H9    H     H_    0.635299 0.674931 0.185427 0.128569
H10   H     H_    0.465029 0.781880 0.288629 0.166495
H11   H     H_    0.540024 0.874332 0.206670 0.102279
H12   H     H_    0.621975 0.007879 0.431055 0.101964
H13   H     H_    0.381173 0.790725 0.215195 0.143491
H14   H     H_    0.011756 0.473858 0.958720 0.126606
H15   H     H_    0.000509 0.573108 0.887205 0.169901
H16   H     H_    0.868764 0.710339 0.998601 0.157326
H17   H     H_    0.795111 0.550514 0.989945 0.098823
H18   H     H_    0.874555 0.603472 0.067136 0.169843
H19   H     H_    0.224561 0.853849 0.880256 0.130809
H20   H     H_    0.358874 0.836306 0.790991 0.104601
H21   H     H_    0.204305 0.866005 0.784776 0.137343
H22   H     H_    0.278051 0.265456 0.139741 0.104087
H23   H     H_    0.374146 0.997401 0.570436 0.115114
H24   H     H_    0.129836 0.310480 0.127713 0.096303
H25   H     H_    0.150836 0.311667 0.224531 0.145371
H26   H     H_    0.381529 0.226054 0.866500 0.126734
H27   H     H_    0.495295 0.117612 0.865133 0.125231
H28   H     H_    0.583871 0.124110 0.718977 0.169458
H29   H     H_    0.412457 0.073578 0.746604 0.070225
H30   H     H_    0.469517 0.231696 0.721507 0.191108
H31   H     H_    0.727465 0.279912 0.195026 0.108332
H32   H     H_    0.704382 0.234059 0.926750 0.178932
H33   H     H_    0.550567 0.487278 0.807770 0.219285
H34   H     H_    0.203772 0.761804 0.096723 0.113449
H35   H     H_    0.182279 0.679857 0.183703 0.156785
H36   H     H_    0.045895 0.725287 0.161299 0.132700
O1    O     O_3   0.500000 0.500000 0.500000 -0.447733
O2    O     O_R   0.470800 0.371790 0.332500 -0.524946
O3    O     O_R   0.380610 0.619380 0.674980 -0.496082
O4    O     O_R   0.632640 0.524780 0.317540 -0.543314
O5    O     O_R   0.515950 0.484050 0.674980 -0.548246
O6    O     O_3   0.123607 0.573656 0.089828 -0.535337
O7    O     O_3   0.787273 0.206078 0.037686 -0.575657
O8    O     O_3   0.932624 0.433135 0.598137 -0.536558
O9    O     O_3   0.457500 0.563321 0.199628 -0.507373
O10   O     O_3   0.108122 0.656010 0.964840 -0.525503
O11   O     O_3   0.212127 0.686401 0.806587 -0.538791
O12   O     O_R   0.535460 0.243030 0.556410 -0.545396
O13   O     O_3   0.255925 0.456888 0.163020 -0.500993
O14   O     O_3   0.576774 0.298844 0.840773 -0.571134
O15   O     O_R   0.437420 0.784080 0.535340 -0.543406
O16   O     O_R   0.223560 0.397520 0.472140 -0.556816
O17   O     O_R   0.803560 0.575360 0.436110 -0.553476
O18   O     O_R   0.209690 0.568800 0.556400 -0.533641
O19   O     O_R   0.763190 0.458310 0.535350 -0.469857
O20   O     O_R   0.414000 0.207090 0.472140 -0.540007
O21   O     O_R   0.613120 0.765800 0.436110 -0.538594
Zn1   Zn    Zn3+2 0.577310 0.422690 0.565550 0.953394
Zn2   Zn    Zn3+2 0.403760 0.371330 0.445150 0.937432
Zn3   Zn    Zn3+2 0.634990 0.589920 0.423760 0.938049
Zn4   Zn    Zn3+2 0.383940 0.616050 0.565540 0.953349

loop_
_geom_bond_atom_site_label_1
_geom_bond_atom_site_label_2
_ccdc_geom_bond_type
C16   O15   A    
O5    Zn1   S    
C24   H3    S    
C31   H22   S    
C3    H32   S    
C1    C11   S    
C6    C9    A    
O20   Zn2   S    
C7    C8    A    
O1    Zn3   S    
C26   C27   S    
C8    C20   A    
O4    Zn3   S    
C36   C37   A    
C18   C19   S    
C15   O20   A    
C38   C39   A    
O1    Zn2   S    
C14   H23   S    
O21   Zn3   S    
C17   O4    A    
C17   C20   S    
C10   H1    S    
C34   C35   A    
C24   O7    S    
C13   H12   S    
C30   H21   S    
C30   O11   S    
C27   H11   S    
C26   H9    S    
C1    O16   A    
C13   C14   D    
C24   H2    S    
C22   H36   S    
C31   H25   S    
C25   H5    S    
O15   Zn4   S    
C21   O10   S    
C16   O21   A    
C22   O6    S    
C31   H24   S    
C39   O6    S    
C5    C7    A    
C28   H15   S    
C29   H16   S    
O19   Zn1   S    
C11   O8    S    
O1    Zn1   S    
C12   C21   A    
C38   O13   S    
C2    O14   S    
C19   C23   A    
C37   C38   A    
C9    C20   A    
C32   O14   S    
C18   O3    A    
C23   C34   A    
C30   H20   S    
C17   O2    A    
C6    C37   A    
O2    Zn2   S    
O18   Zn4   S    
C26   H8    S    
C4    O19   A    
C18   O5    A    
C29   H18   S    
O3    Zn4   S    
C13   C16   S    
C22   H35   S    
C4    C10   S    
C25   H6    S    
C27   H13   S    
C33   H28   S    
C32   H27   S    
C2    C36   A    
C28   C29   S    
C26   O9    S    
C31   O13   S    
C23   H33   S    
C3    C5    A    
C28   H14   S    
C21   C35   A    
C29   H17   S    
C33   H30   S    
O1    Zn4   S    
C8    H31   S    
C12   O11   S    
C32   C33   S    
C2    C3    A    
C5    C6    A    
C35   C39   A    
C30   H19   S    
C12   C19   A    
C34   C36   A    
O16   Zn2   S    
C10   C11   D    
C9    O9    S    
C7    O7    S    
O17   Zn3   S    
C1    O18   A    
C15   O12   A    
C28   O10   S    
C25   O8    S    
C24   H4    S    
C14   C15   S    
C22   H34   S    
C4    O17   A    
C25   H7    S    
C27   H10   S    
C33   H29   S    
C32   H26   S    
O12   Zn1   S    
