data_mof_unit_15027.cif
_audit_creation_date              2012-10-26T19:52:29-0400
_audit_creation_method            fapswitch 2.2
_symmetry_space_group_name_H-M    P1
_symmetry_Int_Tables_number       1
_space_group_crystal_system       triclinic
_cell_length_a                    9.594392
_cell_length_b                    10.814844
_cell_length_c                    13.329396
_cell_angle_alpha                 89.980507
_cell_angle_beta                  72.315291
_cell_angle_gamma                 90.136169
_cell_volume                      1317.7173687

loop_
_atom_site_label
_atom_site_type_symbol
_atom_type_description
_atom_site_fract_x
_atom_site_fract_y
_atom_site_fract_z
_atom_type_partial_charge
C1    C     C_R   0.499660 0.737499 0.501120 0.584522
C2    C     C_R   0.374217 0.522420 0.815420 -0.002246
C3    C     C_R   0.371013 0.936076 0.509802 0.050730
C4    C     C_R   0.421178 0.504827 0.700340 0.634695
C5    C     C_R   0.496408 0.870728 0.509571 0.034356
C6    C     C_R   0.616944 0.935922 0.522027 -0.097511
C7    C     C_R   0.617184 0.064646 0.521279 -0.074540
C8    C     C_R   0.496763 0.129169 0.508255 0.067337
C9    C     C_R   0.371199 0.063351 0.509171 0.046232
C10   C     C_3   0.282080 0.069317 0.434846 -0.265323
C11   C     C_3   0.281711 0.928901 0.435599 -0.240617
C12   C     C_R   0.440545 0.509899 0.978516 -0.017701
C13   C     C_R   0.954646 0.423865 0.433771 0.132652
C14   C     C_R   0.898736 0.571773 0.568282 0.338313
C15   C     C_R   0.046781 0.571350 0.567756 0.052748
C16   C     C_R   0.499829 0.262474 0.500219 0.607884
C17   C     C_R   0.100807 0.421228 0.435993 0.097737
C18   C     C_3   0.161158 0.415855 0.319239 -0.233030
C19   C     C_3   0.005805 0.426028 0.315431 0.091762
C20   C     C_R   0.578045 0.492684 0.300332 0.623483
C21   C     C_R   0.680898 0.289645 0.062582 -0.075964
C22   C     C_R   0.618234 0.456064 0.189617 0.064644
C23   C     C_R   0.446063 0.458971 0.879050 -0.001630
C24   C     C_R   0.276032 0.619536 0.859534 0.232536
C25   C     C_R   0.248827 0.650849 0.965435 0.298613
C26   C     C_R   0.330394 0.596869 0.023779 -0.065857
C27   C     C_R   0.534723 0.463073 0.033973 0.035247
C28   C     C_R   0.607079 0.349369 0.000811 -0.055316
C29   C     C_R   0.597466 0.291488 0.909867 -0.054226
C30   C     C_R   0.518458 0.344274 0.849203 0.249815
C31   C     C_R   0.558121 0.522748 0.122463 0.179109
C32   C     C_R   0.678096 0.338112 0.159659 0.189229
Cl1   Cl    Cl    0.733838 0.240670 0.245897 -0.625820
Cl2   Cl    Cl    0.780893 0.674294 0.656183 -0.537009
Cl3   Cl    Cl    0.978047 0.571218 0.259694 -0.498928
Cl4   Cl    Cl    0.535545 0.684274 0.144642 -0.533410
Cl5   Cl    Cl    0.192657 0.708865 0.782651 -0.492674
Cl6   Cl    Cl    0.118289 0.763568 0.026242 -0.361148
Cl7   Cl    Cl    0.488678 0.247495 0.751448 -0.593281
Cu1   Cu    Cu3+1 0.359330 0.500020 0.500010 1.030628
Cu2   Cu    Cu3+1 0.640670 0.499980 0.499990 1.147295
H1    H     H_    0.713681 0.112970 0.526631 0.164733
H2    H     H_    0.971802 0.343880 0.279255 0.192551
H3    H     H_    0.729946 0.199699 0.039639 0.188133
H4    H     H_    0.301631 0.620195 0.106198 0.208559
H5    H     H_    0.713452 0.888216 0.527483 0.187791
H6    H     H_    0.172176 0.109911 0.472224 0.156975
H7    H     H_    0.343485 0.109846 0.357229 0.164351
H8    H     H_    0.171602 0.888439 0.473525 0.174401
H9    H     H_    0.342743 0.887606 0.358364 0.193812
H10   H     H_    0.080946 0.631693 0.620373 0.199831
H11   H     H_    0.229927 0.496936 0.284272 0.203014
H12   H     H_    0.212166 0.324822 0.291825 0.104311
H13   H     H_    0.648153 0.201998 0.887385 0.172476
N1    N     N_R   0.852320 0.499070 0.499340 -0.210029
N2    N     N_R   0.148230 0.499110 0.499340 -0.266122
O1    O     O_R   0.381190 0.680360 0.500000 -0.499405
O2    O     O_R   0.618780 0.680320 0.499990 -0.459247
O3    O     O_R   0.323230 0.500000 0.650990 -0.467104
O4    O     O_R   0.560820 0.499960 0.650980 -0.438339
O5    O     O_R   0.381220 0.319680 0.500010 -0.506838
O6    O     O_R   0.618810 0.319640 0.500000 -0.482791
O7    O     O_R   0.439180 0.500040 0.349020 -0.526966
O8    O     O_R   0.676770 0.500000 0.349010 -0.417432

loop_
_geom_bond_atom_site_label_1
_geom_bond_atom_site_label_2
_ccdc_geom_bond_type
C20   O8    A    
C2    C4    S    
C26   H4    S    
C14   Cl2   S    
C29   C30   A    
C11   H8    S    
C15   H10   S    
C25   Cl6   S    
C21   H3    S    
C9    C10   S    
C12   C23   A    
C13   C17   A    
C29   H13   S    
C15   N2    A    
C4    O4    A    
C20   O7    A    
C14   N1    A    
C18   H11   S    
C7    C8    A    
C8    C16   S    
C11   H9    S    
C19   Cl3   S    
C1    O2    A    
C32   Cl1   S    
C2    C24   A    
C17   N2    A    
C6    C7    A    
Cu1   O7    S    
C22   C32   A    
Cu2   O6    S    
C3    C9    A    
C4    O3    A    
C28   C29   A    
C21   C28   A    
C19   H2    S    
C30   Cl7   S    
C24   Cl5   S    
C1    O1    A    
C10   C11   S    
C10   H7    S    
C5    C6    A    
C21   C32   A    
C1    C5    S    
C18   H12   S    
C3    C11   S    
C16   O5    A    
C13   C19   S    
C12   C27   A    
C27   C31   A    
C23   C30   A    
C3    C5    A    
Cu2   O2    S    
C10   H6    S    
C24   C25   A    
C2    C23   A    
C17   C18   S    
C18   C19   S    
C22   C31   A    
C7    H1    S    
C12   C26   A    
C27   C28   A    
Cu1   O3    S    
C14   C15   A    
Cu1   Cu2   S    
Cu1   O1    S    
C6    H5    S    
Cu2   O8    S    
C13   N1    A    
C25   C26   A    
C31   Cl4   S    
C16   O6    A    
Cu2   N1    S    
Cu1   O5    S    
Cu2   O4    S    
C20   C22   S    
C8    C9    A    
Cu1   N2    S    
