data_mof_unit_6755.cif
_audit_creation_date              2013-03-05T15:41:03-0500
_audit_creation_method            fapswitch 2.2
_symmetry_space_group_name_H-M    P1
_symmetry_Int_Tables_number       1
_space_group_crystal_system       triclinic
_cell_length_a                    10.925181
_cell_length_b                    11.031919
_cell_length_c                    18.746783
_cell_angle_alpha                 90.113784
_cell_angle_beta                  89.885274
_cell_angle_gamma                 59.991487
_cell_volume                      1956.57442756

loop_
_atom_site_label
_atom_site_type_symbol
_atom_site_description
_atom_site_fract_x
_atom_site_fract_y
_atom_site_fract_z
_atom_type_partial_charge
O1    O     O_R   0.507110 0.256280 0.580300 -0.423602
O2    O     O_R   0.280830 0.527190 0.577940 -0.467817
C1    C     C_R   0.232281 0.646741 0.607297 0.578370
O3    O     O_R   0.261360 0.738990 0.584270 -0.522965
O4    O     O_R   0.532590 0.694780 0.574370 -0.495478
C2    C     C_R   0.626998 0.588210 0.609850 0.538157
O5    O     O_R   0.744470 0.503750 0.577000 -0.515410
O6    O     O_R   0.698520 0.277230 0.571620 -0.542044
C3    C     C_R   0.630179 0.226071 0.601497 0.547312
O7    O     O_R   0.498530 0.256920 0.419280 -0.440818
O8    O     O_R   0.272880 0.527780 0.428680 -0.489540
C4    C     C_R   0.214086 0.652299 0.405554 0.557323
O9    O     O_R   0.252780 0.739630 0.423250 -0.497686
O10   O     O_R   0.524640 0.695370 0.425100 -0.460968
C5    C     C_R   0.644347 0.626224 0.395713 0.594836
O11   O     O_R   0.735890 0.504390 0.415980 -0.492671
O12   O     O_R   0.690560 0.277820 0.422350 -0.487415
C6    C     C_R   0.622190 0.220434 0.398198 0.594654
Cr1   Cr    Cr6+3 0.393010 0.398050 0.501480 1.156137
Cr2   Cr    Cr6+3 0.398820 0.707980 0.501630 1.088453
Cr3   Cr    Cr6+3 0.708140 0.393940 0.496850 1.070021
O13   O     O_3   0.499990 0.499990 0.499980 -0.312110
C7    C     C_3   0.555049 0.799221 0.788330 0.109018
H1    H     H_    0.588751 0.878659 0.788070 0.190814
C8    C     C_3   0.529832 0.772463 0.710056 -0.006517
H2    H     H_    0.547164 0.844243 0.675747 0.227147
H3    H     H_    0.842819 0.707563 0.777174 0.139090
H4    H     H_    0.803527 0.676449 0.660950 0.197791
C9    C     C_3   0.814310 0.624256 0.773040 -0.274383
C10   C     C_3   0.645583 0.541093 0.814728 0.091958
C11   C     C_3   0.681253 0.661514 0.819418 -0.002850
H5    H     H_    0.540828 0.576042 0.839312 0.169242
C12   C     C_3   0.642330 0.618477 0.685980 -0.031343
C13   C     C_3   0.791126 0.601585 0.695629 -0.240155
C14   C     C_3   0.632924 0.509963 0.735361 -0.251065
H6    H     H_    0.534287 0.506296 0.726684 0.073085
H7    H     H_    0.718834 0.404867 0.721499 0.154778
H8    H     H_    0.908022 0.527415 0.792172 0.206679
H9    H     H_    0.875853 0.494477 0.680077 0.193332
C15   C     C_2   0.689377 0.139435 0.665865 0.262602
C16   C     C_2   0.694985 0.155057 0.824320 -0.037474
C17   C     C_2   0.809713 0.105561 0.781642 -0.079633
C18   C     C_2   0.797064 0.136796 0.703758 0.054046
H10   H     H_    0.914463 0.040230 0.803822 0.164509
H11   H     H_    0.590348 0.221224 0.802342 0.154250
C19   C     C_2   0.159506 0.670270 0.676040 0.073997
C20   C     C_2   0.189217 0.663469 0.838757 -0.134254
C21   C     C_2   0.159074 0.583233 0.797142 -0.155362
C22   C     C_2   0.192958 0.561165 0.721268 0.141537
H12   H     H_    0.109680 0.527463 0.819260 0.184262
H13   H     H_    0.246800 0.712453 0.818267 0.150898
C23   C     C_2   0.664803 0.680422 0.329568 -0.071006
C24   C     C_2   0.672772 0.679964 0.172759 -0.021975
C25   C     C_2   0.785692 0.633397 0.216388 -0.129026
C26   C     C_2   0.781199 0.605319 0.291375 -0.141966
H14   H     H_    0.890059 0.602989 0.195447 0.161511
H15   H     H_    0.873512 0.515603 0.313979 0.180417
H16   H     H_    0.567371 0.710172 0.191725 0.150262
H17   H     H_    0.575888 0.774336 0.307782 0.175588
C27   C     C_2   0.670380 0.135504 0.333522 -0.095279
C28   C     C_2   0.636194 0.170082 0.176491 0.154582
C29   C     C_2   0.558859 0.132118 0.219374 0.142400
C30   C     C_2   0.574897 0.115941 0.297646 0.165499
H18   H     H_    0.763980 0.125340 0.307866 0.115510
C31   C     C_2   0.114437 0.685183 0.348448 -0.110544
C32   C     C_2   0.126364 0.683647 0.187993 0.103767
C33   C     C_2   0.043296 0.788806 0.233559 -0.145375
C34   C     C_2   0.082223 0.793275 0.306596 -0.160118
H19   H     H_    0.953427 0.884596 0.213686 0.135964
H20   H     H_    0.104088 0.875747 0.321596 0.190778
H21   H     H_    0.086094 0.607188 0.333253 0.119726
O14   O     O_R   0.089190 0.825870 0.932320 -0.467939
O15   O     O_R   0.819070 0.053960 0.931440 -0.468629
C35   C     C_R   0.705012 0.098355 0.896159 0.581945
O16   O     O_R   0.607070 0.076440 0.916460 -0.483706
O17   O     O_R   0.647110 0.806550 0.917690 -0.478336
C36   C     C_R   0.717330 0.684267 0.891704 0.588287
O18   O     O_R   0.837080 0.593860 0.915300 -0.471686
O19   O     O_R   0.064770 0.636080 0.932550 -0.505476
C37   C     C_R   0.118495 0.706699 0.907593 0.565161
O20   O     O_R   0.068250 0.829200 0.092940 -0.497429
O21   O     O_R   0.799650 0.057040 0.080330 -0.470887
C38   C     C_R   0.673508 0.107639 0.104914 0.564989
O22   O     O_R   0.586130 0.079760 0.077080 -0.468171
O23   O     O_R   0.627700 0.809630 0.066580 -0.463409
C39   C     C_R   0.698052 0.691740 0.097971 0.574937
O24   O     O_R   0.816140 0.597180 0.075920 -0.481585
O25   O     O_R   0.045360 0.639170 0.081440 -0.495058
C40   C     C_R   0.090581 0.711027 0.113946 0.603764
Cr4   Cr    Cr6+3 0.937950 0.938450 0.008940 1.142670
Cr5   Cr    Cr6+3 0.626180 0.937030 0.994750 1.161979
Cr6   Cr    Cr6+3 0.937790 0.625760 0.001410 1.115391
O26   O     O_3   0.833980 0.833750 0.001700 -0.331569
N1    N     N_3   0.910570 0.143400 0.667816 -0.569385
H22   H     H_    0.996304 0.110468 0.702402 0.273009
H23   H     H_    0.879500 0.246710 0.655240 0.250983
N2    N     N_R   0.634967 0.050743 0.687480 0.048174
O27   O     O_R   0.725033 0.924210 0.706990 -0.468167
O28   O     O_R   0.507471 0.080363 0.670930 -0.261688
N3    N     N_R   0.251496 0.419379 0.696865 0.099541
O29   O     O_R   0.340095 0.319285 0.738064 -0.294070
O30   O     O_R   0.183823 0.390165 0.649008 -0.297209
N4    N     N_R   0.423373 0.862580 0.831342 0.095691
O31   O     O_R   0.325326 0.990476 0.817659 -0.244132
O32   O     O_R   0.407798 0.801355 0.887078 -0.347869
N5    N     N_3   0.067234 0.813226 0.697218 -0.602882
H24   H     H_    0.984986 0.819249 0.728278 0.258355
H25   H     H_    0.123222 0.848344 0.727606 0.241318
N6    N     N_R   0.454369 0.104304 0.188732 0.122415
O33   O     O_R   0.345482 0.204083 0.156197 -0.262160
O34   O     O_R   0.458662 0.986166 0.200607 -0.330354
N7    N     N_R   0.478506 0.086064 0.336510 0.121083
O35   O     O_R   0.343087 0.158542 0.324842 -0.258748
O36   O     O_R   0.524560 0.997866 0.389287 -0.340543
N8    N     N_R   0.688374 0.260259 0.200250 0.030271
O37   O     O_R   0.801809 0.250458 0.171902 -0.282912
O38   O     O_R   0.609057 0.368152 0.240335 -0.357166
N9    N     N_3   0.382644 0.807481 0.701375 -0.567652
H26   H     H_    0.339725 0.868162 0.655702 0.296616
H27   H     H_    0.374261 0.717950 0.699831 0.223435
N10   N     N_3   0.252880 0.557566 0.207890 -0.567477
H28   H     H_    0.225950 0.495327 0.238471 0.258975
H29   H     H_    0.317430 0.583397 0.237706 0.268928
N11   N     N_R   0.748238 0.414824 0.853088 0.068654
O39   O     O_R   0.876007 0.335359 0.828924 -0.334052
O40   O     O_R   0.713262 0.385076 0.914237 -0.309672

loop_
_geom_bond_atom_site_label_1
_geom_bond_atom_site_label_2
_geom_bond_distance
_ccdc_geom_bond_type
C36   O18   1.265280 A    
O11   Cr3   2.061558 S    
H3    C9    1.110757 S    
C16   C17   1.348703 D    
C14   H6    1.110703 S    
C8    N9    1.463384 S    
N7    O36   1.301893 A    
N2    O27   1.296197 A    
O23   Cr5   1.942463 S    
O4    Cr2   1.952557 S    
O23   C39   1.278080 A    
C19   C22   1.366193 D    
O8    Cr1   1.941511 S    
C10   C14   1.548273 S    
C27   C30   1.347044 D    
C14   H7    1.096378 S    
O15   Cr4   1.944471 S    
N6    O34   1.300144 A    
C10   C11   1.562681 S    
N5    H24   1.043509 S    
N8    O37   1.301187 A    
C18   N1    1.443711 S    
O12   C6    1.279434 A    
O15   C35   1.274453 A    
C30   N7    1.446896 S    
N9    H26   1.044517 S    
Cr6   O26   1.986984 S    
C16   C35   1.467116 S    
C15   C18   1.363376 D    
C7    N4    1.481761 S    
O25   Cr6   1.958067 S    
O6    C3    1.269163 A    
N8    O38   1.301722 A    
C9    H8    1.107764 S    
C28   N8    1.442069 S    
C7    H1    1.107410 S    
C24   C39   1.447035 S    
O22   Cr5   2.086009 S    
C23   C26   1.325262 D    
O16   Cr5   2.062042 S    
O20   C40   1.264299 A    
C21   H12   1.083469 S    
C32   C33   1.356103 D    
H4    C13   1.112112 S    
Cr3   O13   1.970178 S    
C28   C29   1.374095 D    
C17   H10   1.086330 S    
C20   C37   1.454191 S    
N7    O35   1.301821 A    
N2    O28   1.300036 A    
C11   C36   1.467800 S    
C32   C40   1.434135 S    
C25   H14   1.087137 S    
O1    Cr1   2.061504 S    
C35   O16   1.267193 A    
C33   C34   1.442592 S    
O10   Cr2   1.940945 S    
Cr1   O13   1.986522 S    
O1    C3    1.277203 A    
O17   C36   1.267447 A    
C28   C38   1.467808 S    
C15   N2    1.434319 S    
C39   O24   1.254400 A    
C20   H13   1.084098 S    
O18   Cr6   2.081473 S    
C8    H2    1.108193 S    
O5    Cr3   2.087784 S    
C9    C13   1.515280 S    
C3    C15   1.475570 S    
O12   Cr3   1.966872 S    
C13   H9    1.114250 S    
C33   H19   1.088454 S    
C7    C11   1.568499 S    
C29   C30   1.478668 S    
C23   H17   1.086483 S    
Cr5   O26   1.970695 S    
O14   Cr4   2.065575 S    
C20   C21   1.338069 D    
O7    Cr1   2.077429 S    
C24   H16   1.085134 S    
C31   C34   1.321532 D    
N3    O30   1.302028 A    
O6    Cr3   1.943058 S    
O19   Cr6   1.937870 S    
C32   N10   1.437147 S    
N4    O32   1.301525 A    
C5    C23   1.442403 S    
C4    O9    1.274223 A    
N1    H23   1.041234 S    
N10   H28   1.043852 S    
O20   Cr4   2.063788 S    
C6    C27   1.457614 S    
C21   C22   1.458039 S    
Cr2   O13   1.987534 S    
C26   H15   1.086841 S    
C38   O22   1.254275 A    
C17   C18   1.491581 S    
C1    O3    1.283572 A    
Cr4   O26   1.988751 S    
N11   O40   1.301169 A    
C25   C26   1.446099 S    
O9    Cr2   2.069016 S    
O2    Cr1   1.955674 S    
C10   N11   1.469656 S    
O8    C4    1.268245 A    
C24   C25   1.351519 D    
C2    O5    1.301134 A    
C4    C31   1.440162 S    
C1    C19   1.465753 S    
O21   Cr4   1.947662 S    
C2    C12   1.493813 S    
C27   H18   1.082935 S    
O2    C1    1.272748 A    
O14   C37   1.273475 A    
C31   H21   1.087775 S    
N6    O33   1.301771 A    
C22   N3    1.435374 S    
C10   H5    1.107549 S    
O4    C2    1.296677 A    
C29   N6    1.442077 S    
N5    H25   1.042276 S    
O7    C6    1.263615 A    
C19   N5    1.437605 S    
N3    O29   1.300017 A    
C12   C14   1.558096 S    
C12   C13   1.551911 S    
C7    C8    1.548384 S    
N1    H22   1.045329 S    
N9    H27   1.036895 S    
N10   H29   1.045437 S    
O17   Cr5   1.967847 S    
O19   C37   1.275973 A    
O3    Cr2   2.060869 S    
O25   C40   1.278612 A    
C9    C11   1.560104 S    
O21   C38   1.284596 A    
N4    O31   1.301830 A    
C34   H20   1.086533 S    
C16   H11   1.085282 S    
O10   C5    1.262283 A    
O24   Cr6   2.056782 S    
C5    O11   1.268887 A    
C8    C12   1.583162 S    
N11   O39   1.301584 A    
