data_mof_unit_23270.cif
_audit_creation_date              2013-03-05T15:50:11-0500
_audit_creation_method            fapswitch 2.2
_symmetry_space_group_name_H-M    P1
_symmetry_Int_Tables_number       1
_space_group_crystal_system       triclinic
_cell_length_a                    14.774905
_cell_length_b                    16.022117
_cell_length_c                    9.612511
_cell_angle_alpha                 90.863723
_cell_angle_beta                  91.404071
_cell_angle_gamma                 90.487458
_cell_volume                      2274.49273977

loop_
_atom_site_label
_atom_site_type_symbol
_atom_site_description
_atom_site_fract_x
_atom_site_fract_y
_atom_site_fract_z
_atom_type_partial_charge
O1    O     O_R   0.409820 0.909830 0.618810 -0.541344
O2    O     O_R   0.409820 0.090170 0.618810 -0.537958
O3    O     O_R   0.909820 0.409830 0.618810 -0.541335
O4    O     O_R   0.909820 0.590170 0.618810 -0.537972
O5    O     O_R   0.409840 0.909830 0.381240 -0.589207
O6    O     O_R   0.409840 0.090170 0.381240 -0.599742
O7    O     O_R   0.909840 0.409830 0.381240 -0.589207
O8    O     O_R   0.909840 0.590170 0.381240 -0.599742
C1    C     C_R   0.382362 0.879900 0.497471 0.834621
C2    C     C_R   0.386084 0.122784 0.500962 0.813754
C3    C     C_R   0.882361 0.379900 0.497471 0.834618
C4    C     C_R   0.886084 0.622784 0.500962 0.813751
Cu1   Cu    Cu3+1 0.499990 0.000000 0.640660 1.048380
Cu2   Cu    Cu3+1 0.999990 0.500000 0.640660 1.048376
Cu3   Cu    Cu3+1 0.500010 0.000000 0.359340 0.997025
Cu4   Cu    Cu3+1 0.000010 0.500000 0.359340 0.997024
O9    O     O_R   0.590170 0.090170 0.618760 -0.557618
O10   O     O_R   0.590170 0.909830 0.618760 -0.577902
O11   O     O_R   0.090170 0.590170 0.618760 -0.557619
O12   O     O_R   0.090170 0.409830 0.618760 -0.577903
O13   O     O_R   0.590190 0.090180 0.381190 -0.550866
O14   O     O_R   0.590190 0.909820 0.381190 -0.587507
O15   O     O_R   0.090190 0.590180 0.381190 -0.550867
O16   O     O_R   0.090190 0.409820 0.381190 -0.587506
C5    C     C_R   0.611260 0.125010 0.502884 0.875994
C6    C     C_R   0.615413 0.877977 0.501193 0.866908
C7    C     C_R   0.111261 0.625009 0.502884 0.875999
C8    C     C_R   0.115413 0.377977 0.501193 0.866906
H1    H     H_    0.306936 0.197324 0.281161 0.164189
H2    H     H_    0.251319 0.849387 0.297894 0.171805
H3    H     H_    0.806933 0.697322 0.281160 0.164189
H4    H     H_    0.751315 0.349391 0.297897 0.171803
C9    C     C_R   0.342388 0.219476 0.763909 0.356992
C10   C     C_R   0.384510 0.737592 0.689114 0.234203
C11   C     C_R   0.842398 0.719485 0.763903 0.356973
C12   C     C_R   0.884511 0.237588 0.689106 0.234202
C13   C     C_R   0.295759 0.225636 0.888001 -0.042376
C14   C     C_R   0.370706 0.710658 0.824091 -0.071263
C15   C     C_R   0.795774 0.725651 0.887999 -0.042340
C16   C     C_R   0.870709 0.210653 0.824083 -0.071259
H5    H     H_    0.330236 0.215301 0.986877 0.144718
H6    H     H_    0.427535 0.696528 0.892694 0.173873
H7    H     H_    0.830254 0.715320 0.986873 0.144720
H8    H     H_    0.927539 0.196521 0.892683 0.173874
C17   C     C_R   0.706535 0.751313 0.885741 -0.188284
C18   C     C_R   0.782492 0.196799 0.866643 -0.104230
C19   C     C_R   0.206521 0.251302 0.885738 -0.188299
C20   C     C_R   0.282489 0.696802 0.866648 -0.104224
H9    H     H_    0.670082 0.756051 0.981870 0.146695
H10   H     H_    0.770600 0.178988 0.971812 0.201799
H11   H     H_    0.170066 0.256038 0.981864 0.146702
H12   H     H_    0.270595 0.678991 0.971817 0.201797
C21   C     C_R   0.667831 0.780682 0.762576 -0.107623
C22   C     C_R   0.711248 0.195452 0.767903 -0.064959
C23   C     C_R   0.167823 0.280677 0.762573 -0.107629
C24   C     C_R   0.211246 0.695452 0.767904 -0.064953
H13   H     H_    0.600499 0.804876 0.771138 0.183397
H14   H     H_    0.646208 0.174677 0.801685 0.208095
H15   H     H_    0.100491 0.304871 0.771131 0.183396
H16   H     H_    0.146208 0.674675 0.801685 0.208096
C25   C     C_R   0.713720 0.774369 0.634535 0.130708
C26   C     C_R   0.727289 0.217987 0.628985 0.094896
C27   C     C_R   0.213716 0.274366 0.634535 0.130712
C28   C     C_R   0.227289 0.717987 0.628986 0.094899
C29   C     C_R   0.295738 0.229645 0.634126 0.064352
C30   C     C_R   0.309685 0.757539 0.604107 0.086555
C31   C     C_R   0.795743 0.729650 0.634123 0.064345
C32   C     C_R   0.809685 0.257538 0.604104 0.086568
C33   C     C_R   0.325379 0.195311 0.505539 -0.091922
C34   C     C_R   0.315635 0.811683 0.491796 -0.077215
C35   C     C_R   0.825381 0.695312 0.505537 -0.091919
C36   C     C_R   0.815634 0.311683 0.491795 -0.077211
C37   C     C_R   0.285379 0.221869 0.380507 -0.168430
C38   C     C_R   0.248454 0.808339 0.386220 -0.139687
C39   C     C_R   0.785378 0.721868 0.380506 -0.168431
C40   C     C_R   0.748451 0.308342 0.386221 -0.139687
H17   H     H_    0.689074 0.800476 0.282281 0.156352
H18   H     H_    0.631366 0.242542 0.305016 0.185372
H19   H     H_    0.189076 0.300476 0.282282 0.156352
H20   H     H_    0.131371 0.742538 0.305014 0.185371
C41   C     C_R   0.716449 0.779931 0.381180 -0.174307
C42   C     C_R   0.678213 0.249858 0.392903 -0.113355
C43   C     C_R   0.216450 0.279931 0.381181 -0.174305
C44   C     C_R   0.178216 0.749856 0.392902 -0.113357
C45   C     C_R   0.680760 0.808579 0.506623 -0.044649
C46   C     C_R   0.669152 0.200760 0.511856 -0.083778
C47   C     C_R   0.180759 0.308578 0.506623 -0.044650
C48   C     C_R   0.169154 0.700759 0.511856 -0.083771
H21   H     H_    0.358903 0.997930 0.124983 0.161403
H22   H     H_    0.858902 0.497938 0.124981 0.161401
C49   C     C_R   0.661531 0.990311 0.159067 0.336636
C50   C     C_R   0.161531 0.490306 0.159066 0.336631
C51   C     C_R   0.722891 0.934013 0.111674 -0.394107
C52   C     C_R   0.222889 0.434007 0.111672 -0.394102
H23   H     H_    0.775670 0.914390 0.183964 0.229475
H24   H     H_    0.275668 0.414383 0.183962 0.229475
C53   C     C_R   0.742307 0.938463 0.971814 0.262642
C54   C     C_R   0.242304 0.438454 0.971812 0.262645
C55   C     C_R   0.675297 0.972521 0.878031 0.178079
C56   C     C_R   0.175295 0.472516 0.878031 0.178088
C57   C     C_R   0.584032 0.992477 0.930182 -0.001937
C58   C     C_R   0.084032 0.492474 0.930182 -0.001942
C59   C     C_R   0.581196 0.997636 0.080032 0.093811
C60   C     C_R   0.081196 0.497634 0.080032 0.093810
N1    N     N_R   0.501200 0.000000 0.147910 -0.215738
N2    N     N_R   0.001200 0.500000 0.147910 -0.215736
C61   C     C_R   0.422462 0.999800 0.071411 -0.107622
C62   C     C_R   0.922461 0.499804 0.071410 -0.107621
C63   C     C_R   0.421814 0.998734 0.923864 0.423841
C64   C     C_R   0.921814 0.498738 0.923863 0.423847
N3    N     N_R   0.501270 0.000000 0.852040 -0.227015
N4    N     N_R   0.001270 0.500000 0.852040 -0.227022
N5    N     N_R   0.835812 0.924286 0.935581 0.177496
O17   O     O_R   0.900693 0.939775 0.026691 -0.292690
O18   O     O_R   0.857705 0.893855 0.815173 -0.290729
N6    N     N_R   0.335807 0.424269 0.935574 0.177498
O19   O     O_R   0.400690 0.439745 0.026687 -0.292693
O20   O     O_R   0.357696 0.393844 0.815160 -0.290733
Br1   Br    Br    0.733834 0.006472 0.710239 -0.400737
Br2   Br    Br    0.233833 0.506473 0.710244 -0.400735
N7    N     N_R   0.337350 0.983730 0.852052 0.137490
O21   O     O_R   0.301083 0.909610 0.856987 -0.362018
O22   O     O_R   0.285808 0.046089 0.819832 -0.356478
N8    N     N_R   0.837351 0.483741 0.852047 0.137488
O23   O     O_R   0.801098 0.409609 0.856932 -0.362014
O24   O     O_R   0.785790 0.546111 0.819894 -0.356502
Br3   Br    Br    0.471482 0.229242 0.782418 -0.467878
Br4   Br    Br    0.492184 0.705047 0.598833 -0.506143
Br5   Br    Br    0.971491 0.729252 0.782396 -0.467891
Br6   Br    Br    0.992182 0.205042 0.598818 -0.506140
Br7   Br    Br    0.731873 0.089421 0.199274 -0.504242
Br8   Br    Br    0.231875 0.589415 0.199275 -0.504243

loop_
_geom_bond_atom_site_label_1
_geom_bond_atom_site_label_2
_geom_bond_distance
_ccdc_geom_bond_type
C43   C47   1.400477 A    
C27   C29   1.413139 A    
C11   C31   1.422620 A    
C23   H15   1.075323 S    
C58   N4    1.426260 A    
O10   C6    1.297393 A    
H20   C44   1.083284 S    
C10   C30   1.400585 A    
C60   N2    1.364528 A    
C9    C29   1.422626 A    
Cu2   N4    2.031518 S    
C26   C46   1.421570 A    
Cu1   O10   1.985985 S    
C19   C23   1.392230 A    
C50   Br8   1.919594 S    
C14   H6    1.082460 S    
C63   N3    1.376587 A    
H2    C38   1.083199 S    
C49   Br7   1.919596 S    
C38   C44   1.395572 A    
H1    C37   1.083408 S    
C52   C54   1.384285 A    
C9    Br3   1.916125 S    
N6    O19   1.302229 A    
O8    Cu4   1.985884 S    
O2    Cu1   1.983532 S    
H18   C42   1.083284 S    
C52   H24   1.083522 S    
C64   N8    1.428045 S    
O6    Cu3   1.985884 S    
C21   C25   1.422351 A    
Cu3   O14   1.983751 S    
C54   N6    1.451925 S    
C62   C64   1.417944 A    
H19   C43   1.081005 S    
C23   C27   1.422350 A    
C34   C38   1.402181 A    
C24   C28   1.413614 A    
C33   C37   1.399905 A    
C56   Br2   1.931883 S    
O15   C7    1.317672 A    
O4    C4    1.296457 A    
O11   C7    1.296983 A    
C11   Br5   1.916116 S    
C16   H8    1.082462 S    
C14   C20   1.392631 A    
Cu4   N2    2.032881 S    
C15   C17   1.384215 A    
C17   C21   1.392230 A    
Cu4   O16   1.983751 S    
O4    Cu2   1.983532 S    
C61   C63   1.417940 A    
C18   C22   1.399784 A    
C56   C58   1.485726 A    
C53   C55   1.439085 A    
O7    C3    1.295438 A    
O5    Cu3   1.973975 S    
Cu2   O12   1.985985 S    
C12   C16   1.392698 A    
O1    C1    1.308281 A    
C1    C34   1.465194 S    
C40   C42   1.395575 A    
C21   H13   1.075322 S    
C3    C36   1.465196 S    
C39   C41   1.385244 A    
C15   H7    1.082907 S    
O12   C8    1.297392 A    
C42   C46   1.406074 A    
C9    C13   1.394681 A    
C24   H16   1.073674 S    
C32   C36   1.399069 A    
C28   C30   1.395174 A    
C11   C15   1.394682 A    
O5    C1    1.295439 A    
C12   Br6   1.903685 S    
C49   C51   1.365596 A    
N1    C61   1.360909 A    
C25   C31   1.413137 A    
H3    C39   1.083408 S    
H17   C41   1.081006 S    
O8    C4    1.313563 A    
H21   C61   1.082414 S    
C8    C47   1.479452 S    
C50   C52   1.365597 A    
C17   H9    1.082894 S    
C36   C40   1.402184 A    
C59   N1    1.364527 A    
C58   C60   1.443214 A    
N7    O21   1.300697 A    
O3    Cu2   1.962297 S    
C25   C45   1.430001 A    
C10   Br4   1.903683 S    
O7    Cu4   1.973975 S    
C55   C57   1.485728 A    
C4    C35   1.474730 S    
Cu4   O15   1.962512 S    
C54   C56   1.439084 A    
Cu1   Cu3   2.704198 S    
Cu2   Cu4   2.704198 S    
Cu3   O13   1.962512 S    
C13   C19   1.384216 A    
C16   C18   1.392633 A    
C53   N5    1.451924 S    
O2    C2    1.296453 A    
C51   C53   1.384284 A    
N8    O24   1.298154 A    
N5    O17   1.302228 A    
C22   H14   1.073677 S    
C20   C24   1.399782 A    
O13   C5    1.317672 A    
C28   C48   1.421574 A    
C27   C47   1.430001 A    
C10   C14   1.392697 A    
Cu2   O11   1.974073 S    
O16   C8    1.315191 A    
C49   C59   1.400230 A    
H4    C40   1.083199 S    
C19   H11   1.082892 S    
C12   C32   1.400584 A    
Cu1   O9    1.974073 S    
C57   N3    1.426263 A    
C22   C26   1.413613 A    
C18   H10   1.072779 S    
C57   C59   1.443217 A    
C26   C32   1.395174 A    
O9    C5    1.296984 A    
Cu3   N1    2.032881 S    
H22   C62   1.082415 S    
Cu1   N3    2.031518 S    
C35   C39   1.399905 A    
C63   N7    1.428046 S    
C30   C34   1.399072 A    
C44   C48   1.406075 A    
N2    C62   1.360918 A    
C6    C45   1.479453 S    
C29   C33   1.425607 A    
C5    C46   1.479061 S    
N6    O20   1.298463 A    
C31   C35   1.425602 A    
C13   H5    1.082907 S    
C7    C48   1.479058 S    
C64   N4    1.376575 A    
N7    O22   1.298003 A    
O3    C3    1.308283 A    
O6    C2    1.313565 A    
C50   C60   1.400230 A    
C55   Br1   1.931887 S    
C2    C33   1.474728 S    
C20   H12   1.072781 S    
O1    Cu1   1.962297 S    
C51   H23   1.083523 S    
O14   C6    1.315191 A    
C37   C43   1.385243 A    
C41   C45   1.400478 A    
N8    O23   1.300748 A    
N5    O18   1.298463 A    
