data_mof_unit_60780.cif
_audit_creation_date              2012-12-10T20:50:01-0500
_audit_creation_method            fapswitch 2.2
_symmetry_space_group_name_H-M    P1
_symmetry_Int_Tables_number       1
_space_group_crystal_system       triclinic
_cell_length_a                    19.188373
_cell_length_b                    19.264298
_cell_length_c                    19.229279
_cell_angle_alpha                 94.745003
_cell_angle_beta                  89.835571
_cell_angle_gamma                 85.357466
_cell_volume                      7060.18310995

loop_
_atom_site_label
_atom_site_type_symbol
_atom_type_description
_atom_site_fract_x
_atom_site_fract_y
_atom_site_fract_z
_atom_type_partial_charge
C1    C     C_R   0.493726 0.493451 0.310863 0.809749
C2    C     C_R   0.120769 0.576793 0.520759 -0.137092
C3    C     C_R   0.505789 0.513034 0.766010 -0.022989
C4    C     C_R   0.506825 0.507495 0.689288 0.810851
C5    C     C_R   0.458367 0.476564 0.801667 -0.245507
C6    C     C_R   0.454735 0.483118 0.874405 -0.003972
C7    C     C_R   0.500402 0.525856 0.912579 0.274219
C8    C     C_R   0.546462 0.563289 0.876793 -0.183546
C9    C     C_R   0.549585 0.556721 0.804105 -0.199627
C10   C     C_R   0.485693 0.549656 0.126903 -0.259207
C11   C     C_R   0.486144 0.554475 0.199596 0.430383
C12   C     C_R   0.913514 0.468266 0.498330 0.129455
C13   C     C_R   0.496344 0.484370 0.087782 0.207689
C14   C     C_R   0.494396 0.492407 0.234498 -0.153991
C15   C     C_R   0.504232 0.427492 0.195535 -0.377102
C16   C     C_R   0.493491 0.689482 0.506952 0.795878
C17   C     C_R   0.505076 0.423101 0.122335 0.464642
C18   C     C_R   0.509012 0.233233 0.488822 -0.048236
C19   C     C_R   0.452117 0.198581 0.512207 -0.054492
C20   C     C_R   0.457915 0.125987 0.511992 -0.190555
C21   C     C_R   0.519854 0.086475 0.488501 0.308372
C22   C     C_R   0.575359 0.120887 0.464369 -0.181563
C23   C     C_R   0.879741 0.447766 0.436060 -0.096233
C24   C     C_R   0.570005 0.193489 0.464130 -0.215333
C25   C     C_R   0.547897 0.874083 0.507952 -0.163118
C26   C     C_R   0.553584 0.801344 0.506728 0.420375
C27   C     C_R   0.481942 0.912038 0.507366 0.182749
C28   C     C_R   0.506633 0.310088 0.491634 0.792899
C29   C     C_R   0.491806 0.765658 0.507426 -0.132248
C30   C     C_R   0.426300 0.803600 0.507879 -0.276413
C31   C     C_R   0.421174 0.876201 0.508282 -0.016556
C32   C     C_R   0.310901 0.507672 0.507648 0.866267
C33   C     C_R   0.689451 0.492147 0.491677 0.825087
C34   C     C_R   0.806346 0.456722 0.431913 -0.087894
C35   C     C_R   0.766702 0.485454 0.491166 -0.156472
C36   C     C_R   0.801196 0.505333 0.552966 -0.208214
C37   C     C_R   0.873646 0.495832 0.557871 0.456402
C38   C     C_1   0.401806 0.448114 0.908160 0.224872
C39   C     C_1   0.352785 0.913465 0.508751 0.218661
C40   C     C_1   0.386513 0.235410 0.535577 0.215443
C41   C     C_1   0.921327 0.418952 0.375846 0.235597
C42   C     C_1   0.772712 0.438525 0.366194 0.240424
C43   C     C_1   0.078285 0.642604 0.529416 0.226663
C44   C     C_R   0.127818 0.449855 0.506173 -0.171122
C45   C     C_R   0.200302 0.446725 0.502176 0.348117
C46   C     C_R   0.087234 0.514348 0.514060 0.143119
C47   C     C_R   0.234265 0.509449 0.509134 -0.180586
C48   C     C_R   0.194803 0.574666 0.518432 0.355259
H1    H     H_    0.478594 0.597657 0.101229 0.203984
H2    H     H_    0.378934 0.776453 0.508475 0.193745
H3    H     H_    0.413863 0.100609 0.530581 0.164047
H4    H     H_    0.771442 0.526182 0.599085 0.199355
H5    H     H_    0.282102 0.385809 0.469675 0.331703
H6    H     H_    0.520052 0.321656 0.115132 0.338859
H7    H     H_    0.617713 0.719091 0.483148 0.337534
H8    H     H_    0.197902 0.676672 0.532872 0.344384
H9    H     H_    0.951292 0.490604 0.622804 0.353980
H10   H     H_    0.503377 0.619088 0.279619 0.337169
H11   H     H_    0.580690 0.597109 0.905541 0.161777
H12   H     H_    0.586036 0.586023 0.777800 0.179587
H13   H     H_    0.510665 0.380026 0.222251 0.180881
H14   H     H_    0.423081 0.443840 0.772869 0.179983
H15   H     H_    0.595520 0.900673 0.508001 0.186957
H16   H     H_    0.623199 0.091240 0.446031 0.156420
H17   H     H_    0.103335 0.400992 0.501071 0.201453
H18   H     H_    0.614302 0.218717 0.445995 0.175417
N1    N     N_2   0.987440 0.461433 0.499542 -0.189260
N2    N     N_1   0.954559 0.395965 0.327806 -0.170526
N3    N     N_1   0.745972 0.424020 0.313699 -0.171890
N4    N     N_1   0.044245 0.695158 0.536334 -0.162951
N5    N     N_2   0.012720 0.518434 0.513953 -0.132264
N6    N     N_2   0.499963 0.534289 0.986434 -0.200633
N7    N     N_2   0.498290 0.477908 0.013651 -0.106588
N8    N     N_2   0.528448 0.012522 0.488839 -0.182603
N9    N     N_2   0.474643 0.985892 0.506422 -0.173901
N10   N     N_1   0.359381 0.420067 0.935163 -0.157514
N11   N     N_1   0.297971 0.943364 0.509128 -0.175570
N12   N     N_1   0.333932 0.264685 0.554418 -0.120544
O1    O     O_3   0.500000 0.500000 0.500000 -0.499155
O2    O     O_R   0.340900 0.545940 0.467290 -0.588859
O3    O     O_R   0.655960 0.450920 0.450930 -0.635210
O4    O     O_R   0.347180 0.467040 0.545670 -0.641411
O5    O     O_R   0.655970 0.536100 0.536110 -0.639752
O6    O     O_3   0.235287 0.381309 0.489626 -0.726191
O7    O     O_3   0.514635 0.359580 0.083211 -0.729767
O8    O     O_3   0.620077 0.767902 0.502809 -0.738945
O9    O     O_3   0.230738 0.634397 0.526008 -0.744982
O10   O     O_3   0.902961 0.512713 0.621941 -0.740599
O11   O     O_3   0.480431 0.620636 0.233724 -0.729165
O12   O     O_R   0.536480 0.656330 0.545680 -0.629200
O13   O     O_R   0.545300 0.340270 0.450920 -0.641586
O14   O     O_R   0.451550 0.536740 0.347440 -0.629968
O15   O     O_R   0.466670 0.466660 0.655960 -0.640320
O16   O     O_R   0.536460 0.451300 0.340640 -0.633732
O17   O     O_R   0.545320 0.545300 0.655970 -0.640801
O18   O     O_R   0.451560 0.656600 0.467300 -0.621910
O19   O     O_R   0.466660 0.346810 0.536100 -0.636242
Zn1   Zn    Zn3+2 0.558430 0.558420 0.558430 0.990925
Zn2   Zn    Zn3+2 0.437090 0.558800 0.446440 1.018408
Zn3   Zn    Zn3+2 0.446060 0.446060 0.558420 0.995609
Zn4   Zn    Zn3+2 0.558420 0.436720 0.436720 0.978753

loop_
_geom_bond_atom_site_label_1
_geom_bond_atom_site_label_2
_ccdc_geom_bond_type
C28   O19   A    
C16   O12   A    
O1    Zn1   S    
C35   C36   A    
C34   C42   S    
O17   Zn1   S    
C7    C8    A    
O3    Zn4   S    
C2    C46   A    
C12   C23   A    
H5    O6    S    
C18   C24   A    
C39   N11   T    
C22   C24   A    
O1    Zn2   S    
C36   C37   A    
C18   C19   A    
C20   H3    S    
C8    H11   S    
C5    C6    A    
C11   C14   A    
C43   N4    T    
O18   Zn2   S    
C34   C35   A    
C25   H15   S    
C12   C37   A    
C37   O10   S    
C19   C20   A    
O16   Zn4   S    
C8    C9    A    
O5    Zn1   S    
C6    C38   S    
C36   H4    S    
C24   H18   S    
C30   H2    S    
C21   C22   A    
C44   H17   S    
O13   Zn4   S    
C27   N9    S    
C17   O7    S    
C44   C46   A    
C41   N2    T    
C45   C47   A    
C12   N1    S    
C16   O18   A    
N8    N9    D    
C27   C31   A    
O1    Zn3   S    
C18   C28   S    
C19   C40   S    
C7    N6    S    
C1    O16   A    
H8    O9    S    
C38   N10   T    
C2    C48   A    
C25   C26   A    
C21   N8    S    
C42   N3    T    
C29   C30   A    
C3    C9    A    
C32   O2    A    
C4    O17   A    
C11   O11   S    
C47   C48   A    
C2    C43   S    
C26   O8    S    
C23   C34   A    
C15   H13   S    
C48   O9    S    
C33   O5    A    
O15   Zn3   S    
C46   N5    S    
C13   N7    S    
C1    O14   A    
O2    Zn2   S    
C32   C47   S    
C40   N12   T    
C45   O6    S    
C3    C4    S    
O19   Zn3   S    
C44   C45   A    
C15   C17   A    
O4    Zn3   S    
N6    N7    D    
C3    C5    A    
C10   C13   A    
H6    O7    S    
C6    C7    A    
C25   C27   A    
C32   O4    A    
C23   C41   S    
H9    O10   S    
C13   C17   A    
C9    H12   S    
H7    O8    S    
C16   C29   S    
C30   C31   A    
C33   C35   S    
C31   C39   S    
C5    H14   S    
C28   O13   A    
N1    N5    D    
H10   O11   S    
C10   C11   A    
C22   H16   S    
C4    O15   A    
C20   C21   A    
C26   C29   A    
C14   C15   A    
O1    Zn4   S    
C1    C14   S    
C10   H1    S    
C33   O3    A    
O12   Zn1   S    
O14   Zn2   S    
