data_mof_unit_19487.cif
_audit_creation_date              2013-03-05T15:56:03-0500
_audit_creation_method            fapswitch 2.2
_symmetry_space_group_name_H-M    P1
_symmetry_Int_Tables_number       1
_space_group_crystal_system       triclinic
_cell_length_a                    12.304708
_cell_length_b                    13.248277
_cell_length_c                    17.258865
_cell_angle_alpha                 104.656546
_cell_angle_beta                  75.092778
_cell_angle_gamma                 116.392173
_cell_volume                      2403.95741535

loop_
_atom_site_label
_atom_site_type_symbol
_atom_site_description
_atom_site_fract_x
_atom_site_fract_y
_atom_site_fract_z
_atom_type_partial_charge
O1    O     O_R   0.025490 0.682370 0.523640 -0.584435
O2    O     O_R   0.194150 0.640180 0.491890 -0.597549
C1    C     C_R   0.144257 0.713232 0.510661 0.767698
O3    O     O_R   0.905900 0.523560 0.631310 -0.565171
O4    O     O_R   0.074570 0.481370 0.599560 -0.610112
C2    C     C_R   0.990809 0.507681 0.652426 0.794128
Cu1   Cu    Cu3+1 0.900140 0.524980 0.518800 0.994685
Cu2   Cu    Cu3+1 0.099860 0.475020 0.481200 0.956105
O5    O     O_R   0.805850 0.359820 0.508110 -0.523249
O6    O     O_R   0.974510 0.317630 0.476360 -0.601843
O7    O     O_R   0.925430 0.518630 0.400440 -0.593730
O8    O     O_R   0.094100 0.476440 0.368690 -0.562500
C3    C     C_R   0.855527 0.286769 0.491834 0.842995
C4    C     C_R   0.010437 0.494078 0.347506 0.788704
C5    C     C_R   0.999347 0.528391 0.738464 -0.034210
C6    C     C_R   0.093820 0.515536 0.760941 -0.173531
C7    C     C_R   0.108215 0.542016 0.841681 -0.159711
C8    C     C_R   0.028174 0.581266 0.901174 0.047613
C9    C     C_R   0.935089 0.596211 0.879179 -0.166128
C10   C     C_R   0.920436 0.569627 0.798063 -0.156372
C11   C     C_R   0.960945 0.557496 0.163192 -0.050769
C12   C     C_R   0.956361 0.551923 0.243074 -0.255841
C13   C     C_R   0.074131 0.434326 0.197433 0.425951
C14   C     C_R   0.082523 0.444965 0.117540 -0.157201
C15   C     C_R   0.027188 0.506972 0.100100 0.106787
C16   C     C_2   0.034702 0.596390 0.987419 0.375577
C17   C     C_2   0.030306 0.508075 0.014862 -0.211974
C18   C     C_R   0.013994 0.492221 0.261552 -0.146721
H1    H     H_    0.157214 0.485498 0.716239 0.165077
H2    H     H_    0.907328 0.594866 0.290547 0.194101
H3    H     H_    0.028812 0.431503 0.972172 0.112877
H4    H     H_    0.872073 0.625518 0.924965 0.153270
H5    H     H_    0.910530 0.599586 0.151236 0.202659
H6    H     H_    0.847975 0.581734 0.782074 0.160829
H7    H     H_    0.180895 0.530609 0.858046 0.144784
H8    H     H_    0.129569 0.401739 0.068572 0.161278
C19   C     C_R   0.732676 0.977143 0.407072 -0.120014
H9    H     H_    0.910815 0.112791 0.402982 0.171323
H10   H     H_    0.768306 0.923527 0.359455 0.200312
C20   C     C_R   0.773121 0.165044 0.485181 -0.138617
C21   C     C_R   0.183788 0.895311 0.602005 -0.189893
C22   C     C_R   0.267600 0.988220 0.644453 -0.152364
C23   C     C_R   0.392983 0.022633 0.615472 -0.059903
C24   C     C_R   0.437364 0.973349 0.538159 0.097769
C25   C     C_R   0.352222 0.874592 0.497342 0.014288
C26   C     C_R   0.564130 0.015179 0.501997 -0.069396
C27   C     C_R   0.606328 0.942310 0.437748 -0.005505
C28   C     C_R   0.520558 0.840601 0.400829 0.328860
C29   C     C_R   0.395683 0.815359 0.425399 -0.239396
C30   C     C_R   0.648475 0.129361 0.523152 0.298620
C31   C     C_R   0.815258 0.086509 0.431856 -0.264377
C32   C     C_R   0.225606 0.833120 0.531836 -0.068062
H11   H     H_    0.087425 0.864372 0.629334 0.148630
H12   H     H_    0.453410 0.084597 0.656378 0.183843
H13   H     H_    0.235652 0.029431 0.702678 0.153906
H14   H     H_    0.332608 0.744389 0.389722 0.200703
C33   C     C_R   0.643496 0.674849 0.629254 -0.229422
H15   H     H_    0.819170 0.692704 0.644154 0.120481
H16   H     H_    0.641865 0.742660 0.679529 0.196526
N1    N     N_R   0.749710 0.562810 0.547300 -0.183150
C34   C     C_R   0.249890 0.352456 0.390159 0.001816
C35   C     C_R   0.349727 0.320681 0.365889 0.374395
C36   C     C_R   0.449535 0.377691 0.407537 -0.114672
C37   C     C_R   0.451410 0.466355 0.473564 -0.072646
C38   C     C_R   0.347581 0.495175 0.495562 0.244437
C39   C     C_R   0.551723 0.526811 0.518684 -0.063852
C40   C     C_R   0.546410 0.615266 0.584374 0.131906
C41   C     C_R   0.444492 0.643274 0.605133 0.339018
C42   C     C_R   0.347132 0.582832 0.561422 -0.271763
C43   C     C_R   0.658015 0.503342 0.501797 0.140808
C44   C     C_R   0.744405 0.646971 0.609699 0.048375
N2    N     N_R   0.249640 0.437820 0.453210 -0.210147
H17   H     H_    0.670199 0.438213 0.453017 0.125357
H18   H     H_    0.171684 0.308782 0.358762 0.124168
H19   H     H_    0.524090 0.350362 0.386786 0.162671
H20   H     H_    0.271909 0.607016 0.581719 0.197123
N3    N     N_R   0.558187 0.763878 0.336386 0.116158
O9    O     O_R   0.503381 0.719394 0.273133 -0.330465
O10   O     O_R   0.628169 0.720879 0.348257 -0.377310
N4    N     N_R   0.605956 0.213213 0.573978 0.101055
O11   O     O_R   0.649485 0.269260 0.640717 -0.370012
O12   O     O_R   0.530805 0.239630 0.550460 -0.371243
O13   O     O_3   0.441191 0.730005 0.669120 -0.734271
H21   H     H_    0.364105 0.740298 0.675599 0.323804
O14   O     O_3   0.352461 0.234379 0.301945 -0.699680
H22   H     H_    0.275597 0.202895 0.278991 0.328712
O15   O     O_3   0.122270 0.364518 0.209583 -0.707318
H23   H     H_    0.068835 0.325684 0.256166 0.313294
O16   O     O_3   0.044133 0.697672 0.038699 -0.719988
H24   H     H_    0.050571 0.752366 0.005978 0.331036

loop_
_geom_bond_atom_site_label_1
_geom_bond_atom_site_label_2
_geom_bond_distance
_ccdc_geom_bond_type
O15   H23   0.989941 S    
C21   C22   1.385351 A    
C9    C10   1.392980 A    
C8    C16   1.469177 S    
Cu1   Cu2   2.703089 S    
N3    O9    1.301438 A    
C16   O16   1.382271 S    
Cu1   O7    1.971299 S    
C16   C17   1.344322 D    
C14   H8    1.084159 S    
O4    C2    1.300331 A    
C19   C31   1.384178 A    
O7    C4    1.301910 A    
C38   C42   1.405406 A    
H15   C44   1.081958 S    
C33   H16   1.083046 S    
C11   H5    1.081654 S    
C5    C6    1.404368 A    
C42   H20   1.059301 S    
C8    C9    1.399485 A    
O5    C3    1.299686 A    
C3    C20   1.467801 S    
C2    C5    1.462793 S    
C27   C28   1.408090 A    
C6    C7    1.385861 A    
C13   C14   1.394251 A    
C25   C29   1.407799 A    
C19   C27   1.404492 A    
C21   C32   1.400570 A    
C10   H6    1.083040 S    
C39   C40   1.421468 A    
C12   C18   1.404586 A    
C11   C12   1.384607 A    
C33   C40   1.406585 A    
O3    Cu1   1.966323 S    
C9    H4    1.083308 S    
C24   C26   1.426649 A    
N3    O10   1.301513 A    
C5    C10   1.404504 A    
C35   O14   1.379450 S    
Cu2   N2    2.025300 S    
C17   H3    1.088317 S    
C40   C41   1.397857 A    
C14   C15   1.398881 A    
N4    O12   1.301934 A    
C41   C42   1.397117 A    
H9    C31   1.083726 S    
N1    C44   1.352093 A    
C6    H1    1.083066 S    
O14   H22   0.991902 S    
O1    C1    1.303741 A    
C37   C39   1.439263 A    
C28   N3    1.437322 S    
C23   C24   1.416403 A    
C35   C36   1.396492 A    
C22   H13   1.082760 S    
C23   H12   1.076718 S    
O13   H21   0.991717 S    
N1    C43   1.364914 A    
Cu2   O8    1.966323 S    
C43   H17   1.076203 S    
C7    C8    1.399809 A    
C13   C18   1.419233 A    
C33   C44   1.386014 A    
C21   H11   1.083710 S    
C34   N2    1.357117 A    
O3    C2    1.303360 A    
C28   C29   1.390089 A    
O8    C4    1.303369 A    
C22   C23   1.389705 A    
C38   N2    1.386391 A    
Cu1   N1    2.037367 S    
C24   C25   1.414332 A    
Cu1   O5    1.953658 S    
C11   C15   1.399176 A    
C26   C27   1.427893 A    
C12   H2    1.083482 S    
O1    Cu1   1.962836 S    
C41   O13   1.384840 S    
O2    Cu2   1.953657 S    
N4    O11   1.302313 A    
O6    C3    1.305323 A    
C30   N4    1.436911 S    
O4    Cu2   1.971299 S    
C1    C32   1.462631 S    
C34   H18   1.081232 S    
C15   C17   1.465332 S    
C20   C31   1.395656 A    
C26   C30   1.420723 A    
C25   C32   1.418052 A    
C37   C38   1.425794 A    
O2    C1    1.298356 A    
C19   H10   1.080838 S    
C29   H14   1.081521 S    
C39   C43   1.418355 A    
C36   H19   1.077742 S    
C20   C30   1.414333 A    
C34   C35   1.402696 A    
C36   C37   1.411020 A    
Cu2   O6    1.962837 S    
C13   O15   1.378108 S    
C7    H7    1.083560 S    
C4    C18   1.467063 S    
O16   H24   0.991592 S    
