data_mof_unit_46173.cif
_audit_creation_date              2012-12-10T18:06:47-0500
_audit_creation_method            fapswitch 2.2
_symmetry_space_group_name_H-M    P1
_symmetry_Int_Tables_number       1
_space_group_crystal_system       triclinic
_cell_length_a                    12.677075
_cell_length_b                    13.255213
_cell_length_c                    15.526753
_cell_angle_alpha                 84.995236
_cell_angle_beta                  99.2405
_cell_angle_gamma                 96.944265
_cell_volume                      2550.19280253

loop_
_atom_site_label
_atom_site_type_symbol
_atom_type_description
_atom_site_fract_x
_atom_site_fract_y
_atom_site_fract_z
_atom_type_partial_charge
C1    C     C_R   0.444053 0.308799 0.510552 0.857184
C2    C     C_R   0.447915 0.532076 0.100364 -0.033291
C3    C     C_R   0.369778 0.599157 0.067546 0.109805
C4    C     C_R   0.523620 0.514569 0.047836 0.119707
C5    C     C_R   0.501611 0.536874 0.957049 0.105413
C6    C     C_R   0.417938 0.597915 0.923726 -0.206395
C7    C     C_R   0.355701 0.631881 0.979102 -0.175832
C8    C     C_R   0.625013 0.484839 0.084516 -0.143133
C9    C     C_R   0.695983 0.461515 0.031683 -0.181986
C10   C     C_R   0.665123 0.462404 0.940938 -0.022655
C11   C     C_R   0.567102 0.500805 0.903442 0.024096
C12   C     C_R   0.435227 0.512672 0.336685 0.915694
C13   C     C_R   0.730942 0.427765 0.886709 0.438637
C14   C     C_R   0.701215 0.436683 0.795056 0.404650
C15   C     C_R   0.534927 0.499460 0.813736 -0.314211
C16   C     C_R   0.724104 0.934377 0.540468 -0.216915
C17   C     C_R   0.590924 0.799272 0.488634 -0.057100
C18   C     C_R   0.299337 0.170084 0.478497 -0.141728
C19   C     C_R   0.267551 0.070842 0.456184 -0.132290
C20   C     C_R   0.343464 0.002072 0.462339 -0.112042
C21   C     C_R   0.452890 0.029833 0.496920 0.110299
C22   C     C_R   0.482271 0.128096 0.527364 0.087721
C23   C     C_R   0.555791 0.691056 0.489190 0.887474
C24   C     C_R   0.534537 0.964247 0.501919 0.098801
C25   C     C_R   0.642361 0.997270 0.538079 0.180907
C26   C     C_R   0.666592 0.090621 0.574808 -0.250475
C27   C     C_R   0.586663 0.153396 0.572356 -0.209536
C28   C     C_R   0.512011 0.865419 0.474760 -0.189127
C29   C     C_R   0.698316 0.835371 0.515355 -0.197617
C30   C     C_R   0.407251 0.200214 0.510619 -0.099992
C31   C     C_R   0.137261 0.686718 0.560251 -0.311047
C32   C     C_R   0.755342 0.363107 0.412486 -0.030568
C33   C     C_R   0.846405 0.335356 0.385792 -0.320958
C34   C     C_R   0.564061 0.484556 0.664000 0.949359
C35   C     C_R   0.944778 0.394144 0.405490 0.541409
C36   C     C_R   0.952146 0.477554 0.458585 -0.156866
C37   C     C_R   0.855379 0.505174 0.481623 0.060721
C38   C     C_R   0.050359 0.533796 0.492358 0.011000
C39   C     C_R   0.045931 0.629950 0.523465 0.022279
C40   C     C_R   0.949420 0.662365 0.532169 -0.372853
C41   C     C_R   0.860600 0.590405 0.531656 0.556885
C42   C     C_R   0.151823 0.497368 0.502503 -0.100059
C43   C     C_R   0.233141 0.645012 0.576351 0.578035
C44   C     C_R   0.398862 0.530225 0.243498 -0.162658
C45   C     C_R   0.601945 0.472914 0.758751 -0.275788
C46   C     C_R   0.308182 0.632981 0.124222 -0.185687
C47   C     C_R   0.327230 0.602977 0.213058 -0.276185
C48   C     C_R   0.447079 0.484453 0.184520 0.376267
H1    H     H_    0.295712 0.682578 0.952493 0.171984
H2    H     H_    0.760953 0.785776 0.521999 0.179288
H3    H     H_    0.747155 0.114567 0.606672 0.139943
H4    H     H_    0.806841 0.959969 0.565844 0.140120
H5    H     H_    0.432123 0.834875 0.448056 0.148228
H6    H     H_    0.240568 0.224599 0.466023 0.177112
H7    H     H_    0.313062 0.928232 0.439547 0.136774
H8    H     H_    0.184443 0.048357 0.429911 0.148265
H9    H     H_    0.607547 0.222809 0.605528 0.153714
H10   H     H_    0.455680 0.518135 0.785775 0.230992
H11   H     H_    0.948349 0.736041 0.557002 0.150444
H12   H     H_    0.131771 0.759617 0.585332 0.197898
H13   H     H_    0.163456 0.425421 0.480385 0.212276
H14   H     H_    0.679804 0.316533 0.397650 0.222563
H15   H     H_    0.840210 0.269329 0.348101 0.185940
H16   H     H_    0.774142 0.441509 0.062575 0.178317
H17   H     H_    0.250199 0.686667 0.100840 0.151772
H18   H     H_    0.287210 0.637325 0.257876 0.175090
H19   H     H_    0.404242 0.626277 0.856214 0.211205
H20   H     H_    0.652053 0.484615 0.154108 0.179499
N1    N     N_R   0.239390 0.551900 0.544730 -0.187196
N2    N     N_R   0.759950 0.448600 0.455730 -0.123683
O1    O     O_R   0.374950 0.371210 0.521360 -0.629996
O2    O     O_R   0.542050 0.338030 0.492790 -0.618812
O3    O     O_R   0.368720 0.526070 0.390200 -0.631252
O4    O     O_R   0.535820 0.492890 0.361630 -0.582158
O5    O     O_R   0.457950 0.661970 0.507210 -0.563685
O6    O     O_R   0.625050 0.628790 0.478640 -0.583271
O7    O     O_R   0.464180 0.507110 0.638370 -0.562397
O8    O     O_R   0.631280 0.473930 0.609800 -0.522406
Zn1   Zn    Zn3+2 0.388420 0.522150 0.519080 1.000511
Zn2   Zn    Zn3+2 0.611580 0.477850 0.480920 1.020212
O9    O     O_3   0.828036 0.391868 0.921654 -0.586634
C49   C     C_3   0.808603 0.289011 0.953288 -0.318520
H21   H     H_    0.885486 0.254497 0.963038 0.201059
H22   H     H_    0.750076 0.242772 0.906913 0.140122
H23   H     H_    0.779789 0.282979 0.017517 0.175265
S1    S     S_3+6 0.333600 0.718156 0.646756 0.003980
O10   O     O_2   0.343274 0.825273 0.606169 -0.345795
O11   O     O_2   0.290121 0.720371 0.731013 -0.354387
O12   O     O_3   0.457595 0.682654 0.671708 -0.542080
H24   H     H_    0.498593 0.734859 0.709618 0.365547
O13   O     O_3   0.031253 0.369028 0.371011 -0.634476
C50   C     C_3   0.040999 0.431197 0.293601 -0.290761
H25   H     H_    0.057185 0.513287 0.306740 0.159598
H26   H     H_    0.968041 0.418175 0.243703 0.166674
H27   H     H_    0.110411 0.410957 0.265841 0.217983
O14   O     O_3   0.782942 0.599143 0.582944 -0.558610
C51   C     C_3   0.826107 0.637146 0.665377 -0.206945
H28   H     H_    0.846792 0.720931 0.659966 0.115069
H29   H     H_    0.896564 0.598168 0.697797 0.194702
H30   H     H_    0.763522 0.623637 0.708424 0.188494
O15   O     O_3   0.773325 0.419411 0.741185 -0.569011
C52   C     C_3   0.771991 0.314075 0.733240 -0.229327
H31   H     H_    0.694819 0.268432 0.744172 0.103334
H32   H     H_    0.839750 0.284490 0.778771 0.192148
H33   H     H_    0.785463 0.302997 0.666008 0.174699
S2    S     S_3+6 0.469842 0.353765 0.205612 0.005925
O16   O     O_2   0.583625 0.344503 0.247689 -0.360846
O17   O     O_2   0.395082 0.301365 0.265654 -0.310413
O18   O     O_3   0.446422 0.296151 0.111007 -0.545076
H34   H     H_    0.465019 0.225848 0.127195 0.381646

loop_
_geom_bond_atom_site_label_1
_geom_bond_atom_site_label_2
_ccdc_geom_bond_type
C19   H8    S    
O15   C52   S    
C12   O4    A    
C9    H16   S    
C17   C29   A    
C35   C36   A    
C23   O6    A    
C4    C8    A    
O1    Zn1   S    
O9    C49   S    
C26   C27   A    
C17   C23   S    
C31   C43   A    
C21   C22   A    
C36   C37   A    
C38   C42   A    
C3    C7    A    
C34   O7    A    
C5    C6    A    
S1    O11   D    
C41   O14   S    
S2    O16   D    
C13   O9    S    
C52   H33   S    
C18   C19   A    
C50   H25   S    
C11   C15   A    
C48   S2    S    
C19   C20   A    
C8    C9    A    
C18   C30   A    
C24   C28   A    
C9    C10   A    
C47   H18   S    
C44   C47   A    
C43   N1    A    
C40   H11   S    
O4    Zn2   S    
C13   C14   A    
C17   C28   A    
C20   H7    S    
C51   H29   S    
C51   H28   S    
C14   C45   A    
C29   H2    S    
O7    Zn1   S    
C1    O2    A    
N2    Zn2   S    
C16   H4    S    
C24   C25   A    
C7    H1    S    
C46   H17   S    
C27   H9    S    
C39   C40   A    
S1    O10   D    
C14   O15   S    
C32   N2    A    
C2    C48   A    
C16   C29   A    
C10   C13   A    
C42   N1    A    
C31   H12   S    
C2    C4    A    
C33   H15   S    
O14   C51   S    
C50   H26   S    
O3    Zn1   S    
C34   C45   S    
C1    O1    A    
C52   H32   S    
C42   H13   S    
C6    H19   S    
C8    H20   S    
C49   H22   S    
C22   C27   A    
C15   H10   S    
N1    Zn1   S    
C15   C45   A    
O13   C50   S    
C51   H30   S    
C16   C25   A    
C46   C47   A    
C40   C41   A    
C22   C30   A    
C43   S1    S    
O6    Zn2   S    
C23   O5    A    
C4    C5    A    
S1    O12   S    
C28   H5    S    
C5    C11   A    
C6    C7    A    
C49   H23   S    
C3    C46   A    
C37   N2    A    
C32   C33   A    
C36   C38   A    
C2    C3    A    
C25   C26   A    
C32   H14   S    
O2    Zn2   S    
C26   H3    S    
C34   O8    A    
C38   C39   A    
S2    O17   D    
C1    C30   S    
C33   C35   A    
C31   C39   A    
O8    Zn2   S    
C50   H27   S    
C37   C41   A    
C52   H31   S    
C10   C11   A    
C18   H6    S    
C20   C21   A    
C12   C44   S    
C49   H21   S    
C21   C24   A    
O18   H34   S    
O12   H24   S    
C12   O3    A    
O5    Zn1   S    
C44   C48   A    
S2    O18   S    
C35   O13   S    
