data_mof_unit_14775.cif
_audit_creation_date              2012-10-26T18:27:55-0400
_audit_creation_method            fapswitch 2.2
_symmetry_space_group_name_H-M    P1
_symmetry_Int_Tables_number       1
_space_group_crystal_system       triclinic
_cell_length_a                    15.878163
_cell_length_b                    10.8803
_cell_length_c                    9.898737
_cell_angle_alpha                 110.270776
_cell_angle_beta                  97.770315
_cell_angle_gamma                 91.936512
_cell_volume                      1583.46184919

loop_
_atom_site_label
_atom_site_type_symbol
_atom_type_description
_atom_site_fract_x
_atom_site_fract_y
_atom_site_fract_z
_atom_type_partial_charge
C1    C     C_R   0.490694 0.253771 0.441936 0.552740
C2    C     C_2   0.459443 0.074565 0.522496 -0.126753
C3    C     C_2   0.506169 0.887733 0.588096 0.003507
C4    C     C_R   0.340693 0.499596 0.501292 0.575617
C5    C     C_2   0.450815 0.935820 0.504542 -0.026349
C6    C     C_2   0.499915 0.529809 0.088560 0.134798
C7    C     C_2   0.477288 0.538596 0.938023 0.028015
C8    C     C_R   0.503875 0.746195 0.558335 0.559180
C9    C     C_R   0.659300 0.500182 0.498667 0.575823
C10   C     C_3   0.059931 0.488991 0.643767 -0.212431
C11   C     C_3   0.038279 0.375285 0.369006 -0.107456
C12   C     C_3   0.961713 0.482519 0.640320 -0.125684
C13   C     C_3   0.937030 0.378044 0.354586 -0.004987
C14   C     C_1   0.748376 0.499088 0.495598 0.063059
C15   C     C_3   0.083512 0.498452 0.500217 0.005187
C16   C     C_3   0.928430 0.363415 0.676635 -0.292208
C17   C     C_3   0.955330 0.381161 0.837158 -0.418118
C18   C     C_2   0.375580 0.857161 0.399149 0.227454
C19   C     C_2   0.577169 0.969417 0.702953 0.207892
C20   C     C_2   0.393617 0.590184 0.914014 0.236032
C21   C     C_2   0.557800 0.643641 0.187913 0.307141
C22   C     C_2   0.619922 0.521150 0.904560 0.454742
C23   C     C_3   0.916106 0.494663 0.493824 -0.022781
C24   C     C_3   0.417179 0.323780 0.035925 -0.124643
C25   C     C_3   0.478961 0.222597 0.972918 -0.411112
C26   C     C_2   0.071211 0.247797 0.377218 0.275727
C27   C     C_2   0.891442 0.245588 0.335769 0.271464
C28   C     C_2   0.902938 0.403733 0.215305 0.252157
C29   C     C_3   0.106900 0.758059 0.552171 -0.268980
C30   C     C_3   0.141832 0.796690 0.714572 -0.408099
C31   C     C_2   0.930141 0.749587 0.608258 0.235574
C32   C     C_3   0.952262 0.629643 0.487854 -0.090161
C33   C     C_3   0.049878 0.625096 0.476623 -0.107339
C34   C     C_1   0.823619 0.497483 0.494240 -0.008683
C35   C     C_1   0.176128 0.499448 0.503531 -0.030902
C36   C     C_1   0.251559 0.499687 0.503878 0.023208
C37   C     C_2   0.476197 0.113528 0.413937 -0.110388
Cu1   Cu    Cu3+1 0.514650 0.521810 0.644910 0.995789
Cu2   Cu    Cu3+1 0.485350 0.478190 0.355090 1.040670
H1    H     H_    0.090226 0.573674 0.739746 0.134926
H2    H     H_    0.929404 0.469936 0.908480 0.173538
H3    H     H_    0.929713 0.294179 0.857809 0.189934
H4    H     H_    0.857640 0.351342 0.655289 0.171050
H5    H     H_    0.952333 0.271155 0.609212 0.151426
H6    H     H_    0.350111 0.885947 0.308174 0.118210
H7    H     H_    0.610161 0.928165 0.778538 0.151582
H8    H     H_    0.387342 0.661733 0.860414 0.143927
H9    H     H_    0.536518 0.741818 0.213945 0.084322
H10   H     H_    0.628313 0.436209 0.937262 0.112341
H11   H     H_    0.517988 0.257706 0.906523 0.168230
H12   H     H_    0.948109 0.569477 0.731396 0.148742
H13   H     H_    0.521923 0.205401 0.061638 0.190843
H14   H     H_    0.442592 0.128150 0.901909 0.119226
H15   H     H_    0.375581 0.283708 0.095113 0.172475
H16   H     H_    0.375045 0.339642 0.945680 0.165309
H17   H     H_    0.058030 0.212518 0.462585 0.110215
H18   H     H_    0.844236 0.238908 0.402813 0.110208
H19   H     H_    0.945812 0.435905 0.155310 0.078328
H20   H     H_    0.174158 0.897703 0.755022 0.153782
H21   H     H_    0.090856 0.797013 0.780297 0.150154
H22   H     H_    0.190249 0.730630 0.732668 0.161795
H23   H     H_    0.920022 0.639941 0.385613 0.172058
H24   H     H_    0.162887 0.754264 0.494743 0.185634
H25   H     H_    0.071141 0.839111 0.535693 0.177570
H26   H     H_    0.950536 0.765603 0.722120 0.119354
H27   H     H_    0.456247 0.145490 0.630162 0.171552
H28   H     H_    0.478164 0.042562 0.305772 0.089244
H29   H     H_    0.087135 0.402350 0.662153 0.123898
H30   H     H_    0.059344 0.383088 0.269117 0.130697
H31   H     H_    0.052402 0.607968 0.359444 0.105793
H32   H     H_    0.025860 0.390810 0.866025 0.151311
N1    N     N_2   0.463320 0.445430 0.137380 -0.219025
N2    N     N_2   0.536720 0.554500 0.862620 -0.295622
O1    O     O_R   0.507820 0.332330 0.577400 -0.498677
O2    O     O_2   0.602069 0.079782 0.712038 -0.504240
O3    O     O_2   0.332406 0.561401 0.963022 -0.535264
O4    O     O_2   0.631447 0.630607 0.230853 -0.455276
O5    O     O_2   0.682821 0.590245 0.907680 -0.446060
O6    O     O_2   0.112610 0.182683 0.286447 -0.485450
O7    O     O_2   0.902592 0.145480 0.237118 -0.446843
O8    O     O_2   0.826312 0.394092 0.171879 -0.457257
O9    O     O_2   0.887747 0.830597 0.577673 -0.464671
O10   O     O_R   0.483070 0.295500 0.332660 -0.521055
O11   O     O_R   0.391820 0.518430 0.622420 -0.533503
O12   O     O_R   0.367070 0.481600 0.377680 -0.455548
O13   O     O_R   0.516930 0.704500 0.667340 -0.517870
O14   O     O_R   0.492180 0.667670 0.422600 -0.468508
O15   O     O_R   0.632930 0.518400 0.622320 -0.465668
O16   O     O_R   0.608180 0.481570 0.377580 -0.444122
O17   O     O_2   0.338115 0.765817 0.417572 -0.501716

loop_
_geom_bond_atom_site_label_1
_geom_bond_atom_site_label_2
_ccdc_geom_bond_type
C29   H24   S    
C35   C36   T    
Cu2   O14   S    
C4    C36   S    
C19   H7    S    
C7    N2    D    
C24   H16   S    
C6    N1    D    
C12   C23   S    
C13   C23   S    
C31   O9    D    
Cu1   O13   S    
C1    O1    A    
C25   H14   S    
C10   C15   S    
C9    O15   A    
Cu1   Cu2   S    
C24   H15   S    
C29   C33   S    
C20   O3    D    
C10   H1    S    
C17   H3    S    
C25   H11   S    
C11   C15   S    
C12   C16   S    
C16   C17   S    
C30   H21   S    
Cu2   N1    S    
C13   C28   S    
C3    C19   S    
C16   H5    S    
C1    C37   S    
C21   H9    S    
C29   H25   S    
C15   C35   S    
C18   O17   D    
C24   C25   S    
C22   O5    D    
C27   O7    D    
C27   H18   S    
C9    O16   A    
C4    O12   A    
C11   C26   S    
C3    C5    D    
C6    C21   S    
Cu1   O15   S    
C9    C14   S    
C29   C30   S    
C31   C32   S    
C4    O11   A    
C23   C34   S    
C30   H20   S    
C16   H4    S    
C10   C12   S    
C33   H31   S    
C22   H10   S    
C3    C8    S    
C10   H29   S    
C2    C5    S    
Cu2   O12   S    
C18   H6    S    
C12   H12   S    
C24   N1    S    
Cu1   O1    S    
C31   H26   S    
Cu1   O11   S    
C28   O8    D    
C2    H27   S    
C26   H17   S    
C14   C34   T    
C11   H30   S    
C17   H32   S    
C6    C7    S    
C5    C18   S    
C28   H19   S    
C1    O10   A    
C26   O6    D    
C8    O14   A    
C23   C32   S    
C19   O2    D    
C25   H13   S    
C32   H23   S    
C32   C33   S    
C11   C13   S    
C2    C37   D    
C37   H28   S    
Cu2   O16   S    
C8    O13   A    
C17   H2    S    
C20   H8    S    
Cu2   O10   S    
C7    C20   S    
C30   H22   S    
C21   O4    D    
C13   C27   S    
C22   N2    S    
C15   C33   S    
Cu1   N2    S    
