data_mof_unit_64653.cif
_audit_creation_date              2012-12-10T17:35:54-0500
_audit_creation_method            fapswitch 2.2
_symmetry_space_group_name_H-M    P1
_symmetry_Int_Tables_number       1
_space_group_crystal_system       triclinic
_cell_length_a                    24.392014
_cell_length_b                    24.392015
_cell_length_c                    27.657191
_cell_angle_alpha                 89.999694
_cell_angle_beta                  89.999579
_cell_angle_gamma                 89.999243
_cell_volume                      16455.2091982

loop_
_atom_site_label
_atom_site_type_symbol
_atom_type_description
_atom_site_fract_x
_atom_site_fract_y
_atom_site_fract_z
_atom_type_partial_charge
C1    C     C_1   1.000000 0.500001 0.569104 -0.147514
C2    C     C_1   1.000000 0.499999 0.474479 -0.003174
C3    C     C_R   0.235172 0.316535 0.780335 0.111920
C4    C     C_R   0.316369 0.764995 0.219449 0.111918
C5    C     C_R   0.683590 0.235046 0.780495 0.111933
C6    C     C_R   0.235022 0.316387 0.219472 0.111926
C7    C     C_R   0.764547 0.683181 0.779960 0.111938
C8    C     C_R   0.183614 0.264976 0.280528 0.111918
C9    C     C_R   0.816818 0.735454 0.720041 0.111928
C10   C     C_R   0.264994 0.816368 0.280550 0.111920
C11   C     C_R   0.735047 0.183590 0.719506 0.111942
C12   C     C_R   0.765066 0.683704 0.219355 0.111909
C13   C     C_1   0.500000 1.000000 0.525521 -0.003160
C14   C     C_R   0.183464 0.264829 0.719665 0.111930
C15   C     C_R   0.735019 0.183616 0.280536 0.111913
C16   C     C_R   0.316390 0.764972 0.780523 0.111941
C17   C     C_R   0.235026 0.683609 0.780524 0.111932
C18   C     C_R   0.816383 0.264980 0.280536 0.111915
C19   C     C_R   0.264828 0.183465 0.719665 0.111920
C20   C     C_R   0.683703 0.765068 0.219355 0.111918
C21   C     C_R   0.816410 0.264954 0.719505 0.111933
C22   C     C_R   0.183631 0.735004 0.280551 0.111918
C23   C     C_R   0.735453 0.816819 0.720040 0.111938
C24   C     C_1   0.500000 0.000000 0.474479 -0.003174
C25   C     C_R   0.264977 0.183613 0.280528 0.111926
C26   C     C_R   0.729647 0.770353 0.750000 0.062491
C27   C     C_R   0.270353 0.229647 0.250000 0.062515
C28   C     C_R   0.770352 0.270353 0.750000 0.062523
C29   C     C_R   0.229647 0.729647 0.250000 0.062522
C30   C     C_R   0.270353 0.229647 0.750000 0.062507
C31   C     C_R   0.729647 0.770353 0.250000 0.062519
C32   C     C_R   0.229647 0.729647 0.750000 0.062509
C33   C     C_R   0.770353 0.270353 0.250000 0.062518
C34   C     C_R   0.729647 0.229647 0.250000 0.062518
C35   C     C_1   0.500000 0.000001 0.025521 -0.003174
C36   C     C_R   0.270353 0.770352 0.750000 0.062509
C37   C     C_R   0.770353 0.729647 0.250000 0.062519
C38   C     C_R   0.229647 0.270353 0.750000 0.062507
C39   C     C_R   0.270353 0.770353 0.250000 0.062522
C40   C     C_R   0.729648 0.229647 0.750000 0.062523
C41   C     C_R   0.229647 0.270353 0.250000 0.062515
C42   C     C_R   0.770353 0.729646 0.750000 0.062491
C43   C     C_R   0.677772 0.718216 0.809585 -0.214614
C44   C     C_R   0.321363 0.280919 0.189269 -0.214612
C45   C     C_R   0.719034 0.321411 0.810664 -0.214671
C46   C     C_1   0.500000 0.999999 0.974479 -0.003160
C47   C     C_R   0.280883 0.678673 0.189224 -0.214621
C48   C     C_R   0.321663 0.281215 0.810341 -0.214627
C49   C     C_R   0.780738 0.821182 0.310966 -0.214599
C50   C     C_R   0.178628 0.780927 0.689278 -0.214664
C51   C     C_R   0.719089 0.321358 0.189258 -0.214611
C52   C     C_R   0.678644 0.280913 0.189259 -0.214618
C53   C     C_R   0.219076 0.821373 0.689278 -0.214644
C54   C     C_R   0.821184 0.780735 0.310966 -0.214596
C55   C     C_R   0.281217 0.321661 0.810340 -0.214626
C56   C     C_R   0.321329 0.719119 0.189224 -0.214614
C57   C     C_1   1.000000 0.500000 0.025521 -0.003174
C58   C     C_R   0.678587 0.280964 0.810664 -0.214651
C59   C     C_R   0.280916 0.321366 0.189268 -0.214609
C60   C     C_R   0.718218 0.677770 0.809585 -0.214615
C61   C     C_R   0.178637 0.219081 0.310731 -0.214612
C62   C     C_R   0.822228 0.781784 0.690415 -0.214614
C63   C     C_R   0.219117 0.821327 0.310775 -0.214621
C64   C     C_R   0.780966 0.178589 0.689336 -0.214671
C65   C     C_R   0.719262 0.678818 0.189034 -0.214599
C66   C     C_R   0.178337 0.218785 0.689659 -0.214627
C67   C     C_R   0.780911 0.178642 0.310741 -0.214611
C68   C     C_1   0.000000 0.500000 0.974479 -0.003160
C69   C     C_R   0.321372 0.719073 0.810721 -0.214664
C70   C     C_R   0.280924 0.678626 0.810722 -0.214644
C71   C     C_R   0.821356 0.219087 0.310741 -0.214618
C72   C     C_R   0.218783 0.178339 0.689660 -0.214626
C73   C     C_R   0.678815 0.719265 0.189033 -0.214597
C74   C     C_R   0.821413 0.219036 0.689336 -0.214651
C75   C     C_R   0.178671 0.780880 0.310776 -0.214614
C76   C     C_R   0.781782 0.822230 0.690415 -0.214615
C77   C     C_R   0.219083 0.178634 0.310731 -0.214609
C78   C     C_R   1.000000 0.500000 0.879018 0.816905
C79   C     C_R   1.000000 0.500000 0.120982 0.816880
C80   C     C_R   0.500000 1.000000 0.879018 0.816905
C81   C     C_1   1.000000 0.499998 0.430895 -0.147548
C82   C     C_R   0.500000 0.000000 0.120982 0.816880
C83   C     C_R   0.500000 0.000000 0.379018 0.816880
C84   C     C_R   0.500000 0.000000 0.620982 0.816905
C85   C     C_R   1.000000 0.500000 0.379018 0.816880
C86   C     C_R   0.000000 0.500000 0.620982 0.816905
C87   C     C_R   0.106039 0.606039 0.750000 0.821423
C88   C     C_R   0.893962 0.393961 0.250000 0.821470
C89   C     C_R   0.606038 0.893962 0.750000 0.821457
C90   C     C_R   0.393961 0.106039 0.250000 0.821460
C91   C     C_R   0.893960 0.393960 0.750000 0.821418
C92   C     C_1   0.500000 0.000000 0.569104 -0.147514
C93   C     C_R   0.106039 0.606039 0.250000 0.821465
C94   C     C_R   0.393962 0.106038 0.750000 0.821459
C95   C     C_R   0.606039 0.893961 0.250000 0.821463
C96   C     C_R   0.106039 0.393960 0.250000 0.821461
C97   C     C_R   0.893962 0.606038 0.750000 0.821457
C98   C     C_R   0.606038 0.106039 0.250000 0.821470
C99   C     C_R   0.393961 0.893961 0.750000 0.821423
C100  C     C_R   0.893961 0.606039 0.250000 0.821463
C101  C     C_R   0.106038 0.393962 0.750000 0.821459
C102  C     C_R   0.393960 0.893961 0.250000 0.821465
C103  C     C_1   0.500000 1.000000 0.430895 -0.147548
C104  C     C_R   0.606040 0.106039 0.750000 0.821418
C105  C     C_R   0.694812 0.857085 0.720236 -0.253756
C106  C     C_R   0.305610 0.143340 0.280320 -0.253773
C107  C     C_R   0.856682 0.305588 0.719713 -0.253812
C108  C     C_R   0.143357 0.694372 0.280342 -0.253765
C109  C     C_R   0.305463 0.143194 0.719869 -0.253773
C110  C     C_R   0.643428 0.805699 0.219565 -0.253766
C111  C     C_R   0.194393 0.643336 0.780315 -0.253805
C112  C     C_R   0.856657 0.305613 0.280330 -0.253772
C113  C     C_R   0.694386 0.143343 0.280330 -0.253758
C114  C     C_1   0.500000 0.000002 0.069104 -0.147548
C115  C     C_R   0.356664 0.805605 0.780315 -0.253840
C116  C     C_R   0.805697 0.643429 0.219565 -0.253765
C117  C     C_R   0.143193 0.305464 0.719869 -0.253776
C118  C     C_R   0.305626 0.856643 0.280342 -0.253780
C119  C     C_R   0.694414 0.143317 0.719713 -0.253847
C120  C     C_R   0.143341 0.305609 0.280320 -0.253773
C121  C     C_R   0.857084 0.694813 0.720236 -0.253753
C122  C     C_R   0.194389 0.356660 0.219680 -0.253773
C123  C     C_R   0.805188 0.642915 0.779764 -0.253756
C124  C     C_R   0.356643 0.805628 0.219657 -0.253766
C125  C     C_1   0.500000 0.999998 0.930895 -0.147514
C126  C     C_R   0.643317 0.194412 0.780287 -0.253812
C127  C     C_R   0.856572 0.694301 0.280435 -0.253766
C128  C     C_R   0.194537 0.356806 0.780131 -0.253773
C129  C     C_R   0.643343 0.194387 0.219670 -0.253772
C130  C     C_R   0.305607 0.856664 0.719685 -0.253805
C131  C     C_R   0.143336 0.694395 0.719685 -0.253840
C132  C     C_R   0.805614 0.356657 0.219669 -0.253758
C133  C     C_R   0.356807 0.194536 0.780131 -0.253776
C134  C     C_R   0.694303 0.856571 0.280435 -0.253765
C135  C     C_R   0.805586 0.356683 0.780287 -0.253847
C136  C     C_1   1.000000 0.500000 0.069104 -0.147548
C137  C     C_R   0.194374 0.643357 0.219658 -0.253780
C138  C     C_R   0.642916 0.805187 0.779764 -0.253753
C139  C     C_R   0.356659 0.194391 0.219680 -0.253773
C140  C     C_R   0.648521 0.851479 0.750000 -0.047227
C141  C     C_R   0.351477 0.148523 0.250000 -0.047305
C142  C     C_R   0.851476 0.351477 0.750000 -0.047293
C143  C     C_R   0.148523 0.648522 0.250000 -0.047309
C144  C     C_R   0.351478 0.148522 0.750000 -0.047268
C145  C     C_R   0.648523 0.851477 0.250000 -0.047307
C146  C     C_R   0.148522 0.648523 0.750000 -0.047281
C147  C     C_1   0.000000 0.500000 0.930895 -0.147514
C148  C     C_R   0.851478 0.351477 0.250000 -0.047287
C149  C     C_R   0.648522 0.148523 0.250000 -0.047287
C150  C     C_R   0.351478 0.851477 0.750000 -0.047281
C151  C     C_R   0.851477 0.648523 0.250000 -0.047307
C152  C     C_R   0.148522 0.351478 0.750000 -0.047268
C153  C     C_R   0.351477 0.851478 0.250000 -0.047309
C154  C     C_R   0.648524 0.148523 0.750000 -0.047293
C155  C     C_R   0.148523 0.351477 0.250000 -0.047305
C156  C     C_R   0.851479 0.648521 0.750000 -0.047227
C157  C     C_R   0.683182 0.764546 0.779959 0.111928
C158  C     C_1   1.000000 0.500001 0.525521 -0.003160
C159  C     C_R   0.316386 0.235023 0.219472 0.111918
C160  C     C_R   0.764953 0.316410 0.780494 0.111942
C161  C     C_R   0.235006 0.683632 0.219450 0.111920
C162  C     C_R   0.316536 0.235171 0.780335 0.111930
C163  C     C_R   0.734934 0.816296 0.280645 0.111909
C164  C     C_R   0.183610 0.735028 0.719477 0.111941
C165  C     C_R   0.764981 0.316384 0.219464 0.111913
C166  C     C_R   0.683616 0.235020 0.219464 0.111915
C167  C     C_R   0.264974 0.816391 0.719476 0.111932
C168  C     C_R   0.816297 0.734932 0.280645 0.111918
H1    H     H_    0.642275 0.713278 0.832738 0.147268
H2    H     H_    0.214475 0.856536 0.665677 0.147283
H3    H     H_    0.856273 0.785263 0.334664 0.147323
H4    H     H_    0.285932 0.356936 0.833791 0.147288
H5    H     H_    0.356474 0.714536 0.165602 0.147316
H6    H     H_    0.643409 0.285580 0.834243 0.147289
H7    H     H_    0.285515 0.356525 0.165663 0.147307
H8    H     H_    0.713281 0.642272 0.832738 0.147265
H9    H     H_    0.143479 0.214481 0.334337 0.147309
H10   H     H_    0.857725 0.786722 0.667262 0.147268
H11   H     H_    0.214533 0.856472 0.334398 0.147310
H12   H     H_    0.356521 0.285518 0.165663 0.147309
H13   H     H_    0.785584 0.143411 0.665757 0.147278
H14   H     H_    0.714734 0.643731 0.165336 0.147325
H15   H     H_    0.143061 0.214071 0.666209 0.147284
H16   H     H_    0.785504 0.143485 0.334347 0.147317
H17   H     H_    0.356533 0.714471 0.834323 0.147272
H18   H     H_    0.285525 0.643464 0.834323 0.147283
H19   H     H_    0.856513 0.214493 0.334346 0.147312
H20   H     H_    0.214068 0.143064 0.666209 0.147288
H21   H     H_    0.643727 0.714737 0.165336 0.147323
H22   H     H_    0.856591 0.214419 0.665757 0.147289
H23   H     H_    0.714416 0.356589 0.834243 0.147278
H24   H     H_    0.143526 0.785464 0.334398 0.147316
H25   H     H_    0.786719 0.857728 0.667262 0.147265
H26   H     H_    0.214485 0.143475 0.334337 0.147307
H27   H     H_    0.699307 0.892793 0.697222 0.165656
H28   H     H_    0.301457 0.107970 0.303779 0.165731
H29   H     H_    0.892072 0.301418 0.696280 0.165716
H30   H     H_    0.108001 0.698510 0.303820 0.165738
H31   H     H_    0.301190 0.107708 0.696560 0.165702
H32   H     H_    0.608129 0.801616 0.196014 0.165743
H33   H     H_    0.198549 0.607963 0.803771 0.165712
H34   H     H_    0.285467 0.643528 0.165602 0.147310
H35   H     H_    0.892022 0.301462 0.303798 0.165721
H36   H     H_    0.698535 0.107977 0.303799 0.165730
H37   H     H_    0.392037 0.801447 0.803771 0.165690
H38   H     H_    0.801613 0.608130 0.196013 0.165741
H39   H     H_    0.107706 0.301192 0.696560 0.165701
H40   H     H_    0.301487 0.891999 0.303819 0.165730
H41   H     H_    0.698585 0.107929 0.696281 0.165695
H42   H     H_    0.107972 0.301455 0.303779 0.165730
H43   H     H_    0.892792 0.699310 0.697222 0.165657
H44   H     H_    0.198543 0.392030 0.196221 0.165731
H45   H     H_    0.356939 0.285929 0.833791 0.147284
H46   H     H_    0.800693 0.607206 0.802778 0.165656
H47   H     H_    0.391999 0.801489 0.196180 0.165738
H48   H     H_    0.607928 0.198582 0.803720 0.165716
H49   H     H_    0.891871 0.698384 0.303986 0.165743
H50   H     H_    0.198810 0.392292 0.803440 0.165702
H51   H     H_    0.607978 0.198538 0.196202 0.165721
H52   H     H_    0.301451 0.892037 0.696229 0.165712
H53   H     H_    0.107963 0.698553 0.696229 0.165690
H54   H     H_    0.801465 0.392023 0.196201 0.165730
H55   H     H_    0.392294 0.198808 0.803440 0.165701
H56   H     H_    0.785266 0.856269 0.334664 0.147325
H57   H     H_    0.698387 0.891869 0.303986 0.165741
H58   H     H_    0.801415 0.392071 0.803719 0.165695
H59   H     H_    0.198513 0.608001 0.196181 0.165729
H60   H     H_    0.607208 0.800690 0.802778 0.165657
H61   H     H_    0.392028 0.198545 0.196221 0.165730
H62   H     H_    0.143467 0.785529 0.665677 0.147272
H63   H     H_    0.714496 0.356515 0.165653 0.147317
H64   H     H_    0.643487 0.285507 0.165653 0.147312
O1    O     O_3   0.000000 0.500000 0.750000 -0.477395
O2    O     O_R   0.954240 0.500000 0.143870 -0.636093
O3    O     O_R   0.500000 0.954240 0.856130 -0.636029
O4    O     O_R   0.500000 0.045760 0.143870 -0.636086
O5    O     O_R   0.454240 0.000000 0.356130 -0.636088
O6    O     O_R   0.545760 1.000000 0.643870 -0.636024
O7    O     O_R   0.000000 0.545760 0.356130 -0.636095
O8    O     O_R   1.000000 0.454240 0.643870 -0.636074
O9    O     O_R   0.545760 0.000000 0.356130 -0.636093
O10   O     O_R   0.454240 1.000000 0.643870 -0.636079
O11   O     O_R   0.000000 0.454240 0.356130 -0.636086
O12   O     O_3   0.000000 0.500000 0.250000 -0.477392
O13   O     O_R   0.000000 0.545760 0.643870 -0.636029
O14   O     O_R   0.110440 0.564520 0.777740 -0.648496
O15   O     O_R   0.889560 0.435480 0.222260 -0.648477
O16   O     O_R   0.564520 0.889560 0.777740 -0.648480
O17   O     O_R   0.435480 0.110440 0.222260 -0.648483
O18   O     O_R   0.889560 0.435480 0.777740 -0.648531
O19   O     O_R   0.110440 0.564520 0.222260 -0.648487
O20   O     O_R   0.435480 0.110440 0.777740 -0.648490
O21   O     O_R   0.564520 0.889560 0.222260 -0.648482
O22   O     O_R   0.110440 0.435480 0.222260 -0.648482
O23   O     O_3   0.500000 1.000000 0.750000 -0.477395
O24   O     O_R   0.889560 0.564520 0.777740 -0.648483
O25   O     O_R   0.564520 0.110440 0.222260 -0.648490
O26   O     O_R   0.435480 0.889560 0.777740 -0.648535
O27   O     O_R   0.889560 0.564520 0.222260 -0.648483
O28   O     O_R   0.110440 0.435480 0.777740 -0.648486
O29   O     O_R   0.435480 0.889560 0.222260 -0.648474
O30   O     O_R   0.564520 0.110440 0.777740 -0.648493
O31   O     O_R   0.610440 0.064520 0.277740 -0.648477
O32   O     O_R   0.389560 0.935480 0.722260 -0.648496
O33   O     O_R   0.064520 0.389560 0.277740 -0.648483
O34   O     O_3   0.500000 1.000000 0.250000 -0.477392
O35   O     O_R   0.935480 0.610440 0.722260 -0.648480
O36   O     O_R   0.389560 0.935480 0.277740 -0.648487
O37   O     O_R   0.610440 0.064520 0.722260 -0.648531
O38   O     O_R   0.935480 0.610440 0.277740 -0.648482
O39   O     O_R   0.064520 0.389560 0.722260 -0.648489
O40   O     O_R   0.610440 0.935480 0.722260 -0.648483
O41   O     O_R   0.389560 0.064520 0.277740 -0.648482
O42   O     O_R   0.064520 0.610440 0.722260 -0.648535
O43   O     O_R   0.935480 0.389560 0.277740 -0.648490
O44   O     O_R   0.389560 0.064520 0.722260 -0.648486
O45   O     O_R   0.954240 0.500000 0.856130 -0.636024
O46   O     O_R   0.610440 0.935480 0.277740 -0.648483
O47   O     O_R   0.935480 0.389560 0.722260 -0.648493
O48   O     O_R   0.064520 0.610440 0.277740 -0.648473
O49   O     O_R   0.045760 0.500000 0.143870 -0.636088
O50   O     O_R   0.500000 0.045760 0.856130 -0.636074
O51   O     O_R   0.500000 0.954240 0.143870 -0.636095
O52   O     O_R   0.045760 0.500000 0.856130 -0.636079
Zn1   Zn    Zn3+2 0.000000 0.565500 0.710070 0.969570
Zn2   Zn    Zn3+2 0.500000 0.934500 0.789930 0.969570
Zn3   Zn    Zn3+2 0.065500 0.500000 0.210070 0.969571
Zn4   Zn    Zn3+2 0.934500 0.500000 0.789930 0.969572
Zn5   Zn    Zn3+2 0.500000 0.934500 0.210070 0.969575
Zn6   Zn    Zn3+2 0.500000 0.065500 0.789930 0.969561
Zn7   Zn    Zn3+2 0.934500 0.500000 0.210070 0.969575
Zn8   Zn    Zn3+2 0.065500 0.500000 0.789930 0.969559
Zn9   Zn    Zn3+2 0.000000 0.434500 0.289930 0.969571
Zn10  Zn    Zn3+2 0.565500 0.000000 0.710070 0.969572
Zn11  Zn    Zn3+2 0.434500 1.000000 0.289930 0.969571
Zn12  Zn    Zn3+2 0.000000 0.434500 0.710070 0.969561
Zn13  Zn    Zn3+2 0.000000 0.565500 0.289930 0.969575
Zn14  Zn    Zn3+2 0.434500 0.000000 0.710070 0.969559
Zn15  Zn    Zn3+2 0.565500 1.000000 0.289930 0.969575
Zn16  Zn    Zn3+2 0.500000 0.065500 0.210070 0.969571

loop_
_geom_bond_atom_site_label_1
_geom_bond_atom_site_label_2
_ccdc_geom_bond_type
C83   O5    A    
C61   H9    S    
C135  H58   S    
C69   H17   S    
C10   C63   A    
C22   C29   A    
O23   Zn6   S    
C48   C162  A    
C28   C40   A    
C30   C38   A    
C118  C153  A    
C7    C42   A    
C104  O37   A    
O5    Zn11  S    
C74   H22   S    
C130  C167  A    
C45   H23   S    
C135  C142  A    
C66   C72   A    
C5    C126  A    
C9    C121  A    
C87   O42   A    
C110  C145  A    
C95   O21   A    
C91   C142  S    
C139  C159  A    
C4    C56   A    
C58   H6    S    
C45   C160  A    
O19   Zn3   S    
C37   C168  A    
C123  C156  A    
C120  H42   S    
O45   Zn4   S    
C50   C53   A    
C50   C164  A    
C51   C52   A    
C7    C123  A    
C106  H28   S    
C99   O26   A    
C110  H32   S    
C120  C155  A    
C31   C37   A    
O34   Zn11  S    
C29   C161  A    
C14   C38   A    
C88   C148  S    
O1    Zn8   S    
O2    Zn7   S    
C8    C41   A    
C130  H52   S    
C102  C153  S    
C138  C140  A    
C53   H2    S    
C97   O24   A    
C126  C154  A    
C21   C28   A    
C49   H56   S    
C60   H8    S    
C122  H44   S    
C109  H31   S    
C30   C162  A    
C16   C115  A    
C128  H50   S    
C55   H4    S    
C18   C71   A    
C48   H45   S    
C79   O2    A    
C71   H19   S    
C94   O20   A    
C79   O49   A    
C94   C144  S    
C96   O22   A    
C105  C140  A    
C137  C161  A    
O6    Zn10  S    
C131  C164  A    
C20   C73   A    
C109  C144  A    
C69   C70   A    
C90   C141  S    
O30   Zn6   S    
O52   Zn8   S    
C123  H46   S    
C44   C159  A    
C2    C81   T    
C19   C30   A    
C116  H38   S    
O7    Zn13  S    
C91   O18   A    
O28   Zn8   S    
C121  C156  A    
C122  C155  A    
C23   C76   A    
C111  H33   S    
C79   C136  S    
O23   Zn2   S    
O14   Zn8   S    
C83   C103  S    
C5    C58   A    
C131  C146  A    
C32   C36   A    
O32   Zn14  S    
C90   O41   A    
O4    Zn16  S    
O1    Zn4   S    
C44   C59   A    
C27   C159  A    
C23   C105  A    
C28   C160  A    
C134  C163  A    
C4    C124  A    
C97   C156  S    
O12   Zn7   S    
C127  C151  A    
C3    C55   A    
C128  C152  A    
C61   C77   A    
C130  C150  A    
C15   C113  A    
C89   C140  S    
C100  O27   A    
C124  C153  A    
O23   Zn10  S    
C17   C111  A    
C65   H14   S    
C19   C109  A    
C51   H63   S    
C134  H57   S    
C132  C165  A    
C111  C146  A    
C3    C128  A    
C47   H34   S    
C129  C149  A    
O25   Zn16  S    
C86   O8    A    
C14   C117  A    
C15   C67   A    
O33   Zn9   S    
C139  H61   S    
C91   O47   A    
C126  H48   S    
C20   C110  A    
C86   O13   A    
C51   C165  A    
C57   C68   S    
C26   C42   A    
C1    C86   S    
C17   C32   A    
C133  C144  A    
O34   Zn15  S    
C6    C59   A    
C33   C165  A    
C54   C168  A    
C43   C157  A    
O44   Zn14  S    
O1    Zn12  S    
C24   C103  T    
C137  H59   S    
C16   C36   A    
C139  C141  A    
C63   C75   A    
C32   C164  A    
C50   H62   S    
O20   Zn6   S    
C11   C40   A    
C18   C33   A    
C49   C163  A    
C70   H18   S    
O17   Zn16  S    
O35   Zn1   S    
O15   Zn7   S    
C84   C92   S    
C116  C151  A    
C81   C85   S    
O40   Zn10  S    
C47   C56   A    
C12   C116  A    
C124  H47   S    
C48   C55   A    
C66   H15   S    
C80   O50   A    
C82   O4    A    
C89   O40   A    
C46   C125  T    
C95   C145  S    
C133  C162  A    
C44   H12   S    
C43   H1    S    
C100  O38   A    
O22   Zn3   S    
C101  O39   A    
C104  O30   A    
C132  H54   S    
C1    C158  T    
C87   C146  S    
C88   O43   A    
C18   C112  A    
C94   O44   A    
O12   Zn9   S    
O3    Zn2   S    
O24   Zn4   S    
C105  H27   S    
O41   Zn11  S    
C23   C26   A    
C12   C37   A    
O43   Zn9   S    
O1    Zn1   S    
C127  C168  A    
O29   Zn5   S    
O31   Zn15  S    
C15   C34   A    
C95   O46   A    
O48   Zn13  S    
C62   C76   A    
C90   O17   A    
C25   C106  A    
C99   C150  S    
C45   C58   A    
C119  H41   S    
C107  H29   S    
O13   Zn1   S    
C36   C167  A    
C10   C39   A    
C77   H26   S    
O46   Zn15  S    
C2    C158  S    
C102  O29   A    
C131  H53   S    
O23   Zn14  S    
C78   O52   A    
O37   Zn10  S    
C78   C147  S    
O38   Zn13  S    
C129  C166  A    
C98   O25   A    
C99   O32   A    
C119  C154  A    
C13   C92   T    
C25   C27   A    
C7    C60   A    
C127  H49   S    
C106  C141  A    
C96   O33   A    
C134  C145  A    
C135  C160  A    
C84   O6    A    
C78   O45   A    
C117  H39   S    
C12   C65   A    
C83   O9    A    
C101  C152  S    
C56   H5    S    
C129  H51   S    
O16   Zn2   S    
C22   C108  A    
C133  H55   S    
C67   C71   A    
C108  H30   S    
C47   C161  A    
C5    C40   A    
C64   C74   A    
C112  H35   S    
C104  C154  S    
C34   C166  A    
C35   C46   S    
C108  C143  A    
C73   H21   S    
C49   C54   A    
C98   C149  S    
O49   Zn3   S    
C11   C119  A    
C63   H11   S    
O9    Zn15  S    
O51   Zn5   S    
C9    C42   A    
C26   C157  A    
C25   C77   A    
C59   H7    S    
C96   C155  S    
C80   C125  S    
O47   Zn12  S    
O8    Zn12  S    
C101  O28   A    
C85   O11   A    
C65   C73   A    
C35   C114  T    
C113  H36   S    
C72   H20   S    
C93   O48   A    
C52   C166  A    
C98   O31   A    
C53   C167  A    
C3    C38   A    
C6    C41   A    
C57   C136  T    
C117  C152  A    
C93   C143  S    
C8    C61   A    
C137  C143  A    
C17   C70   A    
C102  O36   A    
C80   O3    A    
C19   C72   A    
C22   C75   A    
C82   O51   A    
C97   O35   A    
O12   Zn13  S    
C100  C151  S    
C31   C163  A    
O34   Zn16  S    
C9    C62   A    
C132  C148  A    
C113  C149  A    
C82   C114  S    
C11   C64   A    
C67   H16   S    
C52   H64   S    
C21   C74   A    
C112  C148  A    
C13   C24   S    
C85   O7    A    
C118  H40   S    
C10   C118  A    
O50   Zn6   S    
C27   C41   A    
C4    C39   A    
O27   Zn7   S    
C29   C39   A    
C33   C34   A    
C14   C66   A    
O42   Zn1   S    
C107  C142  A    
C138  H60   S    
C21   C107  A    
C68   C147  T    
C43   C60   A    
C64   H13   S    
C115  H37   S    
C6    C122  A    
C8    C120  A    
C87   O14   A    
O10   Zn14  S    
C54   H3    S    
O21   Zn5   S    
C16   C69   A    
C62   H10   S    
O11   Zn9   S    
C89   O16   A    
O26   Zn2   S    
O36   Zn11  S    
C75   H24   S    
C88   O15   A    
C138  C157  A    
C115  C150  A    
O34   Zn5   S    
C121  H43   S    
O39   Zn12  S    
C76   H25   S    
O12   Zn3   S    
O18   Zn4   S    
C84   O10   A    
C93   O19   A    
C20   C31   A    
