data_mof_unit_20603.cif
_audit_creation_date              2012-12-10T17:00:52-0500
_audit_creation_method            fapswitch 2.2
_symmetry_space_group_name_H-M    P1
_symmetry_Int_Tables_number       1
_space_group_crystal_system       triclinic
_cell_length_a                    10.782462
_cell_length_b                    10.687036
_cell_length_c                    10.02849
_cell_angle_alpha                 89.372084
_cell_angle_beta                  104.271954
_cell_angle_gamma                 90.213739
_cell_volume                      1119.87458412

loop_
_atom_site_label
_atom_site_type_symbol
_atom_type_description
_atom_site_fract_x
_atom_site_fract_y
_atom_site_fract_z
_atom_type_partial_charge
C1    C     C_R   0.508347 0.262849 0.502921 0.918751
C2    C     C_2   0.120091 0.517864 0.408258 0.266917
C3    C     C_2   0.067417 0.546485 0.511516 -0.221019
C4    C     C_2   0.877890 0.519387 0.591021 -0.404095
C5    C     C_2   0.931340 0.552641 0.489794 -0.099281
C6    C     C_2   0.552880 0.932425 0.417812 -0.263719
C7    C     C_3   0.361497 0.345662 0.846680 0.164424
C8    C     C_3   0.254007 0.302044 0.911177 -0.386757
C9    C     C_3   0.223433 0.163821 0.883669 -0.982424
C10   C     C_3   0.374911 0.910034 0.662163 0.054190
C11   C     C_3   0.261078 0.826195 0.668480 -0.316722
C12   C     C_2   0.482036 0.871325 0.490412 0.336979
C13   C     C_3   0.259052 0.793953 0.816497 -0.895217
C14   C     C_3   0.781388 0.651852 0.001720 0.046441
C15   C     C_3   0.809408 0.787420 0.047250 -0.379228
C16   C     C_3   0.938561 0.799396 0.151298 -0.878990
C17   C     C_2   0.545750 0.066965 0.404648 -0.114078
C18   C     C_2   0.535338 0.132503 0.513480 -0.270306
C19   C     C_2   0.572755 0.573638 0.943383 0.591755
C20   C     C_2   0.549097 0.589275 0.086127 -0.219062
C21   C     C_R   0.258420 0.502717 0.442025 0.791137
C22   C     C_R   0.494490 0.737769 0.497915 0.808153
C23   C     C_R   0.741024 0.504316 0.557744 0.940909
H1    H     H_    0.874143 0.573069 0.386449 0.218158
H2    H     H_    0.328608 0.332248 0.734351 0.199614
H3    H     H_    0.282574 0.316744 0.024173 0.231842
H4    H     H_    0.166541 0.358289 0.867671 0.228318
H5    H     H_    0.191762 0.147058 0.771235 0.266950
H6    H     H_    0.145345 0.135047 0.931886 0.278273
H7    H     H_    0.309222 0.105907 0.928469 0.258489
H8    H     H_    0.099580 0.477838 0.215030 0.343945
H9    H     H_    0.360227 0.002231 0.705891 0.150559
H10   H     H_    0.466087 0.873125 0.729046 0.153793
H11   H     H_    0.170573 0.874647 0.617150 0.217793
H12   H     H_    0.579473 0.675218 0.141064 0.151286
H13   H     H_    0.266016 0.738492 0.612307 0.236767
H14   H     H_    0.348412 0.744778 0.869418 0.285020
H15   H     H_    0.176504 0.731599 0.816812 0.261299
H16   H     H_    0.249262 0.880210 0.873631 0.254606
H17   H     H_    0.857498 0.620200 0.952627 0.179672
H18   H     H_    0.787999 0.589190 0.092926 0.147977
H19   H     H_    0.809902 0.846985 0.955791 0.231415
H20   H     H_    0.733134 0.822197 0.094219 0.206402
H21   H     H_    0.938082 0.745781 0.246558 0.279226
H22   H     H_    0.957544 0.899273 0.178485 0.256076
H23   H     H_    0.493691 0.414479 0.104010 0.186877
H24   H     H_    0.016547 0.764118 0.107182 0.273559
H25   H     H_    0.124205 0.556095 0.616812 0.165015
H26   H     H_    0.934633 0.499731 0.694764 0.151502
H27   H     H_    0.618992 0.883742 0.370138 0.124936
H28   H     H_    0.546558 0.110606 0.306508 0.161895
H29   H     H_    0.546735 0.088545 0.614026 0.147839
H30   H     H_    0.447891 0.286834 0.888574 0.101355
N1    N     N_2   0.501330 0.501330 0.852460 0.027321
N2    N     N_2   0.501370 0.501360 0.148130 -0.184412
O1    O     O_R   0.499980 0.319060 0.613030 -0.656248
O2    O     O_3   0.044506 0.502500 0.276064 -0.796925
O3    O     O_3   0.378166 0.930331 0.523253 -0.639776
O4    O     O_3   0.663499 0.646229 0.901008 -0.650698
O5    O     O_R   0.500020 0.319100 0.386910 -0.614298
O6    O     O_R   0.317800 0.500000 0.570840 -0.627272
O7    O     O_R   0.317840 0.500040 0.344720 -0.598646
O8    O     O_R   0.499980 0.680900 0.613090 -0.588843
O9    O     O_R   0.500020 0.680940 0.386970 -0.623863
O10   O     O_R   0.682160 0.499960 0.655280 -0.587610
O11   O     O_R   0.682200 0.500000 0.429160 -0.615619
O12   O     O_3   0.386784 0.473029 0.877210 -0.610548
Zn1   Zn    Zn3+2 0.499970 0.499970 0.650990 0.986085
Zn2   Zn    Zn3+2 0.500030 0.500030 0.349010 0.942132

loop_
_geom_bond_atom_site_label_1
_geom_bond_atom_site_label_2
_ccdc_geom_bond_type
H23   N2    S    
C16   H22   S    
C10   H9    S    
C8    H3    S    
C16   H21   S    
C21   O6    A    
C19   C20   S    
C7    H2    S    
C9    H6    S    
C4    H26   S    
O10   Zn1   S    
C12   O3    S    
C17   H28   S    
C2    C21   S    
C2    C3    D    
C13   H15   S    
C2    O2    S    
C15   H20   S    
C7    C8    S    
O1    Zn1   S    
O9    Zn2   S    
C6    H27   S    
C14   O4    S    
C11   C13   S    
O6    Zn1   S    
H8    O2    S    
C21   O7    A    
N2    Zn2   S    
C5    H1    S    
O5    Zn2   S    
C14   H18   S    
C15   C16   S    
C9    H7    S    
C19   N1    D    
C11   H13   S    
C10   O3    S    
C1    O1    A    
C17   C18   D    
C10   H10   S    
O7    Zn2   S    
C20   N2    D    
C6    C12   D    
C23   O10   A    
C13   H16   S    
O11   Zn2   S    
N1    Zn1   S    
C10   C11   S    
C7    H30   S    
C18   H29   S    
C23   O11   A    
C12   C22   S    
C3    H25   S    
C16   H24   S    
C7    O12   S    
C1    O5    A    
C8    H4    S    
C6    C17   S    
C1    C18   S    
O8    Zn1   S    
C8    C9    S    
C14   H17   S    
N1    O12   S    
C22   O9    A    
C19   O4    S    
C4    C23   S    
C14   C15   S    
C20   H12   S    
C13   H14   S    
C9    H5    S    
C11   H11   S    
C22   O8    A    
C15   H19   S    
C4    C5    D    
C3    C5    S    
