data_mof_unit_22715.cif
_audit_creation_date              2012-12-10T16:44:44-0500
_audit_creation_method            fapswitch 2.2
_symmetry_space_group_name_H-M    P1
_symmetry_Int_Tables_number       1
_space_group_crystal_system       triclinic
_cell_length_a                    14.947565
_cell_length_b                    8.66927
_cell_length_c                    7.533076
_cell_angle_alpha                 103.590565
_cell_angle_beta                  93.994159
_cell_angle_gamma                 93.155514
_cell_volume                      943.961462334

loop_
_atom_site_label
_atom_site_type_symbol
_atom_type_description
_atom_site_fract_x
_atom_site_fract_y
_atom_site_fract_z
_atom_type_partial_charge
C1    C     C_R   0.497046 0.199780 0.452872 0.862274
C2    C     C_R   0.502954 0.800220 0.547128 0.862274
C3    C     C_R   0.037538 0.211735 0.412908 -0.212367
C4    C     C_R   0.962462 0.788265 0.587092 -0.212367
C5    C     C_2   0.495527 0.031105 0.427220 -0.340100
C6    C     C_2   0.504473 0.968895 0.572780 -0.340101
C7    C     C_R   0.329562 0.501342 0.502757 0.806220
C8    C     C_R   0.670438 0.498658 0.497243 0.806220
C9    C     C_R   0.817775 0.639683 0.536253 -0.285020
C10   C     C_R   0.182225 0.360317 0.463747 -0.285020
C11   C     C_R   0.766369 0.494800 0.490981 -0.089630
C12   C     C_R   0.233631 0.505200 0.509019 -0.089630
C13   C     C_R   0.806596 0.348840 0.449106 0.194499
C14   C     C_R   0.193404 0.651160 0.550894 0.194499
C15   C     C_R   0.900833 0.350507 0.451525 0.085786
C16   C     C_R   0.099167 0.649493 0.548475 0.085786
C17   C     C_R   0.952885 0.498263 0.497931 0.022886
C18   C     C_R   0.047115 0.501737 0.502069 0.022886
C19   C     C_R   0.910872 0.642735 0.540252 0.116763
C20   C     C_R   0.089127 0.357265 0.459748 0.116762
C21   C     C_R   0.944257 0.208196 0.407950 -0.191855
C22   C     C_R   0.055743 0.791804 0.592050 -0.191855
Cu1   Cu    Cu3+1 0.510010 0.517380 0.684380 0.995580
Cu2   Cu    Cu3+1 0.489990 0.482620 0.315620 0.995580
H1    H     H_    0.784851 0.750164 0.569538 0.147297
H2    H     H_    0.215149 0.249836 0.430462 0.147297
H3    H     H_    0.906554 0.093384 0.369674 0.184416
H4    H     H_    0.093446 0.906616 0.630326 0.184416
H5    H     H_    0.069383 0.100370 0.379548 0.146132
H6    H     H_    0.930617 0.899630 0.620452 0.146132
H7    H     H_    0.486897 0.957925 0.287733 0.206640
H8    H     H_    0.513103 0.042075 0.712267 0.206640
N1    N     N_2   0.474890 0.456420 0.038520 -0.233468
N2    N     N_2   0.525110 0.543580 0.961480 -0.233468
O1    O     O_R   0.506510 0.286130 0.619770 -0.568081
O2    O     O_R   0.493490 0.713870 0.380230 -0.568081
O3    O     O_R   0.489600 0.256770 0.308360 -0.595939
O4    O     O_R   0.510400 0.743230 0.691640 -0.595939
O5    O     O_R   0.378710 0.514640 0.655720 -0.595011
O6    O     O_R   0.621290 0.485360 0.344280 -0.595012
O7    O     O_R   0.361800 0.485290 0.344300 -0.575025
O8    O     O_R   0.638200 0.514710 0.655700 -0.575025
N3    N     N_2   0.752973 0.201373 0.405156 -0.437402
H9    H     H_    0.693732 0.201248 0.326350 0.270152
C23   C     C_3   0.740370 0.132403 0.559712 -0.672165
H10   H     H_    0.699750 0.208447 0.658603 0.254892
H11   H     H_    0.806212 0.118965 0.630316 0.226534
H12   H     H_    0.704480 0.012657 0.510732 0.238663
N4    N     N_2   0.247027 0.798627 0.594844 -0.437403
H13   H     H_    0.306268 0.798752 0.673650 0.270152
C24   C     C_3   0.259630 0.867597 0.440288 -0.672165
H14   H     H_    0.300250 0.791553 0.341397 0.254892
H15   H     H_    0.295520 0.987343 0.489268 0.238663
H16   H     H_    0.193788 0.881035 0.369684 0.226534
C25   C     C_2   0.389078 0.398025 0.950230 1.128200
O9    O     O_2   0.377305 0.260952 0.858810 -0.641016
O10   O     O_R   0.316592 0.493618 0.979765 -0.762349
H17   H     H_    0.258024 0.437379 0.914078 0.312497
C26   C     C_2   0.610922 0.601975 0.049770 1.128200
O11   O     O_2   0.622695 0.739048 0.141190 -0.641016
O12   O     O_R   0.683408 0.506382 0.020235 -0.762349
H18   H     H_    0.741976 0.562621 0.085922 0.312497

loop_
_geom_bond_atom_site_label_1
_geom_bond_atom_site_label_2
_ccdc_geom_bond_type
N1    C25   S    
C6    H8    S    
C25   O9    D    
C15   C17   A    
Cu1   O4    S    
C4    C22   A    
C2    O4    A    
C15   C21   A    
Cu1   O1    S    
Cu2   N1    S    
C1    C5    S    
C1    O3    A    
C9    C11   A    
C24   H16   S    
C10   H2    S    
N4    C24   S    
C25   O10   S    
Cu2   O3    S    
C21   H3    S    
C9    H1    S    
C26   O11   D    
N3    C23   S    
C22   H4    S    
C23   H10   S    
Cu2   O7    S    
C11   C13   A    
C3    C20   A    
O10   H17   S    
Cu2   O2    S    
Cu1   O8    S    
C10   C12   A    
C8    C11   S    
Cu1   O5    S    
C5    C6    D    
C16   C18   A    
C17   C19   A    
C8    O8    A    
N1    N2    D    
C18   C20   A    
C13   C15   A    
N3    H9    S    
N2    C26   S    
C14   C16   A    
C7    C12   S    
C26   O12   S    
C14   N4    S    
C3    C21   A    
O12   H18   S    
Cu1   Cu2   S    
C24   H14   S    
C12   C14   A    
C13   N3    S    
C8    O6    A    
C24   H15   S    
C1    O1    A    
C17   C18   A    
N4    H13   S    
C23   H11   S    
C2    O2    A    
C3    H5    S    
C7    O5    A    
Cu1   N2    S    
C16   C22   A    
C23   H12   S    
Cu2   O6    S    
C4    C19   A    
C9    C19   A    
C4    H6    S    
C2    C6    S    
C7    O7    A    
C10   C20   A    
C5    H7    S    
