data_mof_unit_58823.cif
_audit_creation_date              2012-10-26T19:05:05-0400
_audit_creation_method            fapswitch 2.2
_symmetry_space_group_name_H-M    P1
_symmetry_Int_Tables_number       1
_space_group_crystal_system       triclinic
_cell_length_a                    15.865665
_cell_length_b                    10.851485
_cell_length_c                    9.636911
_cell_angle_alpha                 91.392735
_cell_angle_beta                  90.679222
_cell_angle_gamma                 93.905731
_cell_volume                      1654.65442105

loop_
_atom_site_label
_atom_site_type_symbol
_atom_type_description
_atom_site_fract_x
_atom_site_fract_y
_atom_site_fract_z
_atom_type_partial_charge
C1    C     C_R   0.503446 0.263409 0.498307 0.536117
C2    C     C_R   0.649775 0.092238 0.803883 -0.120246
C3    C     C_R   0.624561 0.971566 0.835978 -0.134326
C4    C     C_R   0.340380 0.499591 0.499396 0.554550
C5    C     C_R   0.570077 0.900542 0.746595 -0.113597
C6    C     C_R   0.541705 0.947233 0.619699 0.024563
C7    C     C_R   0.556347 0.075288 0.600417 0.025060
C8    C     C_R   0.510878 0.130907 0.495321 -0.002681
C9    C     C_R   0.464452 0.058708 0.395496 -0.160187
C10   C     C_R   0.460674 0.931225 0.401449 -0.164279
C11   C     C_R   0.498952 0.873507 0.511800 -0.007339
C12   C     C_3   0.945142 0.369560 0.525931 -0.217717
C13   C     C_R   0.640578 0.626562 0.141994 0.184720
C14   C     C_R   0.715321 0.644591 0.066845 -0.150905
C15   C     C_R   0.710090 0.652347 0.924859 -0.197437
C16   C     C_R   0.499620 0.738137 0.503110 0.546960
C17   C     C_R   0.632939 0.625550 0.859279 -0.105300
C18   C     C_R   0.565714 0.562075 0.927245 0.114812
C19   C     C_R   0.566990 0.562945 0.076439 0.175458
C20   C     C_R   0.437407 0.440042 0.070939 -0.002101
C21   C     C_R   0.437518 0.439916 0.923435 0.020737
C22   C     C_R   0.659550 0.499742 0.500704 0.526440
C23   C     C_3   0.917046 0.501839 0.504126 0.026910
C24   C     C_3   0.042561 0.368464 0.519316 -0.202715
C25   C     C_3   0.050157 0.551841 0.366475 -0.257766
C26   C     C_3   0.952405 0.549217 0.364632 -0.229895
C27   C     C_1   0.749237 0.500349 0.502329 -0.049391
C28   C     C_3   0.082870 0.501718 0.505354 0.040256
C29   C     C_3   0.624256 0.834747 0.221542 -0.302549
C30   C     C_3   0.954910 0.587572 0.623178 -0.186312
C31   C     C_3   0.053077 0.587195 0.626195 0.162780
C32   C     C_1   0.824839 0.501067 0.503204 -0.079618
C33   C     C_1   0.175095 0.501012 0.501040 -0.010146
C34   C     C_1   0.250665 0.500262 0.498686 0.020004
C35   C     C_R   0.615151 0.144811 0.688078 -0.093009
Cu1   Cu    Cu3+1 0.499990 0.499990 0.640660 0.944163
Cu2   Cu    Cu3+1 0.500010 0.500010 0.359340 0.964675
H1    H     H_    0.915888 0.304917 0.444798 0.118635
H2    H     H_    0.426521 0.877233 0.320186 0.142490
H3    H     H_    0.386174 0.390293 0.123278 0.125799
H4    H     H_    0.059716 0.310576 0.428332 0.108946
H5    H     H_    0.772802 0.682396 0.118355 0.116530
H6    H     H_    0.763416 0.691328 0.867587 0.128246
H7    H     H_    0.627382 0.659640 0.757040 0.175490
H8    H     H_    0.386313 0.389991 0.866492 0.145213
H9    H     H_    0.076831 0.648226 0.352434 0.128906
H10   H     H_    0.071405 0.495270 0.277197 0.159196
H11   H     H_    0.926793 0.488077 0.277442 0.137171
H12   H     H_    0.067563 0.324229 0.612422 0.197843
H13   H     H_    0.932148 0.643685 0.345887 0.122183
H14   H     H_    0.079322 0.683045 0.607414 0.113388
H15   H     H_    0.927291 0.557620 0.723434 0.145982
H16   H     H_    0.686915 0.705648 0.325225 0.233459
H17   H     H_    0.622718 0.893527 0.316952 0.145703
H18   H     H_    0.564285 0.840137 0.161944 0.160823
H19   H     H_    0.678175 0.872453 0.159478 0.115028
H20   H     H_    0.994132 0.433471 0.897399 0.338762
H21   H     H_    0.923234 0.335770 0.628404 0.140580
H22   H     H_    0.936474 0.683557 0.608019 0.091506
H23   H     H_    0.430106 0.101126 0.313527 0.136221
H24   H     H_    0.635265 0.239767 0.667422 0.140229
H25   H     H_    0.693612 0.146635 0.871545 0.115245
H26   H     H_    0.646875 0.932825 0.930724 0.110075
H27   H     H_    0.546326 0.813897 0.785386 0.147090
N1    N     N_R   0.500800 0.501210 0.147910 -0.239321
N2    N     N_R   0.500820 0.501290 0.852040 -0.247433
N3    N     N_2   0.635753 0.708098 0.258398 -0.441038
O1    O     O_R   0.499990 0.319640 0.618810 -0.501439
O2    O     O_2   0.067421 0.650320 0.898280 -0.305313
O3    O     O_3   0.046383 0.413912 0.848710 -0.540512
O4    O     O_R   0.500000 0.319660 0.381240 -0.506489
O5    O     O_R   0.379430 0.499990 0.618840 -0.472100
O6    O     O_R   0.379440 0.500020 0.381260 -0.506859
O7    O     O_R   0.500000 0.680340 0.618760 -0.530045
O8    O     O_R   0.500010 0.680360 0.381190 -0.459211
O9    O     O_R   0.620560 0.499980 0.618740 -0.525022
O10   O     O_R   0.620570 0.500010 0.381160 -0.481032
O11   O     O_2   0.184891 0.545906 0.799829 -0.243855
S1    S     S_3+6 0.090464 0.550532 0.797469 -0.021760

loop_
_geom_bond_atom_site_label_1
_geom_bond_atom_site_label_2
_ccdc_geom_bond_type
C2    C35   A    
C21   N2    A    
C1    C8    S    
C22   O9    A    
C7    C8    A    
C25   C28   S    
C12   C23   S    
C1    O4    A    
C16   O7    A    
Cu1   Cu2   S    
C26   H13   S    
C5    C6    A    
C20   H3    S    
Cu1   N2    S    
C29   H17   S    
C16   O8    A    
C1    O1    A    
C18   C19   A    
C23   C26   S    
Cu2   O6    S    
Cu1   O9    S    
C29   N3    S    
C8    C9    A    
Cu2   N1    S    
H20   O3    S    
C9    C10   A    
C25   H10   S    
C26   H11   S    
C14   H5    S    
C12   H21   S    
Cu2   O8    S    
C13   C14   A    
C24   H4    S    
C33   C34   T    
C21   H8    S    
C4    C34   S    
C13   C19   A    
C23   C30   S    
C20   N1    A    
C6    C11   A    
O11   S1    D    
C29   H18   S    
C25   C26   S    
Cu2   O10   S    
C5    H27   S    
C10   H2    S    
C11   C16   S    
C30   H22   S    
C17   C18   A    
C35   H24   S    
C4    O6    A    
Cu1   O7    S    
C28   C33   S    
C22   C27   S    
Cu2   O4    S    
O2    S1    D    
C4    O5    A    
C13   N3    S    
C24   H12   S    
C15   C17   A    
C30   H15   S    
O3    S1    S    
C7    C35   A    
C28   C31   S    
C24   C28   S    
C22   O10   A    
C31   H14   S    
C3    C5    A    
Cu1   O1    S    
C31   S1    S    
C6    C7    A    
C29   H19   S    
C3    H26   S    
C18   N2    A    
C12   C24   S    
C9    H23   S    
C23   C32   S    
C2    C3    A    
C17   H7    S    
C15   H6    S    
C30   C31   S    
C19   N1    A    
C12   H1    S    
H16   N3    S    
C10   C11   A    
C27   C32   T    
Cu1   O5    S    
C20   C21   A    
C14   C15   A    
C25   H9    S    
C2    H25   S    
