data_mof_unit_45704.cif
_audit_creation_date              2013-03-05T15:53:19-0500
_audit_creation_method            fapswitch 2.2
_symmetry_space_group_name_H-M    P1
_symmetry_Int_Tables_number       1
_space_group_crystal_system       triclinic
_cell_length_a                    27.110128
_cell_length_b                    7.204887
_cell_length_c                    22.726453
_cell_angle_alpha                 90.042353
_cell_angle_beta                  101.138936
_cell_angle_gamma                 90.050125
_cell_volume                      4355.42555114

loop_
_atom_site_label
_atom_site_type_symbol
_atom_site_description
_atom_site_fract_x
_atom_site_fract_y
_atom_site_fract_z
_atom_type_partial_charge
O1    O     O_R   0.207310 0.594030 0.676830 -0.591347
O2    O     O_R   0.792690 0.405970 0.323170 -0.591265
O3    O     O_R   0.292690 0.094030 0.823170 -0.591146
O4    O     O_R   0.707310 0.905970 0.176830 -0.590874
O5    O     O_R   0.197320 0.262370 0.795700 -0.560001
O6    O     O_R   0.802680 0.737630 0.204300 -0.559632
O7    O     O_R   0.302680 0.762370 0.704300 -0.559739
O8    O     O_R   0.697320 0.237630 0.295700 -0.559645
C1    C     C_R   0.184063 0.432389 0.810990 0.964067
C2    C     C_R   0.815938 0.567610 0.189011 0.963147
C3    C     C_R   0.315936 0.932426 0.689015 0.963940
C4    C     C_R   0.684064 0.067574 0.310986 0.964168
O9    O     O_R   0.201410 0.264250 0.675590 -0.571589
O10   O     O_R   0.798590 0.735750 0.324410 -0.571578
O11   O     O_R   0.298590 0.764250 0.824410 -0.571063
O12   O     O_R   0.701410 0.235750 0.175590 -0.572278
O13   O     O_R   0.296810 0.094940 0.702210 -0.590752
O14   O     O_R   0.703190 0.905060 0.297790 -0.590823
O15   O     O_R   0.203190 0.594940 0.797790 -0.590888
O16   O     O_R   0.796810 0.405060 0.202210 -0.591059
C5    C     C_R   0.189721 0.432376 0.653468 0.953493
C6    C     C_R   0.810279 0.567625 0.346532 0.953677
C7    C     C_R   0.310230 0.932655 0.846515 0.953570
C8    C     C_R   0.689790 0.067385 0.153459 0.953900
O17   O     O_3   0.281300 0.427390 0.758870 -0.266925
O18   O     O_3   0.718700 0.572610 0.241130 -0.267185
O19   O     O_3   0.218700 0.927390 0.741130 -0.267630
O20   O     O_3   0.781300 0.072610 0.258870 -0.267404
V1    V     V_3+5 0.244190 0.152150 0.748350 1.241632
V2    V     V_3+5 0.755810 0.847850 0.251650 1.241778
V3    V     V_3+5 0.255810 0.652150 0.751650 1.241814
V4    V     V_3+5 0.744190 0.347850 0.248350 1.240870
C9    C     C_R   0.655061 0.062161 0.094892 -0.149246
C10   C     C_R   0.344978 0.938585 0.905044 -0.148870
C11   C     C_R   0.845056 0.563495 0.405134 -0.149414
C12   C     C_R   0.154943 0.436512 0.594867 -0.149349
C13   C     C_R   0.640388 0.126199 0.988105 0.366692
C14   C     C_R   0.358628 0.895288 0.012846 0.363747
C15   C     C_R   0.860086 0.632883 0.511668 0.362144
C16   C     C_R   0.139920 0.367260 0.488324 0.361812
C17   C     C_R   0.672795 0.114500 0.043815 -0.263423
C18   C     C_R   0.326699 0.896865 0.956647 -0.264773
C19   C     C_R   0.827708 0.621837 0.455889 -0.261256
C20   C     C_R   0.172298 0.378290 0.544104 -0.261057
C21   C     C_R   0.603915 0.020943 0.090651 -0.179055
C22   C     C_R   0.396215 0.977755 0.909151 -0.179439
C23   C     C_R   0.895789 0.514980 0.409838 -0.181384
C24   C     C_R   0.104205 0.484945 0.590170 -0.181422
C25   C     C_R   0.569376 0.030691 0.034812 0.081302
C26   C     C_R   0.430581 0.971475 0.965169 0.081153
C27   C     C_R   0.930531 0.528510 0.465464 0.080870
C28   C     C_R   0.069465 0.471452 0.534542 0.080900
C29   C     C_R   0.588688 0.081664 0.983078 -0.022617
C30   C     C_R   0.410907 0.927994 0.017284 -0.022826
C31   C     C_R   0.911959 0.592260 0.516393 -0.021576
C32   C     C_R   0.088041 0.407778 0.483607 -0.021610
C33   C     C_R   0.516401 0.993311 0.028705 0.086221
C34   C     C_R   0.483724 0.004956 0.971076 0.085529
C35   C     C_R   0.983203 0.485823 0.471835 0.086289
C36   C     C_R   0.016793 0.514122 0.528173 0.086329
C37   C     C_R   0.505365 0.047953 0.921130 -0.180813
C38   C     C_R   0.495033 0.944031 0.078324 -0.181610
C39   C     C_R   0.996679 0.585753 0.576197 -0.184832
C40   C     C_R   0.003318 0.414208 0.423810 -0.184779
C41   C     C_R   0.556342 0.083986 0.927026 -0.106718
C42   C     C_R   0.443895 0.911587 0.072616 -0.113351
C43   C     C_R   0.945765 0.622615 0.570469 -0.112545
C44   C     C_R   0.054235 0.377400 0.429533 -0.112385
H1    H     H_    0.570177 0.112404 0.886394 0.191353
H2    H     H_    0.430665 0.869978 0.112572 0.191043
H3    H     H_    0.933467 0.681004 0.609042 0.190605
H4    H     H_    0.066535 0.319037 0.390958 0.190657
H5    H     H_    0.286951 0.868712 0.953245 0.152270
H6    H     H_    0.712072 0.151441 0.047657 0.151055
H7    H     H_    0.211640 0.342738 0.547885 0.152556
H8    H     H_    0.788371 0.657480 0.452102 0.152480
H9    H     H_    0.483935 0.055073 0.876116 0.153904
H10   H     H_    0.516859 0.928118 0.122877 0.153541
H11   H     H_    0.019492 0.618003 0.619219 0.153201
H12   H     H_    0.980506 0.381960 0.380787 0.153239
C45   C     C_R   0.645829 0.909826 0.389302 -0.103706
C46   C     C_R   0.354169 0.090167 0.610695 -0.103588
C47   C     C_R   0.854181 0.409623 0.110725 -0.107102
C48   C     C_R   0.145822 0.590370 0.889280 -0.104329
H13   H     H_    0.674953 0.805170 0.393269 0.147401
H14   H     H_    0.325043 0.194815 0.606725 0.147422
H15   H     H_    0.825070 0.304715 0.106790 0.147546
H16   H     H_    0.174932 0.695280 0.893213 0.147800
C49   C     C_R   0.610566 0.896473 0.426644 -0.068861
C50   C     C_R   0.389432 0.103520 0.573353 -0.068381
C51   C     C_R   0.889441 0.396261 0.073382 -0.068336
C52   C     C_R   0.110564 0.603726 0.926626 -0.067924
H17   H     H_    0.613280 0.780938 0.457539 0.138075
H18   H     H_    0.386716 0.219047 0.542455 0.138294
H19   H     H_    0.886738 0.280476 0.042522 0.139189
H20   H     H_    0.113269 0.719508 0.957487 0.138753
C53   C     C_R   0.572618 0.030284 0.424422 0.047316
C54   C     C_R   0.427383 0.969719 0.575579 0.047454
C55   C     C_R   0.927380 0.530349 0.075569 0.047104
C56   C     C_R   0.072626 0.469637 0.924440 0.046923
C57   C     C_R   0.570731 0.177487 0.383392 -0.223939
C58   C     C_R   0.429273 0.822526 0.616614 -0.224803
C59   C     C_R   0.929253 0.677864 0.116558 -0.222420
C60   C     C_R   0.070751 0.322125 0.883450 -0.222933
H21   H     H_    0.541201 0.280281 0.380043 0.174192
H22   H     H_    0.458805 0.719741 0.619966 0.174019
H23   H     H_    0.958772 0.780901 0.119873 0.174196
H24   H     H_    0.041233 0.219087 0.880134 0.174235
C61   C     C_R   0.605431 0.190827 0.344660 0.357473
C62   C     C_R   0.394573 0.809187 0.655346 0.357135
C63   C     C_R   0.894551 0.691245 0.155285 0.358515
C64   C     C_R   0.105452 0.308748 0.844720 0.358036
C65   C     C_R   0.644293 0.056754 0.348163 -0.296444
C66   C     C_R   0.355707 0.943248 0.651838 -0.296196
C67   C     C_R   0.855704 0.556855 0.151825 -0.295749
C68   C     C_R   0.144298 0.443141 0.848178 -0.296822
N1    N     N_R   0.498257 0.144996 0.462484 -0.061373
N2    N     N_R   0.501744 0.855006 0.537518 -0.061882
N3    N     N_R   0.001831 0.644974 0.037612 -0.061002
N4    N     N_R   0.998176 0.355010 0.962397 -0.061139
N5    N     N_R   0.464326 0.130611 0.497662 -0.063417
N6    N     N_R   0.535675 0.869391 0.502340 -0.063892
N7    N     N_R   0.035765 0.630551 0.002441 -0.063125
N8    N     N_R   0.964241 0.369432 0.997568 -0.063236
C69   C     C_R   0.465248 0.985249 0.536004 0.157884
C70   C     C_R   0.534753 0.014753 0.463997 0.157984
C71   C     C_R   0.034759 0.485201 0.964009 0.158712
C72   C     C_R   0.965247 0.514783 0.036001 0.158572
H25   H     H_    0.407875 0.008658 0.867553 0.133975
H26   H     H_    0.592464 0.985348 0.132017 0.133245
H27   H     H_    0.092885 0.524858 0.631268 0.133616
H28   H     H_    0.907103 0.474974 0.368746 0.133636
N9    N     N_R   0.660462 0.190134 0.937644 0.234271
O21   O     O_R   0.640295 0.332239 0.906760 -0.368333
O22   O     O_R   0.704179 0.131469 0.930017 -0.351265
N10   N     N_R   0.337056 0.862429 0.064908 0.234542
O23   O     O_R   0.344854 0.980105 0.109214 -0.352892
O24   O     O_R   0.302204 0.737112 0.063172 -0.356165
N11   N     N_R   0.839458 0.684943 0.562996 0.234374
O25   O     O_R   0.847386 0.581166 0.610731 -0.351796
O26   O     O_R   0.805457 0.814354 0.558159 -0.360624
N12   N     N_R   0.160555 0.315384 0.436982 0.234534
O27   O     O_R   0.152582 0.419201 0.389257 -0.350870
O28   O     O_R   0.194612 0.186176 0.441804 -0.359733
N13   N     N_R   0.598877 0.335419 0.300343 0.240691
O29   O     O_R   0.584283 0.499676 0.313567 -0.395865
O30   O     O_R   0.599180 0.295623 0.244542 -0.403452
N14   N     N_R   0.401130 0.664609 0.699668 0.240769
O31   O     O_R   0.415729 0.500352 0.686450 -0.395167
O32   O     O_R   0.400826 0.704421 0.755468 -0.404039
N15   N     N_R   0.901086 0.836235 0.199551 0.240616
O33   O     O_R   0.915658 0.000500 0.186268 -0.395871
O34   O     O_R   0.900797 0.796873 0.255367 -0.401950
N16   N     N_R   0.098915 0.163760 0.800453 0.240611
O35   O     O_R   0.084345 0.999494 0.813737 -0.396280
O36   O     O_R   0.099202 0.203125 0.744636 -0.401988

loop_
_geom_bond_atom_site_label_1
_geom_bond_atom_site_label_2
_geom_bond_distance
_ccdc_geom_bond_type
O17   V3    1.756519 S    
C55   C59   1.407160 A    
O1    C5    1.328945 A    
C16   N12   1.437372 S    
O19   V1    1.755180 S    
C56   C71   1.493933 S    
C9    C21   1.402747 A    
O3    C7    1.328097 A    
C10   C18   1.391437 A    
O1    V3    1.982329 S    
C11   C23   1.403325 A    
C22   H25   1.076508 S    
N13   O29   1.301413 A    
N4    C71   1.359828 A    
C25   C33   1.441029 A    
C33   C38   1.409212 A    
C5    C12   1.475962 S    
C39   H11   1.076224 S    
O7    C3    1.341313 A    
C6    C11   1.475966 S    
C35   C40   1.408706 A    
C26   C30   1.424697 A    
C36   C39   1.408700 A    
C40   C44   1.387076 A    
O2    V4    1.982334 S    
O9    V1    1.998584 S    
N14   O32   1.301536 A    
C14   C18   1.397671 A    
O4    C8    1.328390 A    
C25   C29   1.424610 A    
C64   C68   1.420895 A    
C57   C61   1.410295 A    
C52   H20   1.082739 S    
O13   V1    1.970486 S    
C31   C43   1.400766 A    
C59   C63   1.410312 A    
N2    N6    1.334247 A    
O3    V1    1.983351 S    
C3    C66   1.494779 S    
N1    N5    1.334245 A    
C28   C36   1.440642 A    
C17   H6    1.084352 S    
N4    N8    1.334246 A    
C1    O15   1.337930 A    
C54   C69   1.493929 S    
C15   C31   1.420299 A    
C37   H9    1.075733 S    
C16   C32   1.420312 A    
O2    C6    1.328947 A    
C43   H3    1.081310 S    
N15   O33   1.301411 A    
C24   H27   1.076926 S    
C58   H22   1.082956 S    
C10   C22   1.402509 A    
N2    C69   1.359857 A    
C14   N10   1.437191 S    
C11   C19   1.391979 A    
N1    C70   1.359855 A    
C62   C66   1.420887 A    
C16   C20   1.397731 A    
N16   O36   1.301534 A    
C61   C65   1.420886 A    
N8    C72   1.360047 A    
C13   C29   1.420471 A    
N3    C72   1.359829 A    
C34   C37   1.409313 A    
O11   C7    1.327148 A    
O15   V3    1.970293 S    
C21   H26   1.076532 S    
C48   C68   1.408200 A    
C64   N16   1.436652 S    
C13   C17   1.397328 A    
C40   H12   1.076220 S    
O10   V2    1.998585 S    
C62   N14   1.436654 S    
N13   O30   1.301537 A    
C45   H13   1.083390 S    
C50   H18   1.082741 S    
O5    V1    1.982924 S    
C57   H21   1.082956 S    
C15   N11   1.437337 S    
O7    V3    1.982670 S    
C38   C42   1.386854 A    
C26   C34   1.440990 A    
C47   C67   1.408198 A    
N14   O31   1.301414 A    
C46   C66   1.408186 A    
N10   O24   1.301379 A    
C2    O16   1.337929 A    
C60   C64   1.410313 A    
O18   V4    1.756518 S    
C53   C70   1.493933 S    
C15   C19   1.397714 A    
C56   C60   1.407159 A    
C32   C44   1.400764 A    
C49   C53   1.404327 A    
C44   H4    1.081309 S    
O8    V4    1.982671 S    
N6    C70   1.360073 A    
C20   H7    1.084283 S    
C39   C43   1.387074 A    
O5    C1    1.341217 A    
N7    C71   1.360049 A    
C14   C30   1.420773 A    
C21   C25   1.425926 A    
O8    C4    1.341312 A    
C7    C10   1.474519 S    
O9    C5    1.326842 A    
C35   C36   1.434914 A    
N16   O35   1.301411 A    
O14   V2    1.970491 S    
O6    V2    1.982924 S    
N5    C69   1.360073 A    
N9    O21   1.301388 A    
C13   N9    1.437008 S    
C58   C62   1.410294 A    
C27   C35   1.440649 A    
C4    O14   1.338058 A    
C60   H24   1.082953 S    
N12   O28   1.301397 A    
C29   C41   1.400139 A    
C52   C56   1.404311 A    
C59   H23   1.082952 S    
C4    C65   1.494785 S    
O16   V4    1.970290 S    
C19   H8    1.084280 S    
C3    O13   1.338058 A    
C18   H5    1.084283 S    
C1    C68   1.494817 S    
C38   H10   1.075763 S    
C61   N13   1.436655 S    
C48   H16   1.083387 S    
N10   O23   1.301377 A    
C63   N15   1.436652 S    
C47   H15   1.083387 S    
O6    C2    1.341219 A    
C23   C27   1.426314 A    
N11   O25   1.301348 A    
O11   V3    1.996778 S    
C55   C72   1.493933 S    
C30   C42   1.400338 A    
N3    N7    1.334244 A    
O12   V4    1.996775 S    
C47   C51   1.398841 A    
C22   C26   1.425721 A    
C8    C9    1.474840 S    
C46   C50   1.398856 A    
C23   H28   1.076920 S    
C9    C17   1.391660 A    
O10   C6    1.326842 A    
O20   V2    1.755179 S    
C45   C49   1.398858 A    
C54   C58   1.407158 A    
C46   H14   1.083391 S    
N11   O26   1.301381 A    
C33   C34   1.434980 A    
C42   H2    1.081266 S    
C41   H1    1.081330 S    
C12   C24   1.403327 A    
C27   C31   1.424414 A    
N15   O34   1.301535 A    
C49   H17   1.082740 S    
O4    V2    1.983346 S    
C12   C20   1.391984 A    
C51   H19   1.082740 S    
C37   C41   1.386732 A    
C24   C28   1.426304 A    
O12   C8    1.326990 A    
C45   C65   1.408186 A    
N9    O22   1.301324 A    
N12   O27   1.301360 A    
C63   C67   1.420896 A    
C48   C52   1.398842 A    
C51   C55   1.404312 A    
C50   C54   1.404329 A    
C53   C57   1.407156 A    
C2    C67   1.494814 S    
C28   C32   1.424412 A    
