data_mof_unit_36349.cif
_audit_creation_date              2012-12-11T15:23:36-0500
_audit_creation_method            fapswitch 2.2
_symmetry_space_group_name_H-M    P1
_symmetry_Int_Tables_number       1
_space_group_crystal_system       triclinic
_cell_length_a                    17.358559
_cell_length_b                    24.313434
_cell_length_c                    15.073231
_cell_angle_alpha                 89.86993
_cell_angle_beta                  125.649503
_cell_angle_gamma                 90.025736
_cell_volume                      5169.40363141

loop_
_atom_site_label
_atom_site_type_symbol
_atom_type_description
_atom_site_fract_x
_atom_site_fract_y
_atom_site_fract_z
_atom_type_partial_charge
C1    C     C_R   0.352569 0.347579 0.910715 -0.047854
C2    C     C_R   0.688301 0.374087 0.092702 -0.112600
C3    C     C_R   0.850851 0.848066 0.910378 -0.112557
C4    C     C_R   0.184069 0.868856 0.091708 -0.031135
C5    C     C_R   0.385223 0.683639 0.002135 -0.023490
C6    C     C_R   0.688225 0.638529 0.002692 -0.004765
C7    C     C_R   0.878680 0.181949 0.002040 -0.012023
C8    C     C_R   0.186662 0.140315 0.002113 0.000791
C9    C     C_R   0.563028 0.499367 0.363615 0.024030
C10   C     C_R   0.514543 0.499489 0.689085 0.045735
C11   C     C_R   0.064833 0.999382 0.364504 0.038482
C12   C     C_R   0.016488 0.999356 0.690765 0.014301
C13   C     C_R   0.173957 0.495298 0.688516 0.087878
C14   C     C_R   0.795516 0.498447 0.370593 0.024198
C15   C     C_R   0.700298 0.999630 0.633723 0.020432
C16   C     C_R   0.317169 0.995702 0.344754 0.097323
C17   C     C_2   0.918204 0.460275 0.559503 0.414159
C18   C     C_2   0.019238 0.470253 0.645769 0.419571
C19   C     C_2   0.466813 0.976765 0.371485 0.449584
C20   C     C_2   0.567447 0.964787 0.449583 0.479994
C21   C     C_2   0.872850 0.501656 0.487257 -0.275741
C22   C     C_2   0.072559 0.489557 0.613860 -0.362315
C23   C     C_2   0.418427 0.990389 0.413403 -0.399965
C24   C     C_2   0.616449 0.004663 0.522303 -0.295444
C25   C     C_R   0.293943 0.767308 0.904871 -0.133927
C26   C     C_R   0.840595 0.688415 0.103202 -0.136777
C27   C     C_R   0.792459 0.267665 0.906412 -0.124728
C28   C     C_R   0.340985 0.188366 0.102266 -0.097867
C29   C     C_R   0.744978 0.313125 0.906995 -0.140776
C30   C     C_R   0.389833 0.233162 0.102108 -0.151802
C31   C     C_R   0.240672 0.809443 0.904834 -0.154633
C32   C     C_R   0.887805 0.734007 0.102769 -0.142375
C33   C     C_R   0.760067 0.329368 0.005113 0.121679
C34   C     C_R   0.358331 0.258731 0.002899 0.116848
C35   C     C_R   0.255268 0.824605 0.003169 0.141906
C36   C     C_R   0.856549 0.759232 0.003302 0.119298
C37   C     C_R   0.838177 0.308780 0.104330 -0.151847
C38   C     C_R   0.292069 0.231978 0.904355 -0.137208
C39   C     C_R   0.337051 0.806872 0.102516 -0.072413
C40   C     C_R   0.791934 0.731735 0.905111 -0.142479
C41   C     C_R   0.390913 0.765149 0.102599 -0.163035
C42   C     C_R   0.745111 0.685834 0.905676 -0.134736
C43   C     C_R   0.885874 0.263544 0.103901 -0.133972
C44   C     C_R   0.243531 0.186983 0.904617 -0.141945
C45   C     C_R   0.442028 0.650479 0.091724 -0.062567
C46   C     C_R   0.597408 0.628051 0.911262 -0.115037
C47   C     C_R   0.940266 0.149837 0.091870 -0.086089
C48   C     C_R   0.096376 0.128919 0.910881 -0.086699
C49   C     C_R   0.361847 0.740900 0.003416 0.135344
C50   C     C_R   0.761836 0.668297 0.004160 0.128386
C51   C     C_R   0.855720 0.239292 0.004245 0.128767
C52   C     C_R   0.260484 0.169522 0.003206 0.142133
C53   C     C_R   0.576650 0.549268 0.600625 -0.172144
C54   C     C_R   0.595050 0.549185 0.523270 -0.108086
C55   C     C_R   0.077980 0.049187 0.601566 -0.160255
C56   C     C_R   0.096084 0.049162 0.523929 -0.117128
C57   C     C_R   0.591910 0.499332 0.475031 0.154025
C58   C     C_R   0.556797 0.499443 0.630149 0.132309
C59   C     C_R   0.093276 0.999327 0.475832 0.143408
C60   C     C_R   0.058460 0.999337 0.631424 0.143856
C61   C     C_R   0.594270 0.449476 0.523140 -0.077247
C62   C     C_R   0.576127 0.449524 0.600659 -0.171958
C63   C     C_R   0.095584 0.949455 0.523907 -0.154777
C64   C     C_R   0.077531 0.949448 0.601559 -0.140161
C65   C     C_R   0.547477 0.453495 0.301381 -0.090802
C66   C     C_R   0.493024 0.453652 0.724732 -0.128470
C67   C     C_R   0.048359 0.953530 0.301824 -0.121030
C68   C     C_R   0.994544 0.953562 0.726074 -0.076287
C69   C     C_R   0.228802 0.542911 0.721528 0.560647
C70   C     C_R   0.749895 0.544278 0.306585 0.475547
C71   C     C_R   0.749173 0.045077 0.695284 0.411868
C72   C     C_R   0.264317 0.043066 0.295909 0.555216
C73   C     C_R   0.545293 0.545251 0.300098 -0.069723
C74   C     C_R   0.493847 0.545300 0.725404 -0.094320
C75   C     C_R   0.047376 0.045250 0.301055 -0.076415
C76   C     C_R   0.995279 0.045176 0.726521 -0.039883
C77   C     C_R   0.233426 0.451073 0.733393 -0.143959
C78   C     C_R   0.751541 0.453336 0.303639 -0.178821
C79   C     C_R   0.745039 0.953684 0.698753 -0.127213
C80   C     C_R   0.261010 0.951702 0.289935 -0.157237
C81   C     C_R   0.356211 0.652776 0.910931 -0.006196
C82   C     C_R   0.691332 0.622739 0.092991 -0.055223
C83   C     C_R   0.849003 0.151010 0.910302 -0.068788
C84   C     C_R   0.189866 0.124817 0.092506 -0.026330
C85   C     C_R   0.442650 0.348212 0.092630 -0.100673
C86   C     C_R   0.595742 0.370197 0.910430 -0.119477
C87   C     C_R   0.941894 0.848453 0.092566 -0.111066
C88   C     C_R   0.092503 0.867400 0.909535 -0.133184
C89   C     C_R   0.382035 0.316119 0.002029 0.041472
C90   C     C_R   0.685935 0.358740 0.002797 0.045863
C91   C     C_R   0.880189 0.816618 0.001881 0.042736
C92   C     C_R   0.180915 0.853166 0.001554 0.060841
H1    H     H_    0.315193 0.333521 0.827458 0.076798
H2    H     H_    0.746066 0.370053 0.177799 0.113655
H3    H     H_    0.811694 0.834446 0.826630 0.112228
H4    H     H_    0.239240 0.860441 0.175862 0.095558
H5    H     H_    0.906833 0.541807 0.511730 0.203077
H6    H     H_    0.041866 0.496348 0.528002 0.163876
H7    H     H_    0.452624 0.989631 0.501004 0.154411
H8    H     H_    0.582599 0.044833 0.504228 0.152387
H9    H     H_    0.274053 0.752054 0.826893 0.124570
H10   H     H_    0.859855 0.673384 0.181188 0.147115
H11   H     H_    0.772531 0.252400 0.828428 0.153601
H12   H     H_    0.360833 0.172924 0.180231 0.161667
H13   H     H_    0.690274 0.331504 0.829581 0.119687
H14   H     H_    0.445281 0.250489 0.179986 0.132269
H15   H     H_    0.182973 0.825935 0.827031 0.112073
H16   H     H_    0.941788 0.752017 0.180572 0.122266
H17   H     H_    0.856389 0.323075 0.182180 0.130243
H18   H     H_    0.270481 0.248402 0.826343 0.118069
H19   H     H_    0.355011 0.820913 0.180389 0.150176
H20   H     H_    0.770651 0.748014 0.827100 0.129246
H21   H     H_    0.447788 0.748322 0.180480 0.126287
H22   H     H_    0.689620 0.668094 0.828147 0.113764
H23   H     H_    0.939002 0.244913 0.181594 0.123744
H24   H     H_    0.186815 0.170013 0.826920 0.111735
H25   H     H_    0.571004 0.588496 0.630009 0.115318
H26   H     H_    0.600818 0.588394 0.493714 0.142791
H27   H     H_    0.072385 0.088412 0.630990 0.113420
H28   H     H_    0.101588 0.088391 0.494204 0.131241
H29   H     H_    0.599032 0.410194 0.493289 0.143761
H30   H     H_    0.570114 0.410317 0.630061 0.116891
H31   H     H_    0.100555 0.910201 0.494113 0.116026
H32   H     H_    0.071570 0.910226 0.630957 0.109787
H33   H     H_    0.485832 0.662453 0.176495 0.132462
H34   H     H_    0.567843 0.640860 0.829180 0.099456
H35   H     H_    0.986147 0.162381 0.176248 0.122208
H36   H     H_    0.066361 0.141654 0.828667 0.110796
H37   H     H_    0.564062 0.411152 0.327778 0.123218
H38   H     H_    0.485991 0.411999 0.697160 0.092741
H39   H     H_    0.064794 0.911160 0.328113 0.094574
H40   H     H_    0.988246 0.911887 0.699049 0.101269
H41   H     H_    0.558641 0.587783 0.325049 0.146369
H42   H     H_    0.487448 0.587044 0.698213 0.103102
H43   H     H_    0.062622 0.087683 0.326640 0.133807
H44   H     H_    0.989421 0.086845 0.699383 0.125812
H45   H     H_    0.214565 0.408025 0.718986 0.147596
H46   H     H_    0.760584 0.410898 0.327045 0.217826
H47   H     H_    0.731757 0.911101 0.675518 0.204628
H48   H     H_    0.277693 0.909175 0.314602 0.127256
H49   H     H_    0.327188 0.669330 0.831389 0.167894
H50   H     H_    0.751283 0.624661 0.176967 0.161817
H51   H     H_    0.808970 0.165955 0.828097 0.201277
H52   H     H_    0.248786 0.129059 0.175978 0.175339
H53   H     H_    0.487897 0.335270 0.176954 0.100435
H54   H     H_    0.566909 0.357836 0.828401 0.091938
H55   H     H_    0.987298 0.835433 0.176818 0.091429
H56   H     H_    0.062484 0.855347 0.827044 0.096098
N1    N     N_R   0.395440 0.396300 0.944370 -0.038377
N2    N     N_R   0.604560 0.396300 0.055630 -0.045673
N3    N     N_R   0.895440 0.896300 0.944370 -0.045722
N4    N     N_R   0.104560 0.896300 0.055630 -0.050804
N5    N     N_R   0.449890 0.602500 0.055780 -0.046398
N6    N     N_R   0.550110 0.602500 0.944220 -0.053171
N7    N     N_R   0.949890 0.102500 0.055780 -0.052320
N8    N     N_R   0.050110 0.102500 0.944220 -0.039584
N9    N     N_R   0.525090 0.470990 0.205640 -0.048719
N10   N     N_R   0.474910 0.470990 0.794360 -0.046072
N11   N     N_R   0.025090 0.970990 0.205640 -0.049985
N12   N     N_R   0.974910 0.970990 0.794360 -0.048869
N13   N     N_R   0.320240 0.527820 0.794510 -0.117267
N14   N     N_R   0.679760 0.527820 0.205490 -0.115705
N15   N     N_R   0.820240 0.027820 0.794510 -0.103374
N16   N     N_R   0.179760 0.027820 0.205490 -0.112645
N17   N     N_R   0.524580 0.527810 0.205160 -0.047435
N18   N     N_R   0.475420 0.527810 0.794840 -0.043477
N19   N     N_R   0.024580 0.027810 0.205160 -0.052456
N20   N     N_R   0.975420 0.027810 0.794840 -0.038965
N21   N     N_R   0.320750 0.470990 0.794990 -0.087431
N22   N     N_R   0.679250 0.470990 0.205010 -0.091339
N23   N     N_R   0.820750 0.970990 0.794990 -0.089788
N24   N     N_R   0.179250 0.970990 0.205010 -0.074556
N25   N     N_R   0.393580 0.602500 0.942610 -0.057660
N26   N     N_R   0.606420 0.602500 0.057390 -0.035960
N27   N     N_R   0.893580 0.102500 0.942610 -0.051783
N28   N     N_R   0.106420 0.102500 0.057390 -0.051564
N29   N     N_R   0.451750 0.396300 0.057540 -0.041548
N30   N     N_R   0.548250 0.396300 0.942460 -0.047349
N31   N     N_R   0.951750 0.896300 0.057540 -0.045587
N32   N     N_R   0.048250 0.896300 0.942460 -0.045027
Ni1   Ni    Ni4+2 0.435420 0.434250 0.870220 0.218405
Ni2   Ni    Ni4+2 0.564580 0.434250 0.129780 0.233472
Ni3   Ni    Ni4+2 0.935420 0.934250 0.870220 0.238360
Ni4   Ni    Ni4+2 0.064580 0.934250 0.129780 0.211069
Ni5   Ni    Ni4+2 0.563400 0.564580 0.128670 0.305284
Ni6   Ni    Ni4+2 0.436600 0.564580 0.871330 0.281704
Ni7   Ni    Ni4+2 0.063400 0.064580 0.128670 0.293344
Ni8   Ni    Ni4+2 0.936600 0.064580 0.871330 0.322306
S1    S     S_3+6 0.189274 0.605962 0.650769 -0.055609
O1    O     O_2   0.268498 0.633086 0.653584 -0.349792
O2    O     O_2   0.107873 0.596042 0.533878 -0.271023
O3    O     O_3   0.151730 0.646701 0.708472 -0.535289
H57   H     H_    0.133759 0.681756 0.667288 0.367575
S2    S     S_3+6 0.754481 0.609953 0.359992 -0.085711
O4    O     O_2   0.670359 0.644158 0.277144 -0.355136
O5    O     O_2   0.755787 0.603571 0.460090 -0.297913
O6    O     O_3   0.854599 0.641650 0.394786 -0.534270
H58   H     H_    0.854039 0.677443 0.425655 0.387600
S3    S     S_3+6 0.750980 0.108350 0.637843 -0.042061
O7    O     O_2   0.848412 0.133114 0.706065 -0.314512
O8    O     O_2   0.724495 0.099449 0.524558 -0.238547
O9    O     O_3   0.673066 0.152371 0.631329 -0.535299
H59   H     H_    0.610376 0.134551 0.582820 0.352697
S4    S     S_3+6 0.284635 0.104105 0.369143 -0.085115
O10   O     O_2   0.198949 0.140822 0.307402 -0.355656
O11   O     O_2   0.305313 0.089814 0.478143 -0.300961
O12   O     O_3   0.379034 0.136576 0.388927 -0.552845
H60   H     H_    0.387309 0.169884 0.431376 0.379051
S5    S     S_3+6 0.870157 0.394012 0.547745 0.001447
O13   O     O_2   0.765529 0.398164 0.495009 -0.286501
O14   O     O_2   0.886982 0.358026 0.479542 -0.349102
O15   O     O_3   0.921770 0.364355 0.671018 -0.423285
H61   H     H_    0.973708 0.341443 0.681587 0.370429
S6    S     S_3+6 0.064161 0.462873 0.785275 0.012783
O16   O     O_2   0.119523 0.410169 0.829070 -0.303929
O17   O     O_2   0.128274 0.510353 0.849883 -0.269167
O18   O     O_3   0.973929 0.461680 0.797627 -0.464116
H62   H     H_    0.003948 0.454235 0.875987 0.378411
S7    S     S_3+6 0.420445 0.983928 0.231565 0.008446
O19   O     O_2   0.356768 0.936249 0.168499 -0.304934
O20   O     O_2   0.365040 0.036535 0.186695 -0.323749
O21   O     O_3   0.510065 0.985138 0.218153 -0.457866
H63   H     H_    0.478947 0.986581 0.138397 0.376648
S8    S     S_3+6 0.611524 0.899150 0.449590 -0.014003
O22   O     O_2   0.714683 0.902844 0.494475 -0.278013
O23   O     O_2   0.598845 0.860361 0.517951 -0.349172
O24   O     O_3   0.550308 0.874636 0.321443 -0.467244
H64   H     H_    0.573959 0.836633 0.328870 0.368341

loop_
_geom_bond_atom_site_label_1
_geom_bond_atom_site_label_2
_ccdc_geom_bond_type
C2    N2    A    
S2    O5    D    
C55   C56   A    
C25   C31   A    
C6    C82   A    
C53   C58   A    
C83   N27   A    
C63   H31   S    
C27   C29   A    
C14   C70   A    
C23   H7    S    
C19   C20   S    
C16   C72   A    
C86   N30   A    
C82   H50   S    
N16   Ni7   S    
C5    C49   S    
S8    O22   D    
C76   H44   S    
C40   H20   S    
C55   H27   S    
C53   C54   A    
C26   C32   A    
C12   C68   A    
N10   N18   A    
C3    N3    A    
C10   C66   A    
C87   H55   S    
N20   Ni8   S    
C32   C36   A    
C14   C21   S    
N23   Ni3   S    
C10   C58   S    
C77   H45   S    
C17   S5    S    
C26   C50   A    
N26   Ni5   S    
C75   H43   S    
C72   N16   A    
S2    O6    S    
C48   H36   S    
C84   H52   S    
N29   Ni2   S    
C29   C33   A    
C78   N22   A    
S5    O15   S    
C5    C81   A    
N6    Ni6   S    
C3    C91   A    
C79   N23   A    
C57   C61   A    
C2    C90   A    
C28   H12   S    
C36   C40   A    
C43   H23   S    
N27   Ni8   S    
C4    H4    S    
C42   H22   S    
C15   C79   A    
C82   N26   A    
C18   S6    S    
C11   C67   A    
S3    O9    S    
C1    N1    A    
N11   Ni4   S    
N4    Ni4   S    
C62   H30   S    
N15   N23   A    
C8    C52   S    
N12   Ni3   S    
C37   H17   S    
N32   Ni3   S    
C72   S4    S    
N13   N21   A    
C35   C92   S    
C44   C52   A    
C39   H19   S    
S2    O4    D    
C48   N8    A    
S3    O7    D    
C34   C38   A    
C55   C60   A    
N22   Ni2   S    
N1    Ni1   S    
S4    O10   D    
C56   H28   S    
C29   H13   S    
S1    O1    D    
C45   N5    A    
C9    C73   A    
C11   C75   A    
C11   C59   S    
C78   H46   S    
C41   C49   A    
C27   C51   A    
C88   N32   A    
C25   C49   A    
N8    Ni8   S    
C20   S8    S    
C46   N6    A    
S5    O13   D    
C13   C77   A    
N25   Ni6   S    
C87   C91   A    
C30   C34   A    
O12   H60   S    
C88   C92   A    
C2    H2    S    
C9    C57   S    
C39   C41   A    
C79   H47   S    
O9    H59   S    
C45   H33   S    
S7    O19   D    
C85   C89   A    
S6    O16   D    
C8    C84   A    
O18   H62   S    
C80   H48   S    
C5    C45   A    
O6    H58   S    
C1    H1    S    
N17   Ni5   S    
C47   N7    A    
N15   Ni8   S    
C16   C80   A    
C68   H40   S    
N4    N32   A    
S1    O3    S    
C35   C39   A    
C8    C48   A    
C38   C44   A    
N13   Ni6   S    
S6    O17   D    
C14   C78   A    
S7    O20   D    
C21   H5    S    
N24   Ni4   S    
N3    N31   A    
O24   H64   S    
N14   N22   A    
S4    O12   S    
N5    N25   A    
C70   S2    S    
N19   Ni7   S    
C83   H51   S    
N1    N29   A    
C17   C18   S    
C88   H56   S    
C6    C50   S    
C4    N4    A    
C47   H35   S    
C66   N10   A    
N21   Ni1   S    
C71   N15   A    
C58   C62   A    
C42   C50   A    
C84   N28   A    
C36   C91   S    
C73   N17   A    
C15   C24   S    
C73   H41   S    
C16   C23   S    
C54   H26   S    
C86   C90   A    
C31   C35   A    
C37   C43   A    
N16   N24   A    
C38   H18   S    
N9    Ni2   S    
C80   N24   A    
N9    N17   A    
S8    O24   S    
C74   N18   A    
C19   C23   D    
N28   Ni7   S    
C33   C37   A    
N31   Ni4   S    
N7    N27   A    
C77   N21   A    
N8    N28   A    
C1    C89   A    
C6    C46   A    
C18   C22   D    
C31   H15   S    
N3    Ni3   S    
C46   H34   S    
C67   H39   S    
C7    C47   A    
C61   H29   S    
C86   H54   S    
C40   C42   A    
N2    Ni2   S    
S6    O18   S    
S8    O23   D    
N14   Ni5   S    
C65   H37   S    
C24   H8    S    
C71   S3    S    
C28   C52   A    
C65   N9    A    
C15   C71   A    
C64   H32   S    
C27   H11   S    
C59   C63   A    
C69   N13   A    
C56   C59   A    
N2    N30   A    
C60   C64   A    
O3    H57   S    
C13   C69   A    
C12   C76   A    
C41   H21   S    
C7    C51   S    
C28   C30   A    
N7    Ni7   S    
C33   C90   S    
C26   H10   S    
S7    O21   S    
S4    O11   D    
C10   C74   A    
C25   H9    S    
C7    C83   A    
N5    Ni5   S    
C43   C51   A    
C74   H42   S    
C81   H49   S    
C75   N19   A    
S5    O14   D    
C3    H3    S    
N11   N19   A    
C13   C22   S    
C76   N20   A    
C53   H25   S    
C22   H6    S    
N12   N20   A    
C61   C62   A    
N10   Ni1   S    
C9    C65   A    
C34   C89   S    
N30   Ni1   S    
N18   Ni6   S    
C87   N31   A    
C63   C64   A    
C12   C60   S    
C69   S1    S    
N6    N26   A    
C19   S7    S    
O15   H61   S    
C44   H24   S    
C85   N29   A    
C32   H16   S    
S3    O8    D    
C67   N11   A    
C66   H38   S    
C85   H53   S    
C68   N12   A    
O21   H63   S    
C20   C24   D    
C30   H14   S    
C70   N14   A    
C81   N25   A    
S1    O2    D    
C4    C92   A    
C54   C57   A    
C17   C21   D    
