data_mof_unit_20978.cif
_audit_creation_date              2012-12-10T17:14:09-0500
_audit_creation_method            fapswitch 2.2
_symmetry_space_group_name_H-M    P1
_symmetry_Int_Tables_number       1
_space_group_crystal_system       triclinic
_cell_length_a                    15.995977
_cell_length_b                    13.063578
_cell_length_c                    11.869947
_cell_angle_alpha                 100.794373
_cell_angle_beta                  94.968206
_cell_angle_gamma                 95.682549
_cell_volume                      2410.46888403

loop_
_atom_site_label
_atom_site_type_symbol
_atom_type_description
_atom_site_fract_x
_atom_site_fract_y
_atom_site_fract_z
_atom_type_partial_charge
C1    C     C_R   0.499172 0.298751 0.476500 0.808390
C2    C     C_3   0.956813 0.444932 0.612778 -0.210382
C3    C     C_3   0.914995 0.474431 0.499403 0.072361
C4    C     C_3   0.957266 0.585153 0.489206 -0.174304
C5    C     C_3   0.054541 0.584454 0.485585 -0.223531
C6    C     C_1   0.822884 0.478707 0.504205 0.013242
C7    C     C_1   0.174467 0.481846 0.490617 -0.068920
C8    C     C_1   0.250322 0.490788 0.494139 -0.166887
C9    C     C_R   0.493419 0.816184 0.540648 -0.164026
C10   C     C_R   0.496018 0.183281 0.458072 -0.118528
C11   C     C_R   0.440641 0.008727 0.349856 -0.068540
C12   C     C_R   0.340317 0.498156 0.498548 0.855710
C13   C     C_R   0.468044 0.115625 0.350610 -0.074240
C14   C     C_R   0.521821 0.140006 0.551008 -0.260897
C15   C     C_R   0.515722 0.031528 0.542473 0.100704
C16   C     C_R   0.465140 0.964178 0.447615 -0.037143
C17   C     C_R   0.449364 0.855384 0.452334 -0.103326
C18   C     C_R   0.537848 0.886391 0.637871 -0.087796
C19   C     C_R   0.556874 0.992090 0.631841 -0.097808
C20   C     C_R   0.407982 0.418379 0.018768 -0.337915
C21   C     C_R   0.415751 0.423193 0.139161 0.195797
C22   C     C_R   0.539719 0.545213 0.160340 0.134724
C23   C     C_R   0.498920 0.701143 0.523454 0.855152
C24   C     C_R   0.535264 0.537352 0.036111 -0.053944
C25   C     C_R   0.467723 0.472376 0.965869 0.031743
C26   C     C_R   0.457773 0.466505 0.843900 0.019597
C27   C     C_R   0.585111 0.578032 0.856016 0.096705
C28   C     C_R   0.593558 0.593734 0.978092 -0.180436
C29   C     C_R   0.659481 0.496952 0.500966 0.798246
C30   C     C_3   0.055161 0.444554 0.608124 -0.169188
C31   C     C_3   0.032645 0.387673 0.385491 -0.198667
C32   C     C_3   0.934302 0.384715 0.397339 -0.197823
C33   C     C_1   0.748284 0.486902 0.503578 -0.119320
C34   C     C_3   0.081743 0.471296 0.490200 0.127629
Cu1   Cu    Cu3+1 0.506190 0.507730 0.615930 0.993248
Cu2   Cu    Cu3+1 0.493810 0.492270 0.384070 1.001751
H1    H     H_    0.928216 0.363738 0.608721 0.127566
H2    H     H_    0.086744 0.511210 0.675119 0.131922
H3    H     H_    0.549160 0.191967 0.630663 0.170124
H4    H     H_    0.404233 0.417993 0.791728 0.118623
H5    H     H_    0.353711 0.372142 0.965860 0.144525
H6    H     H_    0.046478 0.417900 0.308620 0.187632
H7    H     H_    0.914709 0.308603 0.422137 0.097909
H8    H     H_    0.082244 0.632775 0.570423 0.118570
H9    H     H_    0.947513 0.638134 0.570317 0.115899
N1    N     N_R   0.515490 0.519350 0.790130 -0.217793
N2    N     N_R   0.484510 0.480650 0.209890 -0.219289
O1    O     O_R   0.504390 0.354460 0.582000 -0.599286
O2    O     O_R   0.493940 0.341410 0.386200 -0.535544
O3    O     O_R   0.384660 0.506540 0.597940 -0.581770
O4    O     O_R   0.374210 0.493480 0.402140 -0.556853
O5    O     O_R   0.506060 0.658590 0.613800 -0.517742
O6    O     O_R   0.495610 0.645540 0.418000 -0.580110
O7    O     O_R   0.625790 0.506520 0.597860 -0.571037
O8    O     O_R   0.615340 0.493460 0.402060 -0.589601
C35   C     C_R   0.935486 0.504044 0.729547 0.128494
C36   C     C_R   0.975129 0.605337 0.782362 -0.142397
C37   C     C_R   0.964537 0.648851 0.896307 -0.152033
C38   C     C_R   0.914802 0.592449 0.959851 -0.047034
C39   C     C_R   0.873120 0.493791 0.908414 -0.000120
C40   C     C_R   0.882834 0.450156 0.794254 -0.118189
H10   H     H_    0.017990 0.649705 0.739206 0.107242
H11   H     H_    0.996859 0.725456 0.936417 0.128770
H12   H     H_    0.909030 0.625105 0.049088 0.137095
H13   H     H_    0.832594 0.451174 0.956512 0.135635
H14   H     H_    0.850643 0.372749 0.757467 0.108929
C41   C     C_2   0.915790 0.638993 0.399944 0.805395
O9    O     O_2   0.929723 0.734522 0.412247 -0.617200
O10   O     O_R   0.864544 0.582354 0.303482 -0.759551
H15   H     H_    0.848705 0.627952 0.247052 0.336430
C42   C     C_2   0.378416 0.781256 0.383115 0.880228
O11   O     O_2   0.377556 0.751057 0.279347 -0.591376
O12   O     O_R   0.320239 0.731454 0.442222 -0.780764
H16   H     H_    0.283123 0.670961 0.389391 0.342339
C43   C     C_2   0.552787 0.855000 0.751417 0.935917
O13   O     O_2   0.621293 0.879170 0.809481 -0.549548
O14   O     O_R   0.486149 0.802672 0.795104 -0.735014
H17   H     H_    0.503160 0.786985 0.873847 0.342423
C44   C     C_2   0.393381 0.946267 0.243283 0.845907
O15   O     O_2   0.316218 0.933854 0.235035 -0.639481
O16   O     O_R   0.436399 0.907581 0.149731 -0.765240
H18   H     H_    0.396776 0.868117 0.080595 0.345523
C45   C     C_R   0.631615 0.056755 0.703960 0.120435
C46   C     C_R   0.630140 0.097030 0.821840 -0.094321
C47   C     C_R   0.702087 0.155993 0.886743 -0.099835
C48   C     C_R   0.774610 0.178262 0.833956 -0.115844
C49   C     C_R   0.775750 0.140968 0.716031 -0.138671
C50   C     C_R   0.704693 0.080322 0.651306 -0.122219
H19   H     H_    0.574241 0.080148 0.863418 0.139314
H20   H     H_    0.702317 0.183747 0.978177 0.133177
H21   H     H_    0.829924 0.224277 0.884518 0.123267
H22   H     H_    0.831774 0.158660 0.674869 0.121608
H23   H     H_    0.706416 0.051883 0.559951 0.117295
C51   C     C_R   0.483888 0.150736 0.240318 0.162169
C52   C     C_R   0.565350 0.197037 0.229171 -0.068515
C53   C     C_R   0.581623 0.236003 0.130623 -0.109566
C54   C     C_R   0.518733 0.222656 0.038330 -0.160086
C55   C     C_R   0.438748 0.172455 0.045640 -0.154875
C56   C     C_R   0.420736 0.138519 0.146772 -0.043224
H24   H     H_    0.615571 0.206631 0.299003 0.125715
H25   H     H_    0.642926 0.277360 0.126563 0.157842
H26   H     H_    0.531535 0.252758 0.961821 0.138422
H27   H     H_    0.389702 0.163424 0.974529 0.127548
H28   H     H_    0.356768 0.106256 0.152891 0.145489
C57   C     C_R   0.089782 0.348770 0.644886 0.121413
C58   C     C_R   0.168105 0.363425 0.713897 -0.157417
C59   C     C_R   0.202518 0.278578 0.748518 -0.115686
C60   C     C_R   0.159115 0.177878 0.716614 -0.113222
C61   C     C_R   0.081365 0.161576 0.649256 -0.132654
C62   C     C_R   0.046840 0.245815 0.613285 -0.127979
H29   H     H_    0.203498 0.440647 0.739717 0.133666
H30   H     H_    0.263186 0.290773 0.799687 0.115942
H31   H     H_    0.186041 0.112320 0.743411 0.128680
H32   H     H_    0.048271 0.083120 0.623193 0.140979
H33   H     H_    0.988576 0.228010 0.556768 0.115031
C63   C     C_2   0.659657 0.614836 0.802035 0.933557
O17   O     O_2   0.725787 0.577842 0.818122 -0.608545
O18   O     O_R   0.655991 0.690249 0.733792 -0.722576
H34   H     H_    0.711739 0.707760 0.702954 0.320784
C64   C     C_2   0.665361 0.670469 0.037969 0.840731
O19   O     O_2   0.661390 0.764277 0.043327 -0.565438
O20   O     O_R   0.740328 0.635572 0.075701 -0.768534
H35   H     H_    0.785700 0.696558 0.106816 0.321988
C65   C     C_2   0.341156 0.374862 0.184506 0.863499
O21   O     O_2   0.270288 0.388849 0.147336 -0.609518
O22   O     O_R   0.349850 0.311177 0.265628 -0.753006
H36   H     H_    0.293593 0.282509 0.287412 0.315518
C66   C     C_R   0.588234 0.640761 0.234246 0.102881
C67   C     C_R   0.558402 0.738258 0.233044 -0.068502
C68   C     C_R   0.604477 0.831138 0.295426 -0.074677
C69   C     C_R   0.679544 0.827414 0.362495 -0.130267
C70   C     C_R   0.711483 0.731778 0.360560 -0.165221
C71   C     C_R   0.668638 0.639947 0.291188 -0.075024
H37   H     H_    0.501968 0.742032 0.178006 0.200324
H38   H     H_    0.582552 0.906017 0.291108 0.165553
H39   H     H_    0.714397 0.898834 0.412818 0.134654
H40   H     H_    0.770316 0.729571 0.410937 0.177329
H41   H     H_    0.698739 0.568738 0.280045 0.199838
C72   C     C_R   0.060981 0.275972 0.353984 0.107252
C73   C     C_R   0.136740 0.245342 0.401948 -0.107047
C74   C     C_R   0.161053 0.145873 0.364011 -0.159006
C75   C     C_R   0.111821 0.074685 0.275705 -0.087161
C76   C     C_R   0.038023 0.102606 0.225149 -0.126628
C77   C     C_R   0.013328 0.201829 0.262825 -0.135284
H42   H     H_    0.178053 0.294496 0.470729 0.145128
H43   H     H_    0.218711 0.124216 0.403133 0.144520
H44   H     H_    0.131165 0.998260 0.245838 0.140275
H45   H     H_    0.000041 0.047555 0.155601 0.137692
H46   H     H_    0.956674 0.219333 0.218415 0.149316
C78   C     C_2   0.879663 0.376342 0.283684 0.904338
O23   O     O_2   0.803737 0.348970 0.277504 -0.619657
O24   O     O_R   0.915341 0.394064 0.184614 -0.789734
H47   H     H_    0.872168 0.379874 0.114316 0.322496
C79   C     C_R   0.091665 0.645739 0.397946 0.134707
C80   C     C_R   0.136518 0.746449 0.439919 -0.094263
C81   C     C_R   0.162834 0.810430 0.364325 -0.070001
C82   C     C_R   0.146541 0.774521 0.245467 -0.078267
C83   C     C_R   0.100982 0.676700 0.202084 -0.147557
C84   C     C_R   0.071931 0.614102 0.277138 -0.105184
H48   H     H_    0.150336 0.776905 0.531690 0.129268
H49   H     H_    0.196950 0.887385 0.398191 0.148878
H50   H     H_    0.167538 0.823059 0.186579 0.166429
H51   H     H_    0.085578 0.650692 0.109905 0.141436
H52   H     H_    0.028831 0.546147 0.238760 0.181332

loop_
_geom_bond_atom_site_label_1
_geom_bond_atom_site_label_2
_ccdc_geom_bond_type
C49   C50   A    
C82   C83   A    
C31   H6    S    
C29   C33   S    
O12   H16   S    
C52   C53   A    
C57   C62   A    
C3    C6    S    
C66   C67   A    
C20   H5    S    
C23   O5    A    
C36   H10   S    
O14   H17   S    
C35   C36   A    
C15   C19   A    
C38   H12   S    
O22   H36   S    
C81   C82   A    
C76   C77   A    
C2    C3    S    
C48   H21   S    
C20   C25   A    
C55   H27   S    
C54   C55   A    
C42   O12   S    
C60   C61   A    
C30   H2    S    
Cu2   N2    S    
C18   C19   A    
C72   C77   A    
O18   H34   S    
Cu2   O6    S    
C14   H3    S    
C40   H14   S    
C45   C46   A    
C70   C71   A    
C59   C60   A    
C18   C43   S    
C54   H26   S    
C58   H29   S    
C27   C63   S    
C45   C50   A    
C71   H41   S    
C38   C39   A    
C53   H25   S    
C53   C54   A    
Cu1   O7    S    
C5    C79   S    
C51   C52   A    
C66   C71   A    
C19   C45   S    
Cu1   O1    S    
C64   O20   S    
C23   O6    A    
C4    H9    S    
C76   H45   S    
C47   H20   S    
C80   C81   A    
C30   C34   S    
C41   O9    D    
C7    C8    T    
C46   C47   A    
C24   C25   A    
C52   H24   S    
C69   H39   S    
C10   C14   A    
C44   O16   S    
C48   C49   A    
C16   C17   A    
C29   O8    A    
C25   C26   A    
C47   C48   A    
C10   C13   A    
O16   H18   S    
C44   O15   D    
C39   C40   A    
C41   O10   S    
Cu1   Cu2   S    
C60   H31   S    
C43   O13   D    
C77   H46   S    
C11   C16   A    
C22   C66   S    
C31   C32   S    
C84   H52   S    
C8    C12   S    
C5    C34   S    
Cu1   O3    S    
C31   C34   S    
C3    C32   S    
C59   H30   S    
C58   C59   A    
C73   C74   A    
C43   O14   S    
C79   C80   A    
Cu2   O4    S    
C11   C44   S    
C74   H43   S    
C83   H51   S    
C27   N1    A    
C9    C17   A    
C68   H38   S    
C39   H13   S    
C17   C42   S    
C30   C57   S    
C28   C64   S    
C83   C84   A    
C7    C34   S    
C22   C24   A    
C46   H19   S    
C31   C72   S    
C3    C4    S    
Cu1   O5    S    
C12   O4    A    
C64   O19   D    
C65   O22   S    
C67   C68   A    
C37   H11   S    
C50   H23   S    
C80   H48   S    
C35   C40   A    
C75   H44   S    
C5    H8    S    
C9    C23   S    
C1    C10   S    
C24   C28   A    
C4    C5    S    
C69   C70   A    
C73   H42   S    
C81   H49   S    
C4    C41   S    
C12   O3    A    
C72   C73   A    
C1    O1    A    
C57   C58   A    
C78   O23   D    
C6    C33   T    
C13   C51   S    
C2    C30   S    
C21   C65   S    
C68   C69   A    
C37   C38   A    
C42   O11   D    
Cu2   O8    S    
C2    C35   S    
C74   C75   A    
C11   C13   A    
C2    H1    S    
C26   H4    S    
C36   C37   A    
C51   C56   A    
C61   H32   S    
C82   H50   S    
C32   H7    S    
C63   O18   S    
C63   O17   D    
C56   H28   S    
C78   O24   S    
O10   H15   S    
C22   N2    A    
C26   N1    A    
C67   H37   S    
C9    C18   A    
C79   C84   A    
C32   C78   S    
C20   C21   A    
C55   C56   A    
C29   O7    A    
C61   C62   A    
C27   C28   A    
C75   C76   A    
C14   C15   A    
O24   H47   S    
C70   H40   S    
O20   H35   S    
C49   H22   S    
Cu1   N1    S    
C1    O2    A    
C62   H33   S    
Cu2   O2    S    
C15   C16   A    
C65   O21   D    
C21   N2    A    
