data_mof_unit_42614.cif
_audit_creation_date              2012-12-11T16:22:24-0500
_audit_creation_method            fapswitch 2.2
_symmetry_space_group_name_H-M    P1
_symmetry_Int_Tables_number       1
_space_group_crystal_system       triclinic
_cell_length_a                    16.90198
_cell_length_b                    16.885026
_cell_length_c                    19.434343
_cell_angle_alpha                 118.042974
_cell_angle_beta                  62.361629
_cell_angle_gamma                 100.665507
_cell_volume                      4332.75938254

loop_
_atom_site_label
_atom_site_type_symbol
_atom_type_description
_atom_site_fract_x
_atom_site_fract_y
_atom_site_fract_z
_atom_type_partial_charge
C1    C     C_R   0.020134 0.759856 0.031149 -0.123200
C2    C     C_R   0.742710 0.544566 0.252362 0.017835
C3    C     C_R   0.742351 0.459467 0.935002 0.051633
C4    C     C_R   0.053582 0.737620 0.244066 0.043935
C5    C     C_R   0.261460 0.515936 0.960025 -0.123072
C6    C     C_R   0.978805 0.248589 0.826058 -0.060615
C7    C     C_R   0.160552 0.504820 0.757218 -0.137501
C8    C     C_R   0.025172 0.315947 0.078175 -0.131197
C9    C     C_R   0.943262 0.249463 0.007378 -0.009249
C10   C     C_R   0.239715 0.571751 0.832905 -0.146257
C11   C     C_R   0.194741 0.437463 0.036247 -0.125883
C12   C     C_R   0.749405 0.479394 0.171585 -0.109533
C13   C     C_R   0.043621 0.328197 0.751083 -0.129724
C14   C     C_R   0.276267 0.449745 0.976430 0.061504
C15   C     C_R   0.035849 0.242131 0.743909 -0.006028
C16   C     C_R   0.240057 0.545987 0.754176 0.043992
C17   C     C_R   0.981978 0.237152 0.051038 -0.043506
C18   C     C_R   0.064146 0.861971 0.457624 -0.161844
C19   C     C_R   0.039416 0.801638 0.392885 -0.170234
C20   C     C_R   0.086586 0.795063 0.308980 0.141720
C21   C     C_R   0.163642 0.844141 0.288917 -0.161879
C22   C     C_R   0.188813 0.904448 0.353889 -0.176091
C23   C     C_R   0.816289 0.509300 0.912242 -0.144675
C24   C     C_R   0.136388 0.917116 0.439647 0.116904
C25   C     C_R   0.144519 0.081810 0.508214 -0.166011
C26   C     C_R   0.114915 0.161337 0.583682 -0.157517
C27   C     C_R   0.081369 0.160842 0.664422 0.150147
C28   C     C_R   0.087650 0.081128 0.667808 -0.164179
C29   C     C_R   0.117743 0.001252 0.591900 -0.176472
C30   C     C_R   0.140719 0.000311 0.512175 0.113814
C31   C     C_R   0.499193 0.601798 0.409450 -0.151383
C32   C     C_R   0.575495 0.585778 0.331295 -0.032378
C33   C     C_R   0.660899 0.594198 0.330823 0.028548
C34   C     C_R   0.008749 0.660120 0.241489 -0.147906
C35   C     C_R   0.666242 0.642754 0.410306 -0.138702
C36   C     C_R   0.589837 0.664991 0.487622 -0.176932
C37   C     C_R   0.507194 0.634971 0.486950 0.069476
C38   C     C_R   0.459891 0.595849 0.608147 -0.164149
C39   C     C_R   0.395430 0.572116 0.671251 -0.178341
C40   C     C_R   0.305698 0.572947 0.688279 0.140597
C41   C     C_R   0.280254 0.600934 0.643688 -0.164986
C42   C     C_R   0.344985 0.626759 0.581286 -0.176777
C43   C     C_R   0.435754 0.622982 0.561919 0.133640
C44   C     C_R   0.675181 0.431914 0.901055 0.130624
C45   C     C_R   0.750072 0.431215 0.987968 -0.111354
C46   C     C_R   0.362794 0.405869 0.941121 0.128909
C47   C     C_R   0.455330 0.331289 0.959799 -0.202163
C48   C     C_R   0.371453 0.350053 0.972918 -0.166463
C49   C     C_R   0.439577 0.429996 0.884307 -0.275745
C50   C     C_R   0.522822 0.417205 0.876180 0.187726
C51   C     C_R   0.529916 0.371120 0.917787 0.178450
C52   C     C_R   0.607712 0.375609 0.926608 -0.256369
C53   C     C_R   0.671755 0.469331 0.851346 -0.172079
C54   C     C_R   0.596354 0.460328 0.837382 -0.223457
C55   C     C_R   0.805229 0.189277 0.205083 0.114007
C56   C     C_R   0.075764 0.738467 0.166206 -0.130788
C57   C     C_R   0.916745 0.863538 0.040822 0.129072
C58   C     C_R   0.803411 0.949657 0.056313 -0.227479
C59   C     C_R   0.847640 0.867927 0.021265 -0.169909
C60   C     C_R   0.942021 0.943790 0.094954 -0.278492
C61   C     C_R   0.897553 0.026064 0.130796 0.190613
C62   C     C_R   0.827089 0.028862 0.111867 0.179620
C63   C     C_R   0.781133 0.110797 0.149534 -0.291698
C64   C     C_R   0.875214 0.186779 0.223360 -0.159259
C65   C     C_R   0.921444 0.105607 0.186380 -0.224318
C66   C     C_R   0.828846 0.551629 0.246846 -0.112313
C67   C     C_R   0.940422 0.690762 0.955127 -0.135602
C68   C     C_R   0.959224 0.775373 0.008358 0.054977
H1    H     H_    0.049586 0.809173 0.072024 0.093238
H2    H     H_    0.959685 0.193611 0.843051 0.108161
H3    H     H_    0.133236 0.489218 0.711984 0.088350
H4    H     H_    0.051643 0.334816 0.124598 0.101627
H5    H     H_    0.283913 0.618672 0.857479 0.093521
H6    H     H_    0.181719 0.392241 0.064628 0.092691
H7    H     H_    0.083878 0.349004 0.700771 0.099309
H8    H     H_    0.021419 0.871073 0.523207 0.115746
H9    H     H_    0.979901 0.764285 0.410019 0.108487
H10   H     H_    0.202906 0.838063 0.223963 0.109937
H11   H     H_    0.696577 0.452393 0.151758 0.101542
H12   H     H_    0.245505 0.945548 0.338384 0.116393
H13   H     H_    0.161122 0.083382 0.447952 0.116072
H14   H     H_    0.112052 0.221557 0.578365 0.108650
H15   H     H_    0.065451 0.079380 0.728994 0.106723
H16   H     H_    0.115996 0.939221 0.596192 0.115369
H17   H     H_    0.434530 0.584446 0.408813 0.154174
H18   H     H_    0.729356 0.658182 0.414147 0.108982
H19   H     H_    0.596906 0.697259 0.547481 0.114721
H20   H     H_    0.529128 0.588830 0.593184 0.115132
H21   H     H_    0.839230 0.530567 0.861804 0.087965
H22   H     H_    0.416082 0.550114 0.704875 0.113001
H23   H     H_    0.210649 0.603488 0.657528 0.112195
H24   H     H_    0.324140 0.648263 0.547555 0.116160
H25   H     H_    0.610341 0.343059 0.961924 0.127816
H26   H     H_    0.723990 0.510691 0.828213 0.114026
H27   H     H_    0.460336 0.293892 0.990284 0.135481
H28   H     H_    0.592196 0.494765 0.804030 0.125105
H29   H     H_    0.313719 0.326431 0.013341 0.117915
H30   H     H_    0.434693 0.468350 0.854780 0.115954
H31   H     H_    0.726753 0.114313 0.136143 0.138009
H32   H     H_    0.995687 0.630077 0.283952 0.092676
H33   H     H_    0.893562 0.247981 0.266254 0.120176
H34   H     H_    0.749853 0.950689 0.040811 0.131749
H35   H     H_    0.975337 0.104916 0.201579 0.127219
H36   H     H_    0.826145 0.808156 0.979984 0.116140
H37   H     H_    0.995332 0.942812 0.110619 0.118078
H38   H     H_    0.712265 0.380826 0.008063 0.128289
H39   H     H_    0.122199 0.781989 0.140776 0.085266
H40   H     H_    0.849571 0.595571 0.296766 0.093647
H41   H     H_    0.896145 0.676005 0.925033 0.092332
H42   H     H_    0.309568 0.544328 0.918324 0.091876
N1    N     N_R   0.034930 0.670790 0.995440 -0.040627
N2    N     N_R   0.954880 0.335850 0.881080 -0.026600
N3    N     N_R   0.115060 0.502430 0.834090 -0.038518
N4    N     N_R   0.014160 0.371890 0.051540 -0.052080
N5    N     N_R   0.965070 0.329210 0.004560 -0.043420
N6    N     N_R   0.164150 0.545120 0.881070 -0.036935
N7    N     N_R   0.133000 0.490740 0.051540 -0.040820
N8    N     N_R   0.996220 0.383590 0.834100 -0.045715
N9    N     N_R   0.835850 0.454880 0.118930 -0.029671
N10   N     N_R   0.867000 0.509260 0.948460 -0.043662
N11   N     N_R   0.003780 0.616410 0.165900 -0.039007
N12   N     N_R   0.825670 0.461520 0.995440 -0.039563
N13   N     N_R   0.045120 0.664150 0.118920 -0.037852
N14   N     N_R   0.884940 0.497570 0.165910 -0.046869
N15   N     N_R   0.985840 0.628110 0.948460 -0.040748
N16   N     N_R   0.174330 0.538480 0.004560 -0.041490
Ni1   Ni    Ni4+2 0.103690 0.603690 0.000000 0.207926
Ni2   Ni    Ni4+2 0.896310 0.396310 0.000000 0.281767
Ni3   Ni    Ni4+2 0.991110 0.505800 0.892250 0.207275
Ni4   Ni    Ni4+2 0.008890 0.494200 0.107750 0.208149
C69   C     C_2   0.867726 0.197481 0.993129 0.425065
H43   H     H_    0.856990 0.131963 0.992755 0.024928
O1    O     O_2   0.815498 0.228177 0.983706 -0.600687
C70   C     C_2   0.564016 0.565038 0.253478 0.472411
H44   H     H_    0.617020 0.577936 0.201078 0.014489
O2    O     O_2   0.494451 0.535730 0.247897 -0.581681

loop_
_geom_bond_atom_site_label_1
_geom_bond_atom_site_label_2
_ccdc_geom_bond_type
C58   C62   A    
C32   C70   S    
N16   Ni1   S    
C31   H17   S    
C41   C42   A    
C3    C23   A    
C19   C20   A    
N11   Ni4   S    
C2    C12   A    
N4    N5    A    
C14   C46   S    
N9    N14   A    
C48   H29   S    
C46   C49   A    
C26   C27   A    
C50   C54   A    
N3    Ni3   S    
C18   C24   A    
C59   H36   S    
C28   C29   A    
C67   N15   A    
C7    H3    S    
C38   C39   A    
C10   H5    S    
C57   C59   A    
C5    H42   S    
C12   H11   S    
C1    C68   A    
C18   C19   A    
C19   H9    S    
C63   H31   S    
C33   C35   A    
C49   H30   S    
N13   Ni1   S    
C44   C53   A    
C67   H41   S    
C13   H7    S    
N6    Ni1   S    
C55   C63   A    
C21   H10   S    
N1    N15   A    
C34   H32   S    
C23   H21   S    
C58   H34   S    
N7    N16   A    
C39   H22   S    
C54   H28   S    
C8    N4    A    
N3    N6    A    
N9    Ni2   S    
C44   C52   A    
C6    C15   A    
C26   H14   S    
C21   C22   A    
C4    C56   A    
C28   H15   S    
C25   H13   S    
N4    Ni4   S    
N10   N12   A    
C13   N8    A    
C46   C48   A    
C9    C69   S    
C36   H19   S    
C64   H33   S    
C4    C34   A    
C3    C44   S    
C8    H4    S    
N2    Ni2   S    
C67   C68   A    
C9    N5    A    
C56   N13   A    
C29   H16   S    
C23   N10   A    
C57   C60   A    
C70   O2    D    
C69   O1    D    
C58   C59   A    
C53   C54   A    
C3    C45   A    
C1    H1    S    
N5    Ni2   S    
N10   Ni3   S    
C38   H20   S    
C60   C61   A    
C35   C36   A    
C37   C43   S    
C56   H39   S    
C29   C30   A    
C61   C65   A    
C12   N9    A    
C15   C27   S    
C47   C48   A    
C55   C64   A    
C62   C63   A    
C50   C51   A    
N14   Ni4   S    
C52   H25   S    
N7    Ni4   S    
C5    C14   A    
C16   C40   S    
C2    C33   S    
C9    C17   A    
C40   C41   A    
C41   H23   S    
C34   N11   A    
C13   C15   A    
N15   Ni3   S    
N1    Ni1   S    
C22   C24   A    
C42   C43   A    
C65   H35   S    
C57   C68   S    
C69   H43   S    
C11   N7    A    
C39   C40   A    
C10   N6    A    
C45   H38   S    
C25   C30   A    
C6    H2    S    
C7    C16   A    
C18   H8    S    
C42   H24   S    
C53   H26   S    
C6    N2    A    
C31   C32   A    
C66   H40   S    
C2    C66   A    
C11   H6    S    
C47   C51   A    
C70   H44   S    
C45   N12   A    
C8    C17   A    
C32   C33   A    
C7    N3    A    
C25   C26   A    
C22   H12   S    
C51   C52   A    
N8    Ni3   S    
C10   C16   A    
C64   C65   A    
N2    N8    A    
C11   C14   A    
C66   N14   A    
N12   Ni2   S    
C61   C62   A    
C5    N16   A    
C24   C30   S    
N11   N13   A    
C4    C20   S    
C31   C37   A    
C38   C43   A    
C20   C21   A    
C36   C37   A    
C49   C50   A    
C27   C28   A    
C47   H27   S    
C35   H18   S    
C1    N1    A    
C60   H37   S    
