data_mof_unit_68569.cif
_audit_creation_date              2013-03-05T15:40:26-0500
_audit_creation_method            fapswitch 2.2
_symmetry_space_group_name_H-M    P1
_symmetry_Int_Tables_number       1
_space_group_crystal_system       triclinic
_cell_length_a                    7.802488
_cell_length_b                    8.625008
_cell_length_c                    10.47782
_cell_angle_alpha                 89.726463
_cell_angle_beta                  86.442772
_cell_angle_gamma                 92.610011
_cell_volume                      703.011813874

loop_
_atom_site_label
_atom_site_type_symbol
_atom_site_description
_atom_site_fract_x
_atom_site_fract_y
_atom_site_fract_z
_atom_type_partial_charge
O1    O     O_R   0.389250 0.738570 0.508280 -0.592730
O2    O     O_R   0.678390 0.711630 0.486650 -0.600066
C1    C     C_R   0.544938 0.794394 0.497501 0.973414
O3    O     O_R   0.355400 0.513470 0.694050 -0.581869
O4    O     O_R   0.644540 0.486530 0.672420 -0.605472
C2    C     C_R   0.493582 0.456224 0.733443 0.908840
Zn1   Zn    Zn3+2 0.306930 0.517990 0.514440 0.998441
Zn2   Zn    Zn3+2 0.693070 0.482010 0.485560 0.984553
O5    O     O_R   0.321610 0.288370 0.513350 -0.620799
O6    O     O_R   0.610750 0.261430 0.491720 -0.642937
O7    O     O_R   0.355460 0.513470 0.327580 -0.637472
O8    O     O_R   0.644600 0.486530 0.305950 -0.572172
C3    C     C_R   0.454966 0.205544 0.502636 0.935472
C4    C     C_R   0.497482 0.497701 0.257309 0.855655
H1    H     H_    0.739002 0.333308 0.870020 0.189286
C5    C     C_R   0.162927 0.405989 0.888482 0.106950
C6    C     C_R   0.047316 0.519451 0.918251 -0.220756
H2    H     H_    0.942327 0.526838 0.857567 0.170074
C7    C     C_R   0.075235 0.623934 0.018806 0.578923
C8    C     C_R   0.216753 0.600798 0.093520 -0.239174
H3    H     H_    0.238139 0.679875 0.171349 0.177693
C9    C     C_R   0.340396 0.490660 0.056451 -0.099273
C10   C     C_R   0.324518 0.416906 0.939717 0.066890
C11   C     C_R   0.477914 0.395075 0.865383 -0.139999
C12   C     C_R   0.624354 0.360822 0.926558 -0.356876
C13   C     C_R   0.630220 0.387102 0.057992 0.457069
C14   C     C_R   0.490230 0.463848 0.121428 -0.189663
C15   C     C_2   0.568783 0.957224 0.499057 -0.395529
H4    H     H_    0.699620 0.006553 0.497084 0.204989
C16   C     C_2   0.430804 0.042710 0.503514 -0.348161
H5    H     H_    0.299697 0.993587 0.506697 0.209697
N1    N     N_2   0.950330 0.457950 0.466250 -0.127946
H6    H     H_    0.013207 0.374520 0.414319 0.173250
N2    N     N_2   0.049670 0.542050 0.533750 0.021740
I1    I     I_    0.975435 0.733846 0.638381 -0.250223
I2    I     I_    0.092055 0.222093 0.765940 -0.408879
O9    O     O_3   0.986635 0.760174 0.035479 -0.662148
C17   C     C_3   0.806151 0.741612 0.024331 0.139990
H7    H     H_    0.742396 0.728932 0.121848 0.153334
H8    H     H_    0.765064 0.640469 0.970033 0.161537
C18   C     C_3   0.738164 0.883711 0.958865 -0.395307
H9    H     H_    0.696963 0.966355 0.033152 0.205420
H10   H     H_    0.840558 0.939931 0.893673 0.280542
C19   C     C_3   0.581442 0.844182 0.882579 -0.867836
H11   H     H_    0.615750 0.764766 0.803099 0.280249
H12   H     H_    0.534710 0.952133 0.841228 0.277196
H13   H     H_    0.476395 0.788804 0.945626 0.262144
O10   O     O_3   0.788307 0.391470 0.112910 -0.648744
C20   C     C_3   0.870847 0.249316 0.108367 0.077700
H14   H     H_    0.010849 0.278483 0.107088 0.191250
H15   H     H_    0.851346 0.182921 0.020231 0.137347
C21   C     C_3   0.822598 0.152630 0.229248 -0.379106
H16   H     H_    0.809348 0.231105 0.311372 0.277291
H17   H     H_    0.696757 0.089401 0.221156 0.196927
C22   C     C_3   0.961585 0.040072 0.257040 -0.917688
H18   H     H_    0.013141 0.987112 0.167743 0.314226
H19   H     H_    0.908334 0.946881 0.323459 0.279132
H20   H     H_    0.069825 0.102999 0.301573 0.253601

loop_
_geom_bond_atom_site_label_1
_geom_bond_atom_site_label_2
_geom_bond_distance
_ccdc_geom_bond_type
O4    Zn2   1.971875 S    
Zn1   O7    1.971875 S    
C10   C11   1.407416 A    
C19   H13   1.109264 S    
O9    C17   1.422124 S    
C4    C14   1.458748 S    
C18   H9    1.101094 S    
C7    C8    1.413410 A    
C21   C22   1.528290 S    
C13   O10   1.392131 S    
Zn2   O8    1.942970 S    
C20   C21   1.530848 S    
C2    C11   1.473241 S    
N1    H6    1.028260 S    
C8    H3    1.081603 S    
C22   H18   1.104533 S    
C15   C16   1.330873 D    
C6    H2    1.071638 S    
C21   H17   1.109354 S    
C11   C12   1.386896 A    
C17   H8    1.090577 S    
C18   H10   1.110779 S    
C15   H4    1.086889 S    
C13   C14   1.432817 A    
C17   H7    1.111008 S    
O3    Zn1   1.942970 S    
O4    C2    1.319614 A    
Zn2   O6    1.979553 S    
O10   C20   1.410308 S    
C6    C7    1.410420 A    
O8    C4    1.291846 A    
O2    C1    1.288599 A    
C5    C10   1.400135 A    
C9    C14   1.416199 A    
C22   H19   1.109673 S    
C16   H5    1.087757 S    
N2    I1    2.073563 S    
C18   C19   1.528512 S    
O2    Zn2   1.989031 S    
H1    C12   1.078134 S    
Zn2   N1    2.025108 S    
C3    C16   1.408419 S    
C21   H16   1.100058 S    
C17   C18   1.533084 S    
O3    C2    1.295515 A    
C20   H14   1.108985 S    
Zn1   N2    2.025108 S    
O7    C4    1.304602 A    
Zn1   O5    1.989031 S    
C22   H20   1.111364 S    
C9    C10   1.391067 A    
C1    C15   1.408562 S    
O5    C3    1.288241 A    
C7    O9    1.396484 S    
C20   H15   1.103827 S    
C12   C13   1.399944 A    
O1    Zn1   1.979553 S    
C19   H12   1.110967 S    
C5    I2    2.120792 S    
C19   H11   1.108521 S    
C8    C9    1.422825 A    
C5    C6    1.384577 A    
O1    C1    1.284290 A    
O6    C3    1.285195 A    
N1    N2    1.284078 D    
