data_mof_unit_61644.cif
_audit_creation_date              2013-03-05T16:01:27-0500
_audit_creation_method            fapswitch 2.2
_symmetry_space_group_name_H-M    P1
_symmetry_Int_Tables_number       1
_space_group_crystal_system       triclinic
_cell_length_a                    21.412979
_cell_length_b                    29.188108
_cell_length_c                    29.189575
_cell_angle_alpha                 90.006297
_cell_angle_beta                  89.99998
_cell_angle_gamma                 89.997799
_cell_volume                      18243.6110408

loop_
_atom_site_label
_atom_site_type_symbol
_atom_site_description
_atom_site_fract_x
_atom_site_fract_y
_atom_site_fract_z
_atom_type_partial_charge
O1    O     O_R   1.000000 0.964340 0.063140 -0.584642
O2    O     O_R   1.000000 0.964340 0.936860 -0.584272
O3    O     O_R   0.500000 0.464340 0.563140 -0.584548
O4    O     O_R   0.500000 0.464340 0.436860 -0.584326
O5    O     O_R   1.000000 0.035640 0.063120 -0.605930
O6    O     O_R   1.000000 0.035640 0.936880 -0.606404
O7    O     O_R   0.500000 0.535640 0.563120 -0.606021
O8    O     O_R   0.500000 0.535640 0.436880 -0.606308
C1    C     C_R   0.999995 0.999997 0.086742 0.903383
C2    C     C_R   0.000003 0.999992 0.913258 0.903727
C3    C     C_R   0.500005 0.499997 0.586742 0.903267
C4    C     C_R   0.499996 0.499992 0.413258 0.903459
O9    O     O_R   0.093030 0.964340 0.000000 -0.587632
O10   O     O_R   0.906970 0.964340 0.000000 -0.588257
O11   O     O_R   0.593030 0.464340 0.500000 -0.587984
O12   O     O_R   0.406970 0.464340 0.500000 -0.587617
O13   O     O_R   0.093040 0.035640 0.000000 -0.617418
O14   O     O_R   0.906960 0.035640 0.000000 -0.617632
O15   O     O_R   0.593040 0.535640 0.500000 -0.617530
O16   O     O_R   0.406960 0.535640 0.500000 -0.617411
C5    C     C_R   0.122632 0.999983 0.001505 0.950182
C6    C     C_R   0.877372 0.999989 0.998423 0.951154
C7    C     C_R   0.622629 0.499986 0.498451 0.950735
C8    C     C_R   0.377368 0.499985 0.501506 0.950175
Zn1   Zn    Zn3+2 0.000000 0.952380 0.000000 1.091699
Zn2   Zn    Zn3+2 0.500000 0.452380 0.500000 1.092005
Zn3   Zn    Zn3+2 0.000000 0.047600 0.000000 1.019219
Zn4   Zn    Zn3+2 0.500000 0.547600 0.500000 1.019301
C9    C     C_3   0.229108 0.035979 0.026301 -0.254965
C10   C     C_3   0.770909 0.036564 0.974479 -0.255240
C11   C     C_3   0.771545 0.003369 0.042902 -0.256391
C12   C     C_3   0.228471 0.004289 0.957161 -0.256660
C13   C     C_3   0.728461 0.503755 0.542877 -0.256477
C14   C     C_3   0.271529 0.504291 0.457162 -0.256644
C15   C     C_3   0.270887 0.535984 0.526300 -0.254984
C16   C     C_3   0.729097 0.536317 0.474151 -0.255153
C17   C     C_3   0.269149 0.039179 0.982807 0.394359
C18   C     C_3   0.730878 0.038827 0.018034 0.393780
C19   C     C_3   0.769131 0.538976 0.517683 0.394019
C20   C     C_3   0.230846 0.539182 0.482805 0.394359
C21   C     C_3   0.310683 0.000628 0.000250 -0.162718
C22   C     C_3   0.689322 0.000679 0.999748 -0.162570
C23   C     C_3   0.810680 0.500655 0.499748 -0.162612
C24   C     C_3   0.189317 0.500631 0.500250 -0.162699
C25   C     C_3   0.271276 0.996512 0.044226 -0.271989
C26   C     C_3   0.728724 0.997511 0.955687 -0.271873
C27   C     C_3   0.729252 0.964236 0.024131 -0.263731
C28   C     C_3   0.270743 0.964740 0.975065 -0.264013
C29   C     C_3   0.770747 0.464443 0.524467 -0.263855
C30   C     C_3   0.229261 0.464742 0.475067 -0.264011
C31   C     C_3   0.228723 0.496518 0.544226 -0.271995
C32   C     C_3   0.771277 0.497087 0.455720 -0.271933
C33   C     C_3   0.230754 0.961648 0.018584 0.383234
C34   C     C_3   0.769237 0.962087 0.980548 0.383276
C35   C     C_3   0.730761 0.461897 0.480909 0.383244
C36   C     C_3   0.269250 0.461653 0.518586 0.383226
C37   C     C_3   0.189268 0.000122 0.001097 -0.145980
C38   C     C_3   0.810737 0.000152 0.998882 -0.145975
C39   C     C_3   0.689265 0.500137 0.498890 -0.145971
C40   C     C_3   0.310732 0.500126 0.501097 -0.145983
H1    H     H_    0.289726 0.992523 0.079548 0.191317
H2    H     H_    0.710275 0.994308 0.920285 0.191355
H3    H     H_    0.710815 0.934545 0.043681 0.186387
H4    H     H_    0.289168 0.935482 0.954860 0.186775
H5    H     H_    0.789180 0.434934 0.544293 0.186542
H6    H     H_    0.210840 0.435483 0.454863 0.186773
H7    H     H_    0.210275 0.492529 0.579549 0.191311
H8    H     H_    0.789726 0.493552 0.420349 0.191335
C41   C     C_1   0.000012 0.000007 0.137411 -0.181939
C42   C     C_1   0.999986 0.999994 0.862589 -0.181246
C43   C     C_1   0.499988 0.500007 0.637412 -0.181955
C44   C     C_1   0.500014 0.499994 0.362588 -0.181552
C45   C     C_1   0.000019 0.000007 0.179610 0.025287
C46   C     C_1   0.999978 0.999992 0.820390 0.025494
C47   C     C_1   0.499981 0.500007 0.679610 0.025242
C48   C     C_1   0.500021 0.499992 0.320390 0.025364
C49   C     C_1   0.000019 0.000003 0.229434 0.025922
C50   C     C_1   0.999978 0.999990 0.770566 0.025998
C51   C     C_1   0.499981 0.500004 0.729434 0.025883
C52   C     C_1   0.500021 0.499991 0.270566 0.025930
C53   C     C_1   0.000015 0.000000 0.271633 0.022970
C54   C     C_1   0.999983 0.999989 0.728367 0.023017
C55   C     C_1   0.499985 0.500000 0.771633 0.022941
C56   C     C_1   0.500016 0.499990 0.228367 0.022971
C57   C     C_1   0.000008 0.999996 0.321457 0.018039
C58   C     C_1   0.999991 0.999989 0.678543 0.018053
C59   C     C_1   0.499992 0.499996 0.821458 0.018012
C60   C     C_1   0.500009 0.499989 0.178542 0.018024
C61   C     C_1   0.000003 0.999993 0.363658 -0.186177
C62   C     C_1   0.999997 0.999990 0.636342 -0.186171
C63   C     C_1   0.499997 0.499993 0.863658 -0.186205
C64   C     C_1   0.500003 0.499990 0.136342 -0.186199
O17   O     O_R   0.500000 0.063090 0.964350 -0.591098
O18   O     O_R   0.500000 0.063090 0.035650 -0.590201
O19   O     O_R   1.000000 0.563090 0.464350 -0.590988
O20   O     O_R   1.000000 0.563090 0.535650 -0.590458
C65   C     C_R   0.500010 0.086703 0.000002 0.982791
C66   C     C_R   0.999994 0.586703 0.500002 0.983330
O21   O     O_R   0.406990 0.999940 0.964350 -0.597341
O22   O     O_R   0.593010 0.999940 0.035650 -0.596466
O23   O     O_R   0.593010 0.999940 0.964350 -0.630542
O24   O     O_R   0.406990 0.999940 0.035650 -0.630282
O25   O     O_R   0.906990 0.499940 0.464350 -0.630449
O26   O     O_R   0.093010 0.499940 0.535650 -0.630295
O27   O     O_R   0.093010 0.499940 0.464350 -0.597356
O28   O     O_R   0.906990 0.499940 0.535650 -0.596846
C67   C     C_R   0.377350 0.000374 0.000033 0.989126
C68   C     C_R   0.622651 0.000413 0.999967 0.988131
C69   C     C_R   0.877349 0.500395 0.499967 0.988539
C70   C     C_R   0.122650 0.500375 0.500033 0.989110
Zn5   Zn    Zn3+2 0.500000 0.999950 0.952390 1.024916
Zn6   Zn    Zn3+2 0.500000 0.999950 0.047610 1.025902
Zn7   Zn    Zn3+2 1.000000 0.499950 0.452390 1.024950
Zn8   Zn    Zn3+2 1.000000 0.499950 0.547610 1.025525
O29   O     O_R   0.500000 0.936790 0.964340 -0.605438
O30   O     O_R   0.500000 0.936790 0.035660 -0.605699
O31   O     O_R   1.000000 0.436790 0.464340 -0.605519
O32   O     O_R   1.000000 0.436790 0.535660 -0.605681
C71   C     C_R   0.500000 0.913187 0.999998 0.896585
C72   C     C_R   1.000000 0.413187 0.499998 0.896603
O33   O     O_R   0.052540 0.063140 0.500000 -0.588612
O34   O     O_R   0.947460 0.063140 0.500000 -0.588616
O35   O     O_R   0.552540 0.563140 0.000000 -0.588634
O36   O     O_R   0.447460 0.563140 0.000000 -0.588610
C73   C     C_R   0.999999 0.085641 0.500000 0.874516
C74   C     C_R   0.499999 0.585641 0.000000 0.874525
O37   O     O_R   0.052540 0.999990 0.436840 -0.588753
O38   O     O_R   0.947460 0.999990 0.563160 -0.588732
O39   O     O_R   0.947460 0.999990 0.436840 -0.589094
O40   O     O_R   0.052540 0.999990 0.563160 -0.589116
O41   O     O_R   0.552540 0.499990 0.936840 -0.589112
O42   O     O_R   0.447460 0.499990 0.063160 -0.589109
O43   O     O_R   0.447460 0.499990 0.936840 -0.588750
O44   O     O_R   0.552540 0.499990 0.063160 -0.588753
C75   C     C_R   0.000000 0.999990 0.414334 0.874752
C76   C     C_R   1.000000 0.999990 0.585666 0.874754
C77   C     C_R   0.500000 0.499990 0.914334 0.874761
C78   C     C_R   0.500000 0.499990 0.085666 0.874764
Zn9   Zn    Zn3+2 0.070140 0.999990 0.500000 0.998812
Zn10  Zn    Zn3+2 0.929860 0.999990 0.500000 0.998831
Zn11  Zn    Zn3+2 0.570140 0.499990 0.000000 0.998723
Zn12  Zn    Zn3+2 0.429860 0.499990 0.000000 0.998794
O45   O     O_R   0.052520 0.936840 0.500000 -0.588559
O46   O     O_R   0.947480 0.936840 0.500000 -0.588575
O47   O     O_R   0.552520 0.436840 0.000000 -0.588601
O48   O     O_R   0.447480 0.436840 0.000000 -0.588549
C79   C     C_R   0.000001 0.914325 0.500000 0.875047
C80   C     C_R   0.500001 0.414325 0.000000 0.875058
C81   C     C_1   0.500009 0.137374 0.000007 -0.127200
C82   C     C_1   0.999996 0.637374 0.500007 -0.126789
C83   C     C_1   0.500007 0.179575 0.000008 0.046747
C84   C     C_1   0.999998 0.679575 0.500008 0.046894
C85   C     C_1   0.500006 0.229403 0.000007 0.037262
C86   C     C_1   0.000000 0.729403 0.500007 0.037332
C87   C     C_1   0.000002 0.771606 0.500005 0.030210
C88   C     C_1   0.500005 0.271606 0.000006 0.030158
C89   C     C_1   0.000003 0.821437 0.500003 0.021611
C90   C     C_1   0.500004 0.321437 0.000004 0.021579
C91   C     C_1   0.000003 0.863643 0.500002 -0.184563
C92   C     C_1   0.500003 0.363643 0.000002 -0.184593
C93   C     C_1   0.499999 0.862525 0.999994 -0.187706
C94   C     C_1   0.999999 0.362525 0.499994 -0.187663
C95   C     C_1   0.499999 0.820331 0.999993 0.028208
C96   C     C_1   0.999998 0.320331 0.499993 0.028251
C97   C     C_1   0.499998 0.770515 0.999994 0.030726
C98   C     C_1   0.999997 0.270515 0.499994 0.030768
C99   C     C_1   0.999997 0.228321 0.499995 0.026340
C100  C     C_1   0.499997 0.728321 0.999995 0.026305
C101  C     C_1   0.999996 0.178504 0.499997 0.020100
C102  C     C_1   0.499997 0.678504 0.999997 0.020070
C103  C     C_1   0.999997 0.136308 0.499998 -0.185167
C104  C     C_1   0.499997 0.636308 0.999998 -0.185198
N1    N     N_R   0.289820 0.082469 0.963070 0.208539
O49   O     O_R   0.348901 0.092350 0.960313 -0.409023
O50   O     O_R   0.248657 0.112032 0.948987 -0.364961
N2    N     N_R   0.710255 0.081695 0.038712 0.208562
O51   O     O_R   0.751455 0.110870 0.053532 -0.365048
O52   O     O_R   0.651200 0.091654 0.041492 -0.407841
N3    N     N_R   0.789771 0.582023 0.537970 0.208547
O53   O     O_R   0.848837 0.591948 0.540742 -0.408405
O54   O     O_R   0.748585 0.611365 0.552482 -0.364976
N4    N     N_R   0.210170 0.582471 0.463066 0.208535
O55   O     O_R   0.251330 0.612033 0.448983 -0.364950
O56   O     O_R   0.151088 0.592350 0.460308 -0.409104
H9    H     H_    0.210828 0.065310 0.046470 0.183795
H10   H     H_    0.789191 0.066327 0.954960 0.184087
H11   H     H_    0.790488 0.006527 0.078166 0.173594
H12   H     H_    0.209537 0.008227 0.921974 0.173622
H13   H     H_    0.709520 0.507242 0.578111 0.173611
H14   H     H_    0.290463 0.508227 0.421974 0.173631
H15   H     H_    0.289164 0.565316 0.546468 0.183790
H16   H     H_    0.710815 0.565899 0.454359 0.183956
N5    N     N_R   0.207756 0.919278 0.038806 0.219642
O57   O     O_R   0.174949 0.920519 0.076275 -0.379850
O58   O     O_R   0.220793 0.880050 0.019981 -0.371204
N6    N     N_R   0.792254 0.920174 0.959397 0.219470
O59   O     O_R   0.779148 0.880536 0.977310 -0.370869
O60   O     O_R   0.825196 0.922249 0.922027 -0.380686
N7    N     N_R   0.707754 0.419789 0.460145 0.219546
O61   O     O_R   0.674870 0.421513 0.422730 -0.380297
O62   O     O_R   0.720826 0.380322 0.478443 -0.370976
N8    N     N_R   0.292252 0.419283 0.538810 0.219646
O63   O     O_R   0.279221 0.380054 0.519986 -0.371180
O64   O     O_R   0.325058 0.420527 0.576280 -0.379833

loop_
_geom_bond_atom_site_label_1
_geom_bond_atom_site_label_2
_geom_bond_distance
_ccdc_geom_bond_type
C14   C40   1.537593 S    
O27   C70   1.219773 A    
O43   C77   1.302799 A    
C61   C75   1.479193 S    
C59   C63   1.231818 T    
C87   C89   1.454473 S    
C33   N5    1.456223 S    
C21   C25   1.540845 S    
Zn12  O48   1.881434 S    
O24   Zn6   2.021986 S    
O3    C3    1.248053 A    
C52   C56   1.231777 T    
C16   C39   1.537658 S    
C64   C78   1.479193 S    
C71   C93   1.478734 S    
O28   Zn8   2.021986 S    
C6    C38   1.426922 S    
O19   C66   1.248143 A    
C96   C98   1.454014 S    
C99   C101  1.454046 S    
C43   C47   1.231759 T    
N1    O49   1.300058 A    
O7    C3    1.248170 A    
C66   C82   1.479014 S    
O43   Zn12  1.881738 S    
C13   C19   1.535022 S    
C47   C51   1.454327 S    
N8    O64   1.300401 A    
C26   H2    1.110253 S    
C14   C20   1.534941 S    
C10   H10   1.110241 S    
C11   C38   1.537565 S    
O27   Zn7   2.021985 S    
C95   C97   1.454014 S    
O37   C75   1.302799 A    
C18   C22   1.522013 S    
C35   C39   1.520066 S    
C81   C83   1.231750 T    
C27   H3    1.110248 S    
C3    C43   1.479024 S    
C23   C32   1.540882 S    
C28   H4    1.110247 S    
C36   N8    1.456222 S    
C13   C29   1.557249 S    
C10   C18   1.534747 S    
O9    Zn1   2.022419 S    
C13   H13   1.110210 S    
C31   C36   1.532510 S    
C80   C92   1.479320 S    
O18   Zn6   1.875749 S    
N4    O55   1.300178 A    
C13   C39   1.537578 S    
C63   C77   1.479193 S    
Zn9   O45   1.881462 S    
C90   C92   1.231893 T    
C35   N7    1.456203 S    
C60   C64   1.231821 T    
N5    O58   1.300278 A    
O20   C66   1.248152 A    
C19   N3    1.457604 S    
C42   C46   1.231759 T    
C15   H15   1.110241 S    
C41   C45   1.231762 T    
Zn5   O29   1.876271 S    
O4    C4    1.248067 A    
O14   C6    1.219170 A    
C20   N4    1.457593 S    
C26   C34   1.532441 S    
C16   C32   1.554386 S    
C32   C35   1.532476 S    
C44   C48   1.231759 T    
O23   C68   1.218160 A    
O11   C7    1.219147 A    
C4    C44   1.479021 S    
C25   C33   1.532513 S    
N7    O61   1.300427 A    
O12   C8    1.219060 A    
O39   C75   1.302812 A    
O1    Zn1   1.875762 S    
C101  C103  1.231624 T    
O20   Zn8   1.875749 S    
O5    C1    1.248170 A    
O37   Zn9   1.881738 S    
C12   C37   1.537594 S    
O46   C79   1.302537 A    
O40   Zn9   1.881735 S    
C93   C95   1.231575 T    
O48   C80   1.302537 A    
N1    O50   1.300179 A    
O12   Zn2   2.022395 S    
C28   C33   1.534601 S    
O40   C76   1.302814 A    
O22   C68   1.219802 A    
C14   C30   1.557273 S    
N8    O63   1.300279 A    
C12   H12   1.110219 S    
O9    C5    1.219061 A    
O13   Zn3   2.022602 S    
O16   C8    1.219246 A    
C14   H14   1.110219 S    
C34   N6    1.456194 S    
N6    O60   1.300433 A    
C58   C62   1.231821 T    
O31   C72   1.248237 A    
C57   C61   1.231821 T    
O15   C7    1.219198 A    
C23   C29   1.539200 S    
O11   Zn2   2.022419 S    
C19   C23   1.521995 S    
O16   Zn4   2.022630 S    
O18   C65   1.248152 A    
C54   C58   1.454362 S    
C16   C19   1.534786 S    
C30   C36   1.534596 S    
O7    Zn4   1.875261 S    
O35   C74   1.302713 A    
C9    C25   1.554396 S    
C15   C40   1.537635 S    
C56   C60   1.454359 S    
C7    C39   1.426927 S    
O6    C2    1.248155 A    
O33   C73   1.302713 A    
O41   C77   1.302812 A    
C62   C76   1.479193 S    
C50   C54   1.231777 T    
C18   N2    1.457616 S    
O6    Zn3   1.875188 S    
C49   C53   1.231777 T    
O8    C4    1.248155 A    
O21   Zn5   2.021987 S    
O35   Zn11  1.881350 S    
C15   C31   1.554396 S    
O1    C1    1.248053 A    
O24   C67   1.218136 A    
C31   H7    1.110267 S    
C12   C17   1.534940 S    
C85   C88   1.231840 T    
O15   Zn4   2.022602 S    
C30   H6    1.110246 S    
O10   C6    1.219200 A    
C86   C87   1.231840 T    
Zn8   O32   1.876196 S    
C29   H5    1.110246 S    
O17   Zn5   1.875674 S    
C27   C34   1.534718 S    
O26   Zn8   2.021984 S    
C2    C42   1.479021 S    
C24   C31   1.540845 S    
N2    O51   1.300218 A    
O38   C76   1.302798 A    
C84   C86   1.454388 S    
O22   Zn6   2.021984 S    
C97   C100  1.231583 T    
O29   C71   1.248237 A    
C22   C26   1.540909 S    
C98   C99   1.231583 T    
O8    Zn4   1.875188 S    
Zn7   O31   1.876271 S    
C48   C52   1.454330 S    
C9    C17   1.534841 S    
O2    C2    1.248067 A    
O17   C65   1.248143 A    
O45   C79   1.302542 A    
Zn6   O30   1.876196 S    
O47   C80   1.302542 A    
O26   C70   1.218136 A    
O36   C74   1.302718 A    
C79   C91   1.479320 S    
C34   C38   1.520013 S    
O42   C78   1.302812 A    
C24   C30   1.539167 S    
C33   C37   1.520146 S    
C21   C67   1.427576 S    
N4    O56   1.300061 A    
O25   Zn7   2.021987 S    
C16   H16   1.110239 S    
C10   C26   1.554382 S    
O3    Zn2   1.875762 S    
C65   C81   1.479014 S    
O14   Zn3   2.022630 S    
Zn10  O46   1.881434 S    
C9    C37   1.537634 S    
N6    O59   1.300313 A    
O36   Zn12  1.881379 S    
C32   H8    1.110258 S    
C55   C59   1.454362 S    
O44   C78   1.302799 A    
O4    Zn2   1.875840 S    
O30   C71   1.248220 A    
Zn11  O47   1.881462 S    
O23   Zn5   2.021985 S    
O42   Zn12  1.881736 S    
O21   C67   1.219773 A    
C5    C37   1.426935 S    
C11   C18   1.535079 S    
O25   C69   1.218146 A    
C100  C102  1.454046 S    
C1    C41   1.479021 S    
O34   C73   1.302718 A    
C88   C90   1.454473 S    
C15   C20   1.534846 S    
O38   Zn10  1.881736 S    
O34   Zn10  1.881379 S    
C94   C96   1.231575 T    
C29   C35   1.534670 S    
O44   Zn11  1.881735 S    
C51   C55   1.231777 T    
O5    Zn3   1.875261 S    
O33   Zn9   1.881350 S    
C12   C28   1.557271 S    
O39   Zn10  1.881738 S    
C102  C104  1.231624 T    
O19   Zn7   1.875674 S    
C72   C94   1.478734 S    
C10   C38   1.537669 S    
C25   H1    1.110265 S    
C21   C28   1.539169 S    
C9    H9    1.110242 S    
O2    Zn1   1.875840 S    
C82   C84   1.231753 T    
C22   C27   1.539217 S    
C83   C85   1.454391 S    
O10   Zn1   2.022395 S    
C17   C21   1.521973 S    
C73   C103  1.478865 S    
O32   C72   1.248220 A    
C74   C104  1.478865 S    
O41   Zn11  1.881738 S    
C17   N1    1.457594 S    
N3    O53   1.300056 A    
C36   C40   1.520149 S    
C20   C24   1.521975 S    
C89   C91   1.231893 T    
N5    O57   1.300403 A    
C46   C50   1.454327 S    
C11   H11   1.110207 S    
N7    O62   1.300302 A    
C45   C49   1.454327 S    
C11   C27   1.557231 S    
C8    C40   1.426935 S    
C23   C69   1.427620 S    
C22   C68   1.427652 S    
C53   C57   1.454359 S    
C24   C70   1.427577 S    
N2    O52   1.300059 A    
N3    O54   1.300211 A    
O28   C69   1.219794 A    
O13   C5    1.219244 A    
