data_mof_unit_40763.cif
_audit_creation_date              2012-12-10T17:47:40-0500
_audit_creation_method            fapswitch 2.2
_symmetry_space_group_name_H-M    P1
_symmetry_Int_Tables_number       1
_space_group_crystal_system       triclinic
_cell_length_a                    10.628931
_cell_length_b                    10.640453
_cell_length_c                    9.924748
_cell_angle_alpha                 89.653105
_cell_angle_beta                  89.993385
_cell_angle_gamma                 91.171794
_cell_volume                      1122.20032175

loop_
_atom_site_label
_atom_site_type_symbol
_atom_type_description
_atom_site_fract_x
_atom_site_fract_y
_atom_site_fract_z
_atom_type_partial_charge
C1    C     C_R   0.504924 0.260714 0.500541 0.859638
C2    C     C_3   0.878755 0.503359 0.501149 0.178460
C3    C     C_3   0.930261 0.614532 0.414311 -0.402061
C4    C     C_3   0.925292 0.377752 0.442973 -0.384358
C5    C     C_R   0.703644 0.132092 0.647814 -0.312179
C6    C     C_R   0.796655 0.067000 0.718052 0.080900
C7    C     C_R   0.798126 0.935819 0.711504 -0.125518
C8    C     C_R   0.706740 0.870569 0.638118 -0.263433
C9    C     C_R   0.609578 0.935033 0.571392 0.113176
C10   C     C_R   0.608737 0.066692 0.574591 0.110450
C11   C     C_R   0.513707 0.128363 0.501324 -0.084019
C12   C     C_R   0.257872 0.501416 0.500267 0.817994
C13   C     C_R   0.424383 0.063292 0.424833 -0.214320
C14   C     C_R   0.424275 0.934980 0.423693 -0.206347
C15   C     C_R   0.514010 0.871773 0.498335 -0.097434
C16   C     C_R   0.335582 0.335946 0.140732 -0.175906
C17   C     C_R   0.255257 0.254622 0.071004 -0.186697
C18   C     C_R   0.255981 0.254249 0.931571 -0.175374
C19   C     C_R   0.336464 0.335446 0.861046 -0.181144
C20   C     C_R   0.419235 0.419060 0.928213 0.173973
C21   C     C_R   0.419061 0.419200 0.072714 0.177867
C22   C     C_R   0.577613 0.577156 0.070938 -0.114332
C23   C     C_R   0.503759 0.739370 0.499543 0.869605
C24   C     C_R   0.577559 0.577152 0.927886 -0.114933
C25   C     C_R   0.742203 0.502051 0.500237 0.805686
C26   C     C_3   0.071702 0.515470 0.647740 -0.382257
C27   C     C_3   0.928925 0.519173 0.647267 -0.395929
C28   C     C_3   0.074809 0.615433 0.416237 -0.389371
C29   C     C_3   0.069587 0.378341 0.440733 -0.421015
C30   C     C_3   0.121393 0.502759 0.501208 0.183012
H1    H     H_    0.110140 0.602972 0.694730 0.183601
H2    H     H_    0.888973 0.363732 0.338809 0.185917
H3    H     H_    0.110331 0.610000 0.310942 0.186339
H4    H     H_    0.896863 0.605754 0.308401 0.183551
H5    H     H_    0.352510 0.112079 0.368656 0.141349
H6    H     H_    0.707202 0.233597 0.650667 0.151859
H7    H     H_    0.870387 0.883352 0.762654 0.168786
H8    H     H_    0.714252 0.769573 0.633337 0.147923
H9    H     H_    0.352111 0.884581 0.367215 0.153539
H10   H     H_    0.641089 0.640236 0.124145 0.147210
H11   H     H_    0.101845 0.434340 0.710552 0.179142
H12   H     H_    0.329525 0.330547 0.247503 0.197866
H13   H     H_    0.192232 0.191402 0.125670 0.160692
H14   H     H_    0.194048 0.190594 0.877293 0.201406
H15   H     H_    0.331002 0.329740 0.754279 0.205419
H16   H     H_    0.640990 0.640243 0.873769 0.145398
H17   H     H_    0.891226 0.442980 0.713901 0.172891
H18   H     H_    0.898180 0.610271 0.689653 0.167046
H19   H     H_    0.110923 0.705427 0.459635 0.158211
H20   H     H_    0.895776 0.705235 0.453958 0.158758
H21   H     H_    0.102556 0.367907 0.335014 0.176779
H22   H     H_    0.104298 0.296589 0.499539 0.154054
H23   H     H_    0.890011 0.297449 0.505553 0.152855
N1    N     N_R   0.498810 0.498800 0.142780 -0.121712
N2    N     N_R   0.498760 0.498720 0.857170 -0.121734
O1    O     O_R   0.500000 0.316780 0.614690 -0.637352
O2    O     O_R   0.499990 0.316750 0.385360 -0.627231
O3    O     O_R   0.314800 0.499990 0.614670 -0.641688
O4    O     O_R   0.314790 0.499970 0.385330 -0.643016
O5    O     O_R   0.500010 0.683250 0.614640 -0.611034
O6    O     O_R   0.500000 0.683220 0.385310 -0.612255
O7    O     O_R   0.685210 0.500030 0.614670 -0.641080
O8    O     O_R   0.685200 0.500010 0.385330 -0.619497
Zn1   Zn    Zn3+2 0.500010 0.500020 0.653130 0.923843
Zn2   Zn    Zn3+2 0.499990 0.499980 0.346870 0.932806
C31   C     C_2   0.891758 0.137133 0.797909 0.350865
H24   H     H_    0.891122 0.238875 0.800439 0.049651
O9    O     O_2   0.971124 0.082048 0.863171 -0.605291

loop_
_geom_bond_atom_site_label_1
_geom_bond_atom_site_label_2
_ccdc_geom_bond_type
C27   H18   S    
C8    C9    A    
C2    C4    S    
C19   H15   S    
C26   C30   S    
C16   C21   A    
C1    O2    A    
C4    H23   S    
C9    C10   A    
C6    C7    A    
C31   O9    D    
C19   C20   A    
C1    C11   S    
C6    C31   S    
O5    Zn1   S    
C2    C27   S    
C24   H16   S    
N2    Zn1   S    
O1    Zn1   S    
C17   C18   A    
C7    H7    S    
C22   H10   S    
C5    C10   A    
C22   N1    A    
N1    Zn2   S    
C4    H2    S    
C13   C14   A    
O4    Zn2   S    
C24   N2    A    
C23   O5    A    
C11   C13   A    
C26   C27   S    
C29   C30   S    
C8    H8    S    
C12   O3    A    
C20   N2    A    
C5    C6    A    
C15   C23   S    
C3    C28   S    
C3    H20   S    
C29   H21   S    
C28   H3    S    
C13   H5    S    
C2    C25   S    
C2    C3    S    
C25   O7    A    
O6    Zn2   S    
O3    Zn1   S    
C21   N1    A    
O8    Zn2   S    
C16   C17   A    
C22   C24   A    
C7    C8    A    
C10   C11   A    
C5    H6    S    
C16   H12   S    
C18   H14   S    
C23   O6    A    
C31   H24   S    
C20   C21   A    
C18   C19   A    
C28   H19   S    
C27   H17   S    
C17   H13   S    
C14   C15   A    
C25   O8    A    
O7    Zn1   S    
C3    H4    S    
C12   C30   S    
C14   H9    S    
C9    C15   A    
C12   O4    A    
C26   H1    S    
C1    O1    A    
C4    C29   S    
C26   H11   S    
O2    Zn2   S    
C28   C30   S    
C29   H22   S    
