data_mof_unit_53191.cif
_audit_creation_date              2012-12-10T18:24:51-0500
_audit_creation_method            fapswitch 2.2
_symmetry_space_group_name_H-M    P1
_symmetry_Int_Tables_number       1
_space_group_crystal_system       triclinic
_cell_length_a                    13.985324
_cell_length_b                    15.020992
_cell_length_c                    16.681316
_cell_angle_alpha                 89.822403
_cell_angle_beta                  84.160378
_cell_angle_gamma                 89.981696
_cell_volume                      3486.09942023

loop_
_atom_site_label
_atom_site_type_symbol
_atom_type_description
_atom_site_fract_x
_atom_site_fract_y
_atom_site_fract_z
_atom_type_partial_charge
C1    C     C_R   0.499994 0.673542 0.500055 0.896131
C2    C     C_R   0.589102 0.907405 0.501232 0.092071
C3    C     C_R   0.499199 0.046347 0.501156 0.026695
C4    C     C_R   0.500502 0.953655 0.501412 0.026612
C5    C     C_R   0.586776 0.092986 0.500744 0.103987
C6    C     C_R   0.412956 0.907013 0.501605 0.102928
C7    C     C_R   0.322965 0.045001 0.501414 0.099725
C8    C     C_R   0.676717 0.954987 0.501298 0.099820
C9    C     C_R   0.325732 0.952225 0.501791 -0.267518
C10   C     C_R   0.673968 0.047769 0.500849 -0.268489
C11   C     C_R   0.197668 0.430774 0.534934 -0.075472
C12   C     C_R   0.499985 0.326460 0.500137 0.887034
C13   C     C_R   0.802389 0.568840 0.464400 -0.072003
C14   C     C_R   0.206234 0.568645 0.464238 -0.067702
C15   C     C_R   0.793781 0.431224 0.535535 -0.074657
C16   C     C_R   0.485756 0.502961 0.653605 0.863835
C17   C     C_R   0.514414 0.498830 0.346105 0.868587
C18   C     C_R   0.105663 0.570223 0.463184 0.016099
C19   C     C_R   0.894396 0.429303 0.536011 0.017339
C20   C     C_R   0.050662 0.499706 0.499533 0.087052
C21   C     C_R   0.949401 0.499780 0.499602 0.087016
C22   C     C_R   0.096874 0.429081 0.535744 0.022592
C23   C     C_R   0.586372 0.184914 0.500326 -0.252856
C24   C     C_R   0.903204 0.570314 0.463250 0.013854
C25   C     C_R   0.059044 0.640215 0.426777 -0.207379
C26   C     C_R   0.941064 0.358934 0.571802 -0.205418
C27   C     C_R   0.958647 0.640143 0.426638 -0.230972
C28   C     C_R   0.041471 0.358817 0.571638 -0.234793
C29   C     C_R   0.475177 0.532922 0.736997 -0.086530
C30   C     C_R   0.525015 0.507436 0.258339 -0.096581
C31   C     C_R   0.536698 0.601827 0.755328 -0.232116
C32   C     C_R   0.454190 0.557139 0.225633 -0.244158
C33   C     C_R   0.530451 0.637550 0.831489 -0.202771
C34   C     C_R   0.413449 0.815088 0.501256 -0.247331
C35   C     C_R   0.458731 0.572222 0.144279 -0.197203
C36   C     C_R   0.462005 0.605663 0.890634 0.127690
C37   C     C_R   0.534693 0.538346 0.092306 0.137738
C38   C     C_R   0.392105 0.542164 0.872731 0.122718
C39   C     C_R   0.607385 0.485698 0.122944 0.106656
C40   C     C_R   0.400391 0.502942 0.794723 0.043352
C41   C     C_R   0.603374 0.470777 0.207690 0.055095
C42   C     C_2   0.483766 0.616890 0.973358 -0.245478
C43   C     C_2   0.530311 0.549697 0.005241 -0.236993
C44   C     C_3   0.678737 0.413237 0.243172 -0.411741
C45   C     C_R   0.499747 0.230649 0.500513 -0.079708
C46   C     C_3   0.766503 0.468412 0.261702 -0.309812
C47   C     C_3   0.838853 0.411081 0.301131 -0.863138
C48   C     C_3   0.336694 0.425203 0.775371 -0.423385
C49   C     C_3   0.236654 0.456700 0.756995 -0.300973
C50   C     C_3   0.168482 0.378114 0.752092 -0.915559
C51   C     C_3   0.313731 0.515264 0.939090 -0.441067
C52   C     C_3   0.245984 0.593534 0.962473 -0.342366
C53   C     C_3   0.167733 0.566774 0.028640 -0.893680
C54   C     C_3   0.686918 0.445072 0.064952 -0.450444
C55   C     C_3   0.657882 0.352811 0.035924 -0.346121
C56   C     C_R   0.500128 0.769353 0.500552 -0.077615
C57   C     C_3   0.735480 0.314428 0.974810 -0.885251
C58   C     C_3   0.225816 0.089949 0.500482 -0.428715
C59   C     C_3   0.210656 0.122647 0.415427 -0.338753
C60   C     C_3   0.116588 0.174049 0.415239 -0.882846
C61   C     C_3   0.773846 0.909976 0.502163 -0.427415
C62   C     C_3   0.788531 0.875888 0.586891 -0.339834
C63   C     C_3   0.882282 0.823888 0.586618 -0.884205
C64   C     C_R   0.412655 0.185215 0.501156 -0.279845
C65   C     C_R   0.587144 0.814787 0.500480 -0.280965
C66   C     C_R   0.410612 0.092594 0.501168 0.091168
H1    H     H_    0.591573 0.627357 0.710548 0.168375
H2    H     H_    0.899953 0.304007 0.599868 0.138296
H3    H     H_    0.924342 0.694867 0.398240 0.139113
H4    H     H_    0.075768 0.303678 0.599421 0.142933
H5    H     H_    0.805146 0.382313 0.358595 0.268834
H6    H     H_    0.865264 0.356264 0.260151 0.251780
H7    H     H_    0.901123 0.452509 0.314198 0.252498
H8    H     H_    0.802828 0.497908 0.205627 0.199956
H9    H     H_    0.744106 0.524534 0.302369 0.240713
H10   H     H_    0.647083 0.378214 0.298262 0.207619
H11   H     H_    0.702614 0.357945 0.202207 0.192618
H12   H     H_    0.394325 0.585498 0.263532 0.164922
H13   H     H_    0.198323 0.330095 0.705616 0.253329
H14   H     H_    0.157162 0.343600 0.811281 0.260161
H15   H     H_    0.097956 0.402445 0.735911 0.260707
H16   H     H_    0.204874 0.502891 0.804136 0.218888
H17   H     H_    0.242575 0.493348 0.698799 0.243169
H18   H     H_    0.369642 0.386219 0.723289 0.194420
H19   H     H_    0.331732 0.376179 0.825547 0.187101
H20   H     H_    0.557597 0.496432 0.965441 0.170019
H21   H     H_    0.457215 0.674644 0.007611 0.150654
H22   H     H_    0.123559 0.511714 0.007670 0.262048
H23   H     H_    0.234656 0.377074 0.562213 0.136022
H24   H     H_    0.200431 0.545096 0.083459 0.262865
H25   H     H_    0.120130 0.624628 0.044392 0.248404
H26   H     H_    0.286695 0.650317 0.984541 0.218941
H27   H     H_    0.211588 0.616409 0.908854 0.216997
H28   H     H_    0.269164 0.459136 0.921976 0.209603
H29   H     H_    0.347080 0.491503 0.992861 0.213454
H30   H     H_    0.746749 0.358497 0.921074 0.262173
H31   H     H_    0.804208 0.307312 0.002257 0.260677
H32   H     H_    0.712880 0.247757 0.955210 0.247751
H33   H     H_    0.645933 0.306144 0.087686 0.216409
H34   H     H_    0.765508 0.622262 0.436568 0.126523
H35   H     H_    0.589527 0.356872 0.007639 0.215287
H36   H     H_    0.704997 0.489951 0.012562 0.203189
H37   H     H_    0.755283 0.439546 0.092592 0.205644
H38   H     H_    0.399768 0.608344 0.122159 0.148474
H39   H     H_    0.583862 0.685590 0.845997 0.152304
H40   H     H_    0.346959 0.223043 0.501441 0.169813
H41   H     H_    0.652876 0.776959 0.499849 0.169688
H42   H     H_    0.054872 0.131948 0.439287 0.257219
H43   H     H_    0.118841 0.234926 0.452497 0.269383
H44   H     H_    0.106067 0.194259 0.352659 0.250685
H45   H     H_    0.249866 0.622061 0.436425 0.129082
H46   H     H_    0.270697 0.166597 0.391238 0.226090
H47   H     H_    0.208898 0.064422 0.374606 0.221664
H48   H     H_    0.167095 0.042405 0.520391 0.195690
H49   H     H_    0.218280 0.145187 0.544793 0.189497
H50   H     H_    0.880006 0.763826 0.548280 0.269364
H51   H     H_    0.944313 0.866123 0.563542 0.257976
H52   H     H_    0.892292 0.802301 0.648933 0.250146
H53   H     H_    0.790505 0.933469 0.628416 0.222222
H54   H     H_    0.728208 0.831953 0.610496 0.223855
H55   H     H_    0.781626 0.855435 0.457156 0.190257
H56   H     H_    0.750152 0.377836 0.563383 0.134144
H57   H     H_    0.832672 0.957739 0.483130 0.195099
H58   H     H_    0.259411 0.914822 0.501484 0.140528
H59   H     H_    0.740293 0.085177 0.501096 0.140212
H60   H     H_    0.653746 0.220800 0.499894 0.153602
H61   H     H_    0.346116 0.779206 0.501347 0.154346
H62   H     H_    0.100187 0.694986 0.398460 0.136679
N1    N     N_R   0.249970 0.499930 0.499970 -0.101191
N2    N     N_R   0.750030 0.500070 0.500030 -0.097040
O1    O     O_R   0.419720 0.632140 0.499990 -0.629952
O2    O     O_R   0.580280 0.367860 0.500010 -0.632567
O3    O     O_R   0.580270 0.632160 0.499980 -0.633250
O4    O     O_R   0.419730 0.367840 0.500020 -0.629638
O5    O     O_R   0.410240 0.500000 0.615800 -0.613120
O6    O     O_R   0.589760 0.500000 0.384200 -0.615909
O7    O     O_R   0.570790 0.500020 0.615800 -0.611044
O8    O     O_R   0.429210 0.499980 0.384200 -0.610055
Zn1   Zn    Zn3+2 0.392800 0.499980 0.500010 0.936705
Zn2   Zn    Zn3+2 0.607200 0.500020 0.499990 0.931016

loop_
_geom_bond_atom_site_label_1
_geom_bond_atom_site_label_2
_ccdc_geom_bond_type
C30   C32   A    
C34   C56   A    
C23   C45   A    
C15   H56   S    
C14   C18   A    
C36   C42   S    
C16   O7    A    
C24   C27   A    
O6    Zn2   S    
C2    C65   A    
N2    Zn2   S    
C50   H13   S    
C33   C36   A    
C6    C9    A    
C39   C41   A    
C15   C19   A    
C44   H11   S    
C35   C37   A    
C1    C56   S    
C63   H51   S    
C39   C54   S    
C56   C65   A    
C9    H58   S    
C61   H55   S    
C44   H10   S    
C19   C26   A    
C40   C48   S    
C60   H43   S    
C46   C47   S    
C34   H61   S    
C57   H30   S    
C5    C23   A    
C53   H25   S    
C13   N2    A    
C31   C33   A    
C30   C41   A    
C17   O8    A    
C10   H59   S    
C7    C58   S    
C62   H54   S    
C60   H42   S    
C8    C61   S    
C59   C60   S    
C22   C28   A    
C17   C30   S    
C45   C64   A    
C18   C25   A    
C1    O3    A    
C11   N1    A    
C46   H9    S    
C44   C46   S    
C14   H45   S    
O7    Zn2   S    
C28   H4    S    
C51   C52   S    
C32   C35   A    
C54   H37   S    
C33   H39   S    
C47   H7    S    
C4    C6    A    
C35   H38   S    
O4    Zn1   S    
C63   H52   S    
C38   C51   S    
C1    O1    A    
C58   C59   S    
C48   H18   S    
C13   C24   A    
C50   H14   S    
C64   C66   A    
C49   H16   S    
C37   C43   S    
C2    C4    A    
C62   C63   S    
C11   H23   S    
N1    Zn1   S    
C59   H47   S    
C57   H31   S    
C17   O6    A    
C59   H46   S    
C52   H27   S    
C47   H5    S    
C62   H53   S    
C23   H60   S    
C63   H50   S    
C8    C10   A    
C48   C49   S    
C20   C22   A    
C55   C57   S    
C58   H49   S    
C41   C44   S    
C52   H26   S    
C3    C66   A    
O2    Zn2   S    
C42   C43   D    
C3    C4    A    
C46   H8    S    
C52   C53   S    
C7    C9    A    
C54   C55   S    
C12   O2    A    
C19   C21   A    
C43   H20   S    
C25   H62   S    
C2    C8    A    
C12   C45   S    
C3    C5    A    
C27   H3    S    
C64   H40   S    
C25   C27   A    
C55   H35   S    
C11   C22   A    
C26   C28   A    
C61   H57   S    
O5    Zn1   S    
C54   H36   S    
C49   H17   S    
C13   H34   S    
C36   C38   A    
C16   C29   S    
C26   H2    S    
C5    C10   A    
C29   C31   A    
C7    C66   A    
C38   C40   A    
C15   N2    A    
C60   H44   S    
C57   H32   S    
C29   C40   A    
C53   H22   S    
C18   C20   A    
C61   C62   S    
C47   H6    S    
O1    Zn1   S    
O8    Zn1   S    
C31   H1    S    
C51   H28   S    
C32   H12   S    
C6    C34   A    
C20   C21   A    
O3    Zn2   S    
C37   C39   A    
C49   C50   S    
C21   C24   A    
C55   H33   S    
C53   H24   S    
C58   H48   S    
C48   H19   S    
C12   O4    A    
C42   H21   S    
C16   O5    A    
C65   H41   S    
C50   H15   S    
C51   H29   S    
C14   N1    A    
