data_mof_unit_5778.cif
_audit_creation_date              2012-12-10T17:27:01-0500
_audit_creation_method            fapswitch 2.2
_symmetry_space_group_name_H-M    P1
_symmetry_Int_Tables_number       1
_space_group_crystal_system       triclinic
_cell_length_a                    18.143185
_cell_length_b                    18.083297
_cell_length_c                    12.063363
_cell_angle_alpha                 90.000436
_cell_angle_beta                  85.748639
_cell_angle_gamma                 90.000366
_cell_volume                      3946.96158398

loop_
_atom_site_label
_atom_site_type_symbol
_atom_type_description
_atom_site_fract_x
_atom_site_fract_y
_atom_site_fract_z
_atom_type_partial_charge
C1    C     C_R   0.400771 0.100895 0.521708 0.883583
C2    C     C_R   0.535160 0.999969 0.020793 0.087442
C3    C     C_R   0.964839 0.500028 0.979206 0.087439
C4    C     C_R   0.035160 0.499972 0.020794 0.087440
C5    C     C_R   0.588565 0.999972 0.830661 0.138363
C6    C     C_R   0.411435 0.000047 0.169337 0.138363
C7    C     C_R   0.088565 0.499947 0.830662 0.138362
C8    C     C_R   0.911435 0.500050 0.169339 0.138363
C9    C     C_R   0.596978 0.999950 0.945520 -0.368933
C10   C     C_R   0.403022 0.000044 0.054478 -0.368938
C11   C     C_R   0.096978 0.499929 0.945522 -0.368929
C12   C     C_R   0.599229 0.899104 0.478291 0.883594
C13   C     C_R   0.903021 0.500069 0.054479 -0.368926
C14   C     C_R   0.457989 0.000019 0.863056 -0.073388
C15   C     C_R   0.542011 0.999959 0.136944 -0.073385
C16   C     C_R   0.957989 0.500040 0.863056 -0.073382
C17   C     C_R   0.042011 0.499960 0.136944 -0.073388
C18   C     C_R   0.655913 0.155403 0.464052 -0.030166
C19   C     C_R   0.344086 0.844597 0.535948 -0.030224
C20   C     C_R   0.344086 0.155404 0.535950 -0.030133
C21   C     C_R   0.655915 0.844597 0.464048 -0.030167
C22   C     C_R   0.155917 0.655401 0.464051 -0.030208
C23   C     C_R   0.599229 0.100895 0.478292 0.883584
C24   C     C_R   0.844074 0.344608 0.535949 -0.030194
C25   C     C_R   0.844086 0.655404 0.535950 -0.030143
C26   C     C_R   0.155914 0.344597 0.464051 -0.030145
C27   C     C_R   0.232992 0.799992 0.634430 -0.236460
C28   C     C_R   0.767023 0.199986 0.365606 -0.236442
C29   C     C_R   0.767021 0.800004 0.365580 -0.236522
C30   C     C_R   0.232991 0.200011 0.634435 -0.236510
C31   C     C_R   0.732958 0.300030 0.634401 -0.236481
C32   C     C_R   0.267012 0.700005 0.365569 -0.236410
C33   C     C_R   0.267012 0.299997 0.365575 -0.236546
C34   C     C_R   0.400771 0.899105 0.521708 0.883603
C35   C     C_R   0.732984 0.699999 0.634420 -0.236471
C36   C     C_R   0.293528 0.846724 0.629258 -0.203911
C37   C     C_R   0.706486 0.153257 0.370769 -0.203919
C38   C     C_R   0.706481 0.846732 0.370747 -0.203913
C39   C     C_R   0.293529 0.153281 0.629263 -0.203912
C40   C     C_R   0.793498 0.346757 0.629234 -0.203906
C41   C     C_R   0.206475 0.653274 0.370740 -0.203904
C42   C     C_R   0.206474 0.346726 0.370745 -0.203919
C43   C     C_R   0.793522 0.653271 0.629252 -0.203914
C44   C     C_R   0.337019 0.794177 0.450397 -0.301200
C45   C     C_R   0.900771 0.600895 0.521708 0.883586
C46   C     C_R   0.662965 0.205839 0.549586 -0.301081
C47   C     C_R   0.662977 0.794172 0.549590 -0.301037
C48   C     C_R   0.337020 0.205823 0.450400 -0.300887
C49   C     C_R   0.837019 0.294174 0.450420 -0.301153
C50   C     C_R   0.162986 0.705819 0.549603 -0.301134
C51   C     C_R   0.162981 0.294177 0.549601 -0.300940
C52   C     C_R   0.837026 0.705831 0.450407 -0.300951
C53   C     C_R   0.276364 0.748313 0.453792 0.175794
C54   C     C_R   0.723619 0.251704 0.546196 0.175752
C55   C     C_R   0.723636 0.748312 0.546200 0.175747
C56   C     C_R   0.099229 0.399105 0.478292 0.883590
C57   C     C_R   0.276364 0.251688 0.453798 0.175716
C58   C     C_R   0.776360 0.248314 0.453810 0.175783
C59   C     C_R   0.223640 0.751683 0.546206 0.175767
C60   C     C_R   0.223637 0.248315 0.546207 0.175743
C61   C     C_R   0.776369 0.751693 0.453800 0.175723
C62   C     C_R   0.342805 0.000144 0.242494 0.172684
C63   C     C_R   0.306459 0.933258 0.269172 -0.130247
C64   C     C_R   0.237827 0.933386 0.330212 -0.140285
C65   C     C_R   0.203945 0.000314 0.361592 -0.131865
C66   C     C_R   0.237844 0.067152 0.329754 -0.139957
C67   C     C_R   0.099229 0.600895 0.478292 0.883595
C68   C     C_R   0.306493 0.067108 0.268762 -0.130749
C69   C     C_R   0.657193 0.999964 0.757503 0.172688
C70   C     C_R   0.693521 0.066891 0.731008 -0.130447
C71   C     C_R   0.762158 0.066844 0.669985 -0.140150
C72   C     C_R   0.796044 0.999952 0.638390 -0.131846
C73   C     C_R   0.762154 0.933067 0.670023 -0.140100
C74   C     C_R   0.693517 0.933033 0.731045 -0.130539
C75   C     C_R   0.842806 0.500096 0.242498 0.172685
C76   C     C_R   0.806478 0.567041 0.268859 -0.130657
C77   C     C_R   0.737830 0.567041 0.329856 -0.140027
C78   C     C_R   0.900768 0.399107 0.521708 0.883584
C79   C     C_R   0.703939 0.500176 0.361579 -0.131849
C80   C     C_R   0.737835 0.433267 0.330100 -0.140216
C81   C     C_R   0.806477 0.433186 0.269084 -0.130333
C82   C     C_R   0.157195 0.499895 0.757502 0.172696
C83   C     C_R   0.193522 0.432945 0.731158 -0.130676
C84   C     C_R   0.262175 0.432939 0.670170 -0.140013
C85   C     C_R   0.296071 0.499802 0.638439 -0.131838
C86   C     C_R   0.262174 0.566716 0.669898 -0.140225
C87   C     C_R   0.193529 0.566804 0.730909 -0.130324
C88   C     C_R   0.464840 0.000008 0.979206 0.087442
H1    H     H_    0.596103 0.999926 0.169343 0.123599
H2    H     H_    0.877641 0.292357 0.379733 0.146357
H3    H     H_    0.877636 0.707632 0.379703 0.146364
H4    H     H_    0.122374 0.292378 0.620310 0.146363
H5    H     H_    0.700640 0.113705 0.304512 0.148803
H6    H     H_    0.299385 0.886262 0.695531 0.148818
H7    H     H_    0.299388 0.113746 0.695540 0.148799
H8    H     H_    0.700626 0.886273 0.304478 0.148796
H9    H     H_    0.200616 0.613737 0.304466 0.148815
H10   H     H_    0.799346 0.386307 0.695491 0.148806
H11   H     H_    0.799377 0.613729 0.695521 0.148790
H12   H     H_    0.403897 0.000046 0.830657 0.123596
H13   H     H_    0.200617 0.386264 0.304473 0.148799
H14   H     H_    0.693095 0.302446 0.705818 0.139083
H15   H     H_    0.306862 0.697603 0.294133 0.139075
H16   H     H_    0.306864 0.302400 0.294142 0.139073
H17   H     H_    0.693129 0.697591 0.705848 0.139070
H18   H     H_    0.193142 0.802394 0.705865 0.139083
H19   H     H_    0.806888 0.197566 0.294194 0.139082
H20   H     H_    0.806876 0.802411 0.294150 0.139076
H21   H     H_    0.193142 0.197612 0.705874 0.139064
H22   H     H_    0.651863 0.999925 0.975652 0.146923
H23   H     H_    0.096103 0.499921 0.169343 0.123597
H24   H     H_    0.348137 0.000084 0.024344 0.146923
H25   H     H_    0.151864 0.499883 0.975655 0.146923
H26   H     H_    0.848136 0.500115 0.024345 0.146923
H27   H     H_    0.331330 0.881179 0.242559 0.122275
H28   H     H_    0.210541 0.881660 0.352188 0.148472
H29   H     H_    0.150788 0.000381 0.408654 0.130855
H30   H     H_    0.210565 0.118938 0.351352 0.148444
H31   H     H_    0.331395 0.119112 0.241846 0.122118
H32   H     H_    0.668636 0.118940 0.757751 0.122220
H33   H     H_    0.789440 0.118603 0.648175 0.148451
H34   H     H_    0.903897 0.500080 0.830657 0.123598
H35   H     H_    0.849196 0.999948 0.591318 0.130855
H36   H     H_    0.789434 0.881305 0.648248 0.148460
H37   H     H_    0.668626 0.880992 0.757816 0.122194
H38   H     H_    0.831370 0.619068 0.242023 0.122163
H39   H     H_    0.710543 0.618815 0.351545 0.148446
H40   H     H_    0.650778 0.500209 0.408632 0.130852
H41   H     H_    0.710556 0.381521 0.351983 0.148463
H42   H     H_    0.831367 0.381123 0.242415 0.122254
H43   H     H_    0.168627 0.380920 0.758005 0.122147
H44   H     H_    0.289463 0.381162 0.648498 0.148438
H45   H     H_    0.622349 0.207647 0.620280 0.146363
H46   H     H_    0.349235 0.499766 0.591394 0.130846
H47   H     H_    0.289458 0.618462 0.648008 0.148458
H48   H     H_    0.168641 0.618869 0.757572 0.122244
H49   H     H_    0.377627 0.792376 0.379691 0.146369
H50   H     H_    0.377625 0.207621 0.379690 0.146367
H51   H     H_    0.622363 0.792365 0.620289 0.146364
H52   H     H_    0.122378 0.707619 0.620311 0.146367
N1    N     N_R   0.480750 1.000000 0.209750 -0.117669
N2    N     N_R   0.519250 1.000000 0.790250 -0.117669
N3    N     N_R   0.980750 0.500000 0.209750 -0.117670
N4    N     N_R   0.019250 0.500000 0.790250 -0.117671
O1    O     O_R   0.418020 0.076820 0.422210 -0.615748
O2    O     O_R   0.569630 0.923170 0.391410 -0.630933
O3    O     O_R   0.569630 0.076830 0.391410 -0.630912
O4    O     O_R   0.430370 0.923170 0.608590 -0.630900
O5    O     O_R   0.930370 0.576830 0.608590 -0.630942
O6    O     O_R   0.069630 0.423170 0.391410 -0.630946
O7    O     O_R   0.069630 0.576830 0.391410 -0.630902
O8    O     O_R   0.930370 0.423170 0.608590 -0.630899
O9    O     O_R   0.581980 0.923180 0.577790 -0.615808
O10   O     O_R   0.581980 0.076820 0.577790 -0.615830
O11   O     O_R   0.418020 0.923180 0.422210 -0.615893
O12   O     O_R   0.918020 0.576820 0.422210 -0.615780
O13   O     O_R   0.081980 0.423180 0.577790 -0.615775
O14   O     O_R   0.081980 0.576820 0.577790 -0.615873
O15   O     O_R   0.918020 0.423180 0.422210 -0.615865
O16   O     O_R   0.430370 0.076830 0.608590 -0.630950
Zn1   Zn    Zn3+2 0.491750 1.000000 0.375560 0.941441
Zn2   Zn    Zn3+2 0.508250 0.000000 0.624440 0.941439
Zn3   Zn    Zn3+2 0.991750 0.500000 0.375560 0.941438
Zn4   Zn    Zn3+2 0.008250 0.500000 0.624440 0.941439

loop_
_geom_bond_atom_site_label_1
_geom_bond_atom_site_label_2
_ccdc_geom_bond_type
C66   C68   A    
C79   H40   S    
C14   N2    A    
N1    Zn1   S    
C44   H49   S    
C64   H28   S    
C33   H16   S    
C76   H38   S    
C73   C74   A    
C1    O1    A    
C12   O9    A    
C25   C43   A    
C53   C59   A    
C78   O8    A    
C48   C57   A    
C34   O11   A    
O11   Zn1   S    
C7    C11   A    
O6    Zn3   S    
C10   C88   A    
C8    C13   A    
C50   C59   A    
C16   N4    A    
C18   C37   A    
C43   H11   S    
C52   C61   A    
C68   H31   S    
C40   H10   S    
C50   H52   S    
C22   C41   A    
C28   H19   S    
C77   H39   S    
C82   C87   A    
C18   C46   A    
C9    H22   S    
C31   C40   A    
C12   O2    A    
C16   H34   S    
C5    C69   S    
C15   N1    A    
C34   O4    A    
C44   C53   A    
C21   C38   A    
O12   Zn3   S    
C70   H32   S    
C30   C60   A    
C29   C38   A    
C32   C41   A    
C29   H20   S    
C10   H24   S    
C70   C71   A    
C8    N3    A    
C35   C43   A    
C49   H2    S    
C45   O5    A    
C13   H26   S    
C3    C13   A    
O14   Zn4   S    
C85   H46   S    
C22   C50   A    
C63   H27   S    
N4    Zn4   S    
C48   H50   S    
C17   H23   S    
N3    Zn3   S    
C7    N4    A    
C71   H33   S    
C77   C79   A    
O2    Zn1   S    
C29   C61   A    
C30   H21   S    
C67   O7    A    
C18   C23   S    
C31   H14   S    
C84   C85   A    
C72   C73   A    
C17   N3    A    
O3    Zn1   S    
C45   O12   A    
C20   C39   A    
C86   C87   A    
C75   C81   A    
C57   C60   A    
C27   H18   S    
C85   C86   A    
C23   O3    A    
C12   C21   S    
C84   H44   S    
C35   C55   A    
C49   C58   A    
C63   C64   A    
C4    C11   A    
O16   Zn2   S    
C75   C76   A    
C5    C9    A    
C62   C63   A    
C35   H17   S    
C51   H4    S    
C15   H1    S    
C56   O13   A    
C78   O15   A    
C83   C84   A    
C73   H36   S    
C46   C54   A    
C32   H15   S    
C37   H5    S    
C69   C74   A    
O5    Zn4   S    
O8    Zn4   S    
C76   C77   A    
C6    N1    A    
C2    C88   A    
C2    C15   A    
O13   Zn4   S    
C39   H7    S    
C20   C48   A    
C4    C17   A    
C24   C78   S    
C82   C83   A    
O7    Zn3   S    
C72   H35   S    
O15   Zn3   S    
C47   H51   S    
C33   C42   A    
C56   O6    A    
C3    C4    A    
C42   H13   S    
C25   C45   S    
C32   C53   A    
C19   C44   A    
C26   C42   A    
C47   C55   A    
C54   C58   A    
C24   C49   A    
C1    C20   S    
C33   C57   A    
C80   H41   S    
C87   H48   S    
O10   Zn2   S    
C1    O16   A    
C80   C81   A    
C19   C34   S    
C26   C56   S    
N2    Zn2   S    
C14   H12   S    
C28   C58   A    
C27   C36   A    
C62   C68   A    
O9    Zn2   S    
C19   C36   A    
O4    Zn2   S    
C64   C65   A    
C6    C62   S    
C83   H43   S    
C25   C52   A    
C14   C88   A    
C71   C72   A    
C27   C59   A    
C26   C51   A    
C46   H45   S    
C5    N2    A    
O1    Zn1   S    
C28   C37   A    
C55   C61   A    
C24   C40   A    
C30   C39   A    
C67   O14   A    
C41   H9    S    
C8    C75   S    
C31   C54   A    
C69   C70   A    
C11   H25   S    
C22   C67   S    
C6    C10   A    
C81   H42   S    
C79   C80   A    
C74   H37   S    
C36   H6    S    
C86   H47   S    
C7    C82   S    
C65   C66   A    
C66   H30   S    
C23   O10   A    
C38   H8    S    
C65   H29   S    
C52   H3    S    
C51   C60   A    
C2    C9    A    
C3    C16   A    
C21   C47   A    
