data_mof_unit_63778.cif
_audit_creation_date              2012-12-10T18:55:34-0500
_audit_creation_method            fapswitch 2.2
_symmetry_space_group_name_H-M    P1
_symmetry_Int_Tables_number       1
_space_group_crystal_system       triclinic
_cell_length_a                    30.29006
_cell_length_b                    30.292473
_cell_length_c                    23.524695
_cell_angle_alpha                 89.999933
_cell_angle_beta                  90.000147
_cell_angle_gamma                 90.0
_cell_volume                      21585.3385454

loop_
_atom_site_label
_atom_site_type_symbol
_atom_type_description
_atom_site_fract_x
_atom_site_fract_y
_atom_site_fract_z
_atom_type_partial_charge
C1    C     C_R   0.586321 1.000000 0.500000 0.882231
C2    C     C_R   0.999996 0.842459 0.551725 -0.181368
C3    C     C_R   0.460001 0.842667 0.999978 -0.280361
C4    C     C_R   0.157367 0.540053 0.000010 -0.152993
C5    C     C_R   0.539999 0.842667 0.000021 -0.280361
C6    C     C_R   0.842631 0.459949 0.000009 -0.153504
C7    C     C_R   0.459945 0.157369 0.000005 -0.152951
C8    C     C_R   0.634404 0.000001 0.500000 -0.137891
C9    C     C_R   0.000000 0.634405 0.500000 -0.138699
C10   C     C_R   0.365596 0.000001 0.500000 -0.137891
C11   C     C_R   1.000000 0.365610 0.500000 -0.018641
C12   C     C_R   0.134404 0.500001 1.000000 -0.137890
C13   C     C_R   0.157540 0.999999 0.551726 -0.178057
C14   C     C_R   0.500000 0.134405 0.000000 -0.138699
C15   C     C_R   0.865596 0.500001 0.000000 -0.137891
C16   C     C_R   0.500000 0.865610 1.000000 -0.018641
C17   C     C_R   0.726249 0.000003 0.499999 -0.089415
C18   C     C_R   0.000000 0.726249 0.500000 -0.089675
C19   C     C_R   0.273751 0.000003 0.500000 -0.089416
C20   C     C_R   1.000000 0.273656 0.499999 0.016695
C21   C     C_R   0.226249 0.500003 1.000000 -0.089415
C22   C     C_R   0.500000 0.226249 0.000000 -0.089675
C23   C     C_R   0.773751 0.500003 0.000000 -0.089416
C24   C     C_R   0.999996 0.157510 0.448267 -0.168080
C25   C     C_R   0.500000 0.773656 1.000000 0.016696
C26   C     C_R   0.796712 0.000008 0.551668 -0.176568
C27   C     C_R   0.999996 0.796713 0.551668 -0.177215
C28   C     C_R   0.203288 0.999999 0.551669 -0.176570
C29   C     C_R   0.999996 0.203250 0.448311 -0.063439
C30   C     C_R   0.796712 1.000000 0.448331 -0.176569
C31   C     C_R   0.000004 0.203250 0.551689 -0.063453
C32   C     C_R   0.203288 0.000008 0.448332 -0.176568
C33   C     C_R   0.000003 0.796713 0.448333 -0.177216
C34   C     C_R   0.296712 0.500008 0.051668 -0.176568
C35   C     C_R   0.842460 0.999999 0.448273 -0.178057
C36   C     C_R   0.499997 0.296713 0.051668 -0.177216
C37   C     C_R   0.703288 0.499998 0.051669 -0.176568
C38   C     C_R   0.499999 0.703250 0.948311 -0.063447
C39   C     C_R   0.296712 0.500000 0.948331 -0.176570
C40   C     C_R   0.500002 0.703251 0.051689 -0.063446
C41   C     C_R   0.703288 0.500009 0.948332 -0.176569
C42   C     C_R   0.500003 0.296713 0.948333 -0.177216
C43   C     C_2   0.727053 0.916262 0.499980 0.402224
C44   C     C_2   0.083747 0.727048 0.499992 0.403211
C45   C     C_2   0.272950 0.083743 0.499979 0.405120
C46   C     C_R   0.000004 0.157510 0.551732 -0.168079
C47   C     C_2   0.914973 0.275164 0.499978 0.387333
C48   C     C_2   0.727050 0.083743 0.500019 0.405120
C49   C     C_2   0.085027 0.275164 0.500022 0.387332
C50   C     C_2   0.272947 0.916262 0.500022 0.402224
C51   C     C_2   0.916253 0.727048 0.500008 0.403211
C52   C     C_2   0.227053 0.416262 0.999981 0.402224
C53   C     C_2   0.583747 0.227048 0.999991 0.403210
C54   C     C_2   0.772950 0.583743 0.999984 0.405121
C55   C     C_2   0.414974 0.775164 0.999960 0.387333
C56   C     C_2   0.227050 0.583743 0.000018 0.405119
C57   C     C_R   0.157540 0.000008 0.448274 -0.178054
C58   C     C_2   0.585026 0.775164 0.000040 0.387333
C59   C     C_2   0.772947 0.416262 0.000017 0.402225
C60   C     C_2   0.416253 0.227048 0.000010 0.403211
C61   C     C_R   0.000004 0.842459 0.448275 -0.181367
C62   C     C_R   0.342460 0.500008 0.051726 -0.178055
C63   C     C_R   0.499996 0.342459 0.051725 -0.181368
C64   C     C_R   0.657540 0.499998 0.051726 -0.178058
C65   C     C_R   0.000000 0.586322 0.500000 0.885648
C66   C     C_R   0.499998 0.657510 0.948267 -0.168080
C67   C     C_R   0.342460 0.499999 0.948273 -0.178057
C68   C     C_R   0.500002 0.657510 0.051732 -0.168080
C69   C     C_R   0.657540 0.500009 0.948274 -0.178055
C70   C     C_R   0.500004 0.342459 0.948275 -0.181367
C71   C     C_R   0.865542 0.000003 0.500000 -0.039918
C72   C     C_R   1.000000 0.865542 0.500000 -0.040688
C73   C     C_R   0.134458 0.000003 0.500000 -0.039918
C74   C     C_R   1.000000 0.134439 0.500000 -0.045890
C75   C     C_R   0.365542 0.500003 1.000000 -0.039918
C76   C     C_R   0.413679 1.000000 0.500000 0.882232
C77   C     C_R   0.500000 0.365542 0.000000 -0.040688
C78   C     C_R   0.634458 0.500003 0.000000 -0.039918
C79   C     C_R   0.500000 0.634439 1.000000 -0.045890
C80   C     C_R   0.774087 0.000003 0.500000 0.045429
C81   C     C_R   1.000000 0.774087 0.500000 0.046529
C82   C     C_R   0.225913 0.000003 0.500000 0.045429
C83   C     C_R   1.000000 0.225882 0.500000 0.228018
C84   C     C_R   0.274087 0.500004 1.000000 0.045429
C85   C     C_R   0.500000 0.274087 0.000000 0.046529
C86   C     C_R   0.725913 0.500004 0.000000 0.045429
C87   C     C_R   1.000000 0.413683 0.500000 0.879505
C88   C     C_R   0.500000 0.725882 1.000000 0.228019
C89   C     C_R   1.000000 0.913507 0.500000 0.876707
C90   C     C_R   0.086492 0.000001 0.500000 0.880413
C91   C     C_R   1.000000 0.086486 0.500000 0.890269
C92   C     C_R   0.913507 0.000001 0.500000 0.880413
C93   C     C_R   0.500000 0.413507 0.000000 0.876707
C94   C     C_R   0.586493 0.500001 0.000000 0.880413
C95   C     C_R   0.500000 0.586486 1.000000 0.890269
C96   C     C_R   0.413507 0.500001 1.000000 0.880413
C97   C     C_R   0.500000 1.000000 0.609361 0.902786
C98   C     C_R   0.086321 0.500000 1.000000 0.882231
C99   C     C_R   1.000000 0.500000 0.609362 0.904195
C100  C     C_R   0.500000 1.000000 0.390639 0.902786
C101  C     C_R   1.000000 0.500000 0.390638 0.904196
C102  C     C_R   1.000000 0.500000 0.109361 0.902786
C103  C     C_R   0.500000 0.000000 0.109362 0.904195
C104  C     C_R   1.000000 0.500000 0.890639 0.902786
C105  C     C_R   0.500000 0.000000 0.890638 0.904196
C106  C     C_1   0.500000 1.000000 0.669576 -0.172509
C107  C     C_1   0.000000 0.500000 0.669578 -0.175116
C108  C     C_1   0.500000 0.000000 0.330424 -0.172509
C109  C     C_R   0.500000 0.086322 0.000000 0.885649
C110  C     C_1   1.000000 0.500000 0.330422 -0.175116
C111  C     C_1   1.000000 0.500000 0.169576 -0.172509
C112  C     C_1   0.500000 0.000000 0.169578 -0.175116
C113  C     C_1   1.000000 0.500000 0.830424 -0.172509
C114  C     C_1   0.500000 0.000000 0.830422 -0.175116
C115  C     C_1   0.500000 0.000000 0.720363 0.018258
C116  C     C_1   0.000000 0.500000 0.720364 0.017473
C117  C     C_1   0.500000 0.000000 0.279637 0.018258
C118  C     C_1   1.000000 0.500000 0.279636 0.017473
C119  C     C_1   1.000000 0.500000 0.220362 0.018258
C120  C     C_R   0.913679 0.500000 0.000000 0.882232
C121  C     C_1   0.500000 0.000000 0.220364 0.017473
C122  C     C_1   0.000000 0.500000 0.779637 0.018258
C123  C     C_1   0.500000 0.000000 0.779636 0.017473
C124  C     C_R   0.703370 0.959360 0.499990 0.011125
C125  C     C_R   0.040644 0.703368 0.499996 0.011205
C126  C     C_R   0.296632 0.040644 0.499989 0.009953
C127  C     C_R   0.959248 0.296756 0.499988 -0.016797
C128  C     C_R   0.703368 0.040644 0.500009 0.009953
C129  C     C_R   0.040752 0.296756 0.500011 -0.016799
C130  C     C_R   0.296630 0.959360 0.500012 0.011125
C131  C     C_R   0.500000 0.913683 1.000000 0.879505
C132  C     C_R   0.959356 0.703368 0.500004 0.011205
C133  C     C_R   0.203370 0.459360 0.999990 0.011125
C134  C     C_R   0.540644 0.203368 0.999995 0.011205
C135  C     C_R   0.796632 0.540644 0.999991 0.009954
C136  C     C_R   0.459248 0.796756 0.999979 -0.016799
C137  C     C_R   0.203368 0.540644 0.000009 0.009953
C138  C     C_R   0.540752 0.796756 0.000020 -0.016799
C139  C     C_R   0.796630 0.459360 0.000009 0.011125
C140  C     C_R   0.459356 0.203368 0.000005 0.011205
C141  C     C_R   0.657369 0.959949 0.499989 -0.153504
C142  C     C_R   0.842460 0.000008 0.551726 -0.178055
C143  C     C_R   0.040055 0.657369 0.499995 -0.152951
C144  C     C_R   0.342633 0.040053 0.499989 -0.152993
C145  C     C_R   0.960001 0.342667 0.499987 -0.280362
C146  C     C_R   0.657367 0.040053 0.500010 -0.152993
C147  C     C_R   0.039999 0.342667 0.500012 -0.280361
C148  C     C_R   0.342631 0.959949 0.500012 -0.153504
C149  C     C_R   0.959945 0.657369 0.500005 -0.152951
C150  C     C_R   0.157369 0.459949 0.999990 -0.153504
C151  C     C_R   0.540055 0.157369 0.999995 -0.152951
C152  C     C_R   0.842633 0.540053 0.999991 -0.152993
H1    H     H_    0.639355 0.929051 0.499982 0.205605
H2    H     H_    0.570955 0.139356 0.999991 0.205490
H3    H     H_    0.860647 0.570951 0.999984 0.205455
H4    H     H_    0.429057 0.860656 0.999962 0.157142
H5    H     H_    0.139353 0.570951 0.000017 0.205455
H6    H     H_    0.570943 0.860656 0.000038 0.157142
H7    H     H_    0.860645 0.429051 0.000016 0.205605
H8    H     H_    0.429045 0.139356 0.000009 0.205490
H9    H     H_    0.778904 0.000011 0.591612 0.149956
H10   H     H_    0.999994 0.778907 0.591613 0.150099
H11   H     H_    0.221096 0.999996 0.591613 0.149955
H12   H     H_    0.070955 0.639356 0.499993 0.205490
H13   H     H_    0.999993 0.221053 0.408363 0.125450
H14   H     H_    0.778904 0.999997 0.408387 0.149955
H15   H     H_    0.000007 0.221053 0.591636 0.125450
H16   H     H_    0.221096 0.000012 0.408387 0.149956
H17   H     H_    0.000006 0.778907 0.408388 0.150100
H18   H     H_    0.278904 0.500011 0.091612 0.149956
H19   H     H_    0.499994 0.278907 0.091613 0.150099
H20   H     H_    0.721096 0.499994 0.091613 0.149955
H21   H     H_    0.499997 0.721053 0.908363 0.125450
H22   H     H_    0.278904 0.499997 0.908387 0.149955
H23   H     H_    0.360647 0.070951 0.499981 0.205455
H24   H     H_    0.500003 0.721053 0.091636 0.125450
H25   H     H_    0.721096 0.500013 0.908387 0.149956
H26   H     H_    0.500006 0.278907 0.908388 0.150100
H27   H     H_    0.859674 0.000010 0.592077 0.162336
H28   H     H_    0.999993 0.859672 0.592076 0.162123
H29   H     H_    0.140326 0.999995 0.592077 0.162335
H30   H     H_    0.999993 0.140293 0.407919 0.157084
H31   H     H_    0.859674 0.999996 0.407923 0.162335
H32   H     H_    0.000007 0.140293 0.592080 0.157085
H33   H     H_    0.140326 0.000012 0.407923 0.162336
H34   H     H_    0.929057 0.360656 0.499978 0.157143
H35   H     H_    0.000006 0.859672 0.407924 0.162123
H36   H     H_    0.359674 0.500010 0.092077 0.162336
H37   H     H_    0.499994 0.359672 0.092076 0.162123
H38   H     H_    0.640326 0.499993 0.092077 0.162335
H39   H     H_    0.499997 0.640293 0.907920 0.157085
H40   H     H_    0.359674 0.499996 0.907922 0.162335
H41   H     H_    0.500003 0.640293 0.092080 0.157085
H42   H     H_    0.640326 0.500013 0.907923 0.162336
H43   H     H_    0.500006 0.359672 0.907924 0.162123
H44   H     H_    0.762830 0.914987 0.499984 0.089663
H45   H     H_    0.639353 0.070951 0.500017 0.205455
H46   H     H_    0.085022 0.762822 0.499994 0.089872
H47   H     H_    0.237173 0.085019 0.499983 0.094026
H48   H     H_    0.885449 0.295496 0.499956 0.075880
H49   H     H_    0.762827 0.085019 0.500015 0.094026
H50   H     H_    0.114551 0.295496 0.500047 0.075879
H51   H     H_    0.237170 0.914987 0.500018 0.089663
H52   H     H_    0.914978 0.762822 0.500006 0.089872
H53   H     H_    0.262830 0.414988 0.999984 0.089662
H54   H     H_    0.585022 0.262822 0.999993 0.089872
H55   H     H_    0.737173 0.585019 0.999987 0.094026
H56   H     H_    0.070943 0.360656 0.500022 0.157142
H57   H     H_    0.385449 0.795495 0.999925 0.075881
H58   H     H_    0.262827 0.585019 0.000015 0.094026
H59   H     H_    0.614551 0.795495 0.000074 0.075881
H60   H     H_    0.737170 0.414988 0.000014 0.089662
H61   H     H_    0.414978 0.262822 0.000008 0.089872
H62   H     H_    0.360645 0.929051 0.500020 0.205605
H63   H     H_    0.929045 0.639356 0.500008 0.205490
H64   H     H_    0.139355 0.429051 0.999982 0.205605
O1    O     O_R   0.565460 0.036980 0.500020 -0.621367
O2    O     O_R   0.463020 0.065460 0.000020 -0.620595
O3    O     O_R   0.934540 0.463020 0.000020 -0.621350
O4    O     O_R   0.536980 0.934540 0.000020 -0.626296
O5    O     O_R   0.065460 0.463020 0.999980 -0.621350
O6    O     O_R   0.463020 0.934540 0.999980 -0.626296
O7    O     O_R   0.934540 0.536980 0.999980 -0.621367
O8    O     O_R   0.536980 0.065460 0.999980 -0.620596
O9    O     O_R   0.499990 0.036980 0.582790 -0.609087
O10   O     O_R   0.963020 0.499990 0.582790 -0.610410
O11   O     O_R   0.500010 0.963020 0.582790 -0.609479
O12   O     O_R   0.963020 0.565460 0.500020 -0.620595
O13   O     O_R   0.036980 0.500010 0.582790 -0.610411
O14   O     O_R   0.499990 0.963020 0.417210 -0.609478
O15   O     O_R   0.963020 0.500010 0.417210 -0.610411
O16   O     O_R   0.500010 0.036980 0.417210 -0.609087
O17   O     O_R   0.036980 0.499990 0.417210 -0.610410
O18   O     O_R   0.999990 0.536980 0.082790 -0.609087
O19   O     O_R   0.463020 0.999990 0.082790 -0.610409
O20   O     O_R   0.000010 0.463020 0.082790 -0.609479
O21   O     O_R   0.536980 0.000010 0.082790 -0.610412
O22   O     O_R   0.999990 0.463020 0.917210 -0.609478
O23   O     O_R   0.434540 0.963020 0.500020 -0.621350
O24   O     O_R   0.463020 0.000010 0.917210 -0.610412
O25   O     O_R   0.000010 0.536980 0.917210 -0.609087
O26   O     O_R   0.536980 0.999990 0.917210 -0.610409
O27   O     O_R   0.999990 0.934570 0.546740 -0.625255
O28   O     O_R   0.065430 0.999990 0.546740 -0.624530
O29   O     O_R   0.000010 0.065430 0.546740 -0.623504
O30   O     O_R   0.934570 0.000010 0.546740 -0.624528
O31   O     O_R   0.999990 0.065430 0.453260 -0.623504
O32   O     O_R   0.065430 0.000010 0.453260 -0.624528
O33   O     O_R   0.000010 0.934570 0.453260 -0.625255
O34   O     O_R   0.036980 0.434540 0.500020 -0.626296
O35   O     O_R   0.934570 0.999990 0.453260 -0.624530
O36   O     O_R   0.499990 0.434570 0.046740 -0.625255
O37   O     O_R   0.565430 0.499990 0.046740 -0.624529
O38   O     O_R   0.500010 0.565430 0.046740 -0.623504
O39   O     O_R   0.434570 0.500010 0.046740 -0.624528
O40   O     O_R   0.499990 0.565430 0.953260 -0.623504
O41   O     O_R   0.565430 0.500010 0.953260 -0.624528
O42   O     O_R   0.500010 0.434570 0.953260 -0.625255
O43   O     O_R   0.434570 0.499990 0.953260 -0.624529
O44   O     O_2   0.706810 0.881391 0.499969 -0.554666
O45   O     O_R   0.565460 0.963020 0.499980 -0.621350
O46   O     O_2   0.118620 0.706805 0.499987 -0.554603
O47   O     O_2   0.293195 0.118613 0.499967 -0.555527
O48   O     O_2   0.910411 0.235142 0.499995 -0.561735
O49   O     O_2   0.706805 0.118613 0.500030 -0.555527
O50   O     O_2   0.089589 0.235142 0.500001 -0.561734
O51   O     O_2   0.293191 0.881391 0.500034 -0.554666
O52   O     O_2   0.881380 0.706805 0.500013 -0.554603
O53   O     O_2   0.206810 0.381391 0.999970 -0.554666
O54   O     O_2   0.618620 0.206805 0.999985 -0.554603
O55   O     O_2   0.793195 0.618613 0.999974 -0.555528
O56   O     O_R   0.963020 0.434540 0.499980 -0.626296
O57   O     O_2   0.410411 0.735142 0.999984 -0.561735
O58   O     O_2   0.206805 0.618613 0.000030 -0.555526
O59   O     O_2   0.589589 0.735142 0.000015 -0.561735
O60   O     O_2   0.793191 0.381391 0.000027 -0.554666
O61   O     O_2   0.381380 0.206805 0.000015 -0.554603
O62   O     O_R   0.434540 0.036980 0.499980 -0.621367
O63   O     O_R   0.036980 0.565460 0.499980 -0.620596
O64   O     O_R   0.065460 0.536980 0.000020 -0.621367
Zn1   Zn    Zn3+2 0.500000 0.049380 0.500000 1.000388
Zn2   Zn    Zn3+2 1.000000 1.000000 0.437580 0.967514
Zn3   Zn    Zn3+2 0.500000 0.500000 0.062420 0.967514
Zn4   Zn    Zn3+2 0.500000 0.500000 0.937580 0.967514
Zn5   Zn    Zn3+2 0.950620 0.500000 0.500000 0.987935
Zn6   Zn    Zn3+2 0.500000 0.950620 0.500000 1.000394
Zn7   Zn    Zn3+2 0.049380 0.500000 0.500000 0.987935
Zn8   Zn    Zn3+2 0.000000 0.549380 0.000000 1.000388
Zn9   Zn    Zn3+2 0.450620 0.000000 0.000000 0.987935
Zn10  Zn    Zn3+2 0.000000 0.450620 0.000000 1.000394
Zn11  Zn    Zn3+2 0.549380 0.000000 0.000000 0.987935
Zn12  Zn    Zn3+2 1.000000 0.000000 0.562420 0.967514

loop_
_geom_bond_atom_site_label_1
_geom_bond_atom_site_label_2
_ccdc_geom_bond_type
C14   C109  S    
C97   O9    A    
C91   O29   A    
C102  O20   A    
C124  C141  A    
C132  C149  A    
C90   O28   A    
C87   O34   A    
C1    C8    S    
C143  H12   S    
C18   C132  A    
O10   Zn5   S    
C21   C137  A    
C20   C129  A    
C141  H1    S    
C110  C118  T    
C37   H20   S    
O32   Zn2   S    
C6    H7    S    
C9    C143  A    
C5    C138  A    
C50   H51   S    
C51   H52   S    
C104  O22   A    
C66   C79   A    
C23   C86   S    
O6    Zn9   S    
C9    C149  A    
C55   O57   D    
C116  C122  S    
C30   C35   A    
C22   C134  A    
C76   O23   A    
C48   O49   D    
C41   H25   S    
O43   Zn4   S    
C27   C81   A    
C42   H26   S    
C73   C90   S    
C29   C83   A    
O31   Zn2   S    
C120  O3    A    
C18   C125  A    
C44   O46   D    
C7    C140  A    
C43   C124  S    
C49   H50   S    
C45   O47   D    
C94   O41   A    
C48   C128  S    
C54   C135  S    
C35   H31   S    
C104  O25   A    
C98   O5    A    
C22   C140  A    
C42   C70   A    
C18   C81   S    
C31   C83   A    
C15   C120  S    
C111  C119  T    
C3    C136  A    
C22   C85   S    
C46   H32   S    
C6    C139  A    
C25   C136  A    
C16   C131  S    
C117  C121  S    
C24   C29   A    
C43   O44   D    
C5    C16   A    
C109  O2    A    
C50   C130  S    
C102  O18   A    
C6    C15   A    
C118  C119  S    
C10   C76   S    
O12   Zn5   S    
O28   Zn12  S    
C7    C14   A    
C71   C92   S    
C38   C66   A    
C11   C87   S    
C70   H43   S    
O62   Zn1   S    
C90   O32   A    
C14   C151  A    
C65   O63   A    
O41   Zn4   S    
C103  O19   A    
O34   Zn7   S    
C89   O27   A    
C13   C28   A    
C2    C27   A    
O9    Zn1   S    
O16   Zn1   S    
C4    C12   A    
C19   C82   S    
O11   Zn6   S    
C57   H33   S    
C34   H18   S    
C93   O36   A    
C30   C80   A    
O38   Zn3   S    
C58   C138  S    
C19   C130  A    
C4    C137  A    
C33   H17   S    
C66   H39   S    
C70   C77   A    
C52   C133  S    
C69   C78   A    
C34   C84   A    
C32   C57   A    
C39   H22   S    
C2    C72   A    
C21   C133  A    
C15   C152  A    
C99   O13   A    
C75   C96   S    
C53   H54   S    
O3    Zn10  S    
O29   Zn12  S    
O22   Zn10  S    
C53   C134  S    
C91   O31   A    
C44   C125  S    
C100  C108  S    
C115  C123  S    
O33   Zn2   S    
C113  C122  T    
C24   H30   S    
C52   H53   S    
C126  C144  A    
C12   C150  A    
C105  C114  S    
C100  O16   A    
C30   H14   S    
C20   C127  A    
O21   Zn11  S    
O36   Zn3   S    
C40   H24   S    
O40   Zn4   S    
C67   H40   S    
C11   C145  A    
C38   H21   S    
C7    H8    S    
O56   Zn5   S    
C49   O50   D    
C49   C129  S    
C48   H49   S    
C31   C46   A    
C25   C88   S    
C26   C80   A    
O7    Zn8   S    
C65   O12   A    
C38   C88   A    
C103  C112  S    
O35   Zn2   S    
O63   Zn7   S    
C74   C91   S    
C50   O51   D    
C152  H3    S    
C60   H61   S    
O64   Zn8   S    
C64   C78   A    
C79   C95   S    
O24   Zn9   S    
C56   C137  S    
C87   O56   A    
C55   H57   S    
C37   C86   A    
C17   C124  A    
O1    Zn1   S    
C4    H5    S    
C60   C140  S    
C21   C84   S    
C59   C139  S    
C45   C126  S    
C103  O21   A    
O30   Zn12  S    
C51   O52   D    
O14   Zn6   S    
C9    C65   S    
C54   O55   D    
O15   Zn5   S    
C101  O15   A    
C42   C85   A    
C10   C144  A    
C102  C111  S    
C95   O38   A    
C8    C141  A    
C109  O8    A    
C89   O33   A    
C151  H2    S    
C130  C148  A    
C1    O45   A    
C114  C123  T    
O4    Zn11  S    
C97   O11   A    
O23   Zn6   S    
C13   C73   A    
C104  C113  S    
C54   H55   S    
C120  O7    A    
C13   H29   S    
C60   O61   D    
C71   C142  A    
C52   O53   D    
C101  O17   A    
C47   O48   D    
C28   C82   A    
C47   H48   S    
C94   O37   A    
C67   C75   A    
C97   C106  S    
C5    H6    S    
C36   C63   A    
C34   C62   A    
C105  O26   A    
C46   C74   A    
C37   C64   A    
C32   C82   A    
C59   H60   S    
C61   C72   A    
C62   H36   S    
O45   Zn6   S    
C63   C77   A    
C92   O35   A    
C23   C139  A    
O27   Zn12  S    
C131  O4    A    
C59   O60   D    
C58   O59   D    
C36   H19   S    
C92   O30   A    
C19   C126  A    
C57   C73   A    
C108  C117  T    
C98   O64   A    
C8    C146  A    
C133  C150  A    
O19   Zn9   S    
C96   O39   A    
C31   H15   S    
C148  H62   S    
C39   C84   A    
C1    O1    A    
C51   C132  S    
C24   C74   A    
C17   C128  A    
C47   C127  S    
C78   C94   S    
C76   O62   A    
C36   C85   A    
C45   H47   S    
C99   C107  S    
C145  H34   S    
C26   H9    S    
C2    H28   S    
O8    Zn11  S    
C23   C135  A    
C106  C115  T    
C127  C145  A    
C40   C88   A    
C146  H45   S    
C100  O14   A    
C25   C138  A    
C101  C110  S    
C112  C121  T    
C27   H10   S    
C63   H37   S    
C56   O58   D    
C72   C89   S    
C128  C146  A    
O26   Zn11  S    
O17   Zn7   S    
O20   Zn10  S    
O5    Zn10  S    
C125  C143  A    
C96   O43   A    
O18   Zn8   S    
C134  C151  A    
C95   O40   A    
C144  H23   S    
C77   C93   S    
C69   H42   S    
C105  O24   A    
C56   H58   S    
C131  O6    A    
C29   H13   S    
C150  H64   S    
C17   C80   S    
O25   Zn8   S    
C58   H59   S    
C147  H56   S    
C62   C75   A    
C39   C67   A    
C107  C116  T    
C129  C147  A    
C99   O10   A    
C41   C86   A    
C68   H41   S    
O2    Zn9   S    
C35   C71   A    
C93   O42   A    
C61   H35   S    
O37   Zn3   S    
C3    H4    S    
C64   H38   S    
O13   Zn7   S    
C68   C79   A    
C33   C61   A    
C53   O54   D    
C40   C68   A    
C20   C83   S    
O39   Zn3   S    
C12   C98   S    
C32   H16   S    
C44   H46   S    
C43   H44   S    
O42   Zn4   S    
C11   C147  A    
C135  C152  A    
C26   C142  A    
C41   C69   A    
C33   C81   A    
C149  H63   S    
C3    C16   A    
C55   C136  S    
C28   H11   S    
C10   C148  A    
C142  H27   S    
