data_mof_unit_56076.cif
_audit_creation_date              2012-12-10T17:50:13-0500
_audit_creation_method            fapswitch 2.2
_symmetry_space_group_name_H-M    P1
_symmetry_Int_Tables_number       1
_space_group_crystal_system       triclinic
_cell_length_a                    10.62546
_cell_length_b                    14.70493
_cell_length_c                    14.72517
_cell_angle_alpha                 65.095867
_cell_angle_beta                  103.150948
_cell_angle_gamma                 102.689373
_cell_volume                      2012.01040416

loop_
_atom_site_label
_atom_site_type_symbol
_atom_type_description
_atom_site_fract_x
_atom_site_fract_y
_atom_site_fract_z
_atom_type_partial_charge
C1    C     C_R   0.479255 0.119688 0.312341 0.787216
C2    C     C_R   0.523285 0.880290 0.687663 0.788640
C3    C     C_R   0.495094 0.291883 0.178963 -0.253725
C4    C     C_R   0.527811 0.708198 0.821106 -0.259792
C5    C     C_R   0.510297 0.360826 0.079954 0.089460
C6    C     C_R   0.547697 0.639881 0.922515 0.088886
C7    C     C_R   0.496495 0.321560 0.004689 0.162923
C8    C     C_R   0.576659 0.679329 0.998911 0.164886
C9    C     C_R   0.536886 0.467373 0.053633 0.063671
C10   C     C_R   0.535249 0.533514 0.949923 0.064291
C11   C     C_R   0.523630 0.491246 0.877403 -0.222631
C12   C     C_R   0.567970 0.509912 0.127646 -0.223729
C13   C     C_R   0.505607 0.387270 0.904731 -0.230134
C14   C     C_R   0.588811 0.613901 0.100474 -0.229557
C15   C     C_R   0.716000 0.283847 0.669157 -0.321694
C16   C     C_R   0.282996 0.715631 0.331644 -0.319045
C17   C     C_R   0.682753 0.202602 0.639188 0.082132
C18   C     C_R   0.316766 0.797149 0.361184 0.081999
C19   C     C_R   0.518986 0.285397 0.508987 0.000845
C20   C     C_R   0.480966 0.714575 0.491102 0.002109
C21   C     C_R   0.548522 0.371147 0.535298 -0.022001
C22   C     C_R   0.450860 0.628528 0.465256 -0.022604
C23   C     C_R   0.259833 0.000406 0.500308 0.805981
C24   C     C_R   0.740149 0.999594 0.499690 0.805210
C25   C     C_R   0.648979 0.368029 0.617952 0.163731
C26   C     C_R   0.349995 0.631439 0.382903 0.162906
C27   C     C_R   0.482030 0.458579 0.483808 0.075667
C28   C     C_R   0.517151 0.540993 0.516913 0.078918
C29   C     C_R   0.616912 0.532900 0.600629 -0.242885
C30   C     C_R   0.381895 0.466492 0.400356 -0.239246
C31   C     C_R   0.681410 0.448368 0.649595 -0.202883
C32   C     C_R   0.317125 0.550883 0.351591 -0.194501
C33   C     C_3   0.016744 0.011842 0.410028 0.318497
C34   C     C_3   0.983160 0.988135 0.589994 0.318179
C35   C     C_3   0.962580 0.089150 0.430199 -0.251231
C36   C     C_3   0.037346 0.910829 0.569831 -0.251234
C37   C     C_3   0.876241 0.999036 0.498878 -0.082436
C38   C     C_3   0.123704 0.000947 0.501135 -0.083478
C39   C     C_3   0.928763 0.921937 0.476447 -0.185201
C40   C     C_3   0.071163 0.078042 0.523585 -0.185646
C41   C     C_R   0.477158 0.187337 0.205122 -0.054112
C42   C     C_R   0.542434 0.812626 0.795203 -0.054878
C43   C     C_R   0.474293 0.216584 0.030352 -0.202627
C44   C     C_R   0.592338 0.784151 0.972890 -0.201448
C45   C     C_R   0.465959 0.149767 0.130243 -0.198240
C46   C     C_R   0.576266 0.850525 0.871563 -0.197763
Cu1   Cu    Cu3+1 0.465750 0.918270 0.475680 0.935470
Cu2   Cu    Cu3+1 0.534250 0.081730 0.524320 0.935514
H1    H     H_    0.929092 0.160652 0.372083 0.147346
H2    H     H_    0.070799 0.839319 0.627952 0.146908
H3    H     H_    0.557956 0.720169 0.550955 0.121613
H4    H     H_    0.442404 0.279994 0.448832 0.121682
H5    H     H_    0.265933 0.862573 0.321178 0.138281
H6    H     H_    0.733527 0.137147 0.679221 0.137468
H7    H     H_    0.793120 0.280605 0.732453 0.139742
H8    H     H_    0.205485 0.718665 0.268636 0.139553
H9    H     H_    0.647670 0.590769 0.630819 0.128482
H10   H     H_    0.350841 0.408503 0.370341 0.130786
H11   H     H_    0.868745 0.859440 0.455847 0.150946
H12   H     H_    0.131167 0.140539 0.544192 0.151339
H13   H     H_    0.497696 0.358141 0.846844 0.151537
H14   H     H_    0.612607 0.643239 0.159587 0.147888
H15   H     H_    0.496869 0.681575 0.760675 0.152499
H16   H     H_    0.495221 0.317682 0.237357 0.147040
H17   H     H_    0.588634 0.931141 0.853122 0.153055
H18   H     H_    0.452176 0.069043 0.148956 0.154227
H19   H     H_    0.464837 0.186195 0.973258 0.133195
H20   H     H_    0.616088 0.814720 0.031038 0.132330
H21   H     H_    0.532266 0.536524 0.798929 0.142630
H22   H     H_    0.581057 0.465033 0.207895 0.147050
H23   H     H_    0.757477 0.445752 0.713427 0.144139
H24   H     H_    0.240578 0.553269 0.288101 0.142818
N1    N     N_R   0.585750 0.204560 0.560800 -0.179018
N2    N     N_R   0.414250 0.795440 0.439200 -0.179415
O1    O     O_R   0.454850 0.022100 0.338110 -0.589408
O2    O     O_R   0.545150 0.977900 0.661890 -0.589458
O3    O     O_R   0.512700 0.160150 0.379180 -0.590934
O4    O     O_R   0.487300 0.839850 0.620820 -0.591350
O5    O     O_R   0.287930 0.931000 0.479440 -0.568299
O6    O     O_R   0.712070 0.069000 0.520560 -0.568600
O7    O     O_R   0.345780 0.069050 0.520520 -0.592001
O8    O     O_R   0.654220 0.930950 0.479480 -0.592711
N3    N     N_2   0.041042 0.025242 0.312084 -0.426639
H25   H     H_    0.115440 0.082999 0.285848 0.237199
C47   C     C_3   0.925844 0.029475 0.236831 -0.697248
H26   H     H_    0.953508 0.034730 0.166291 0.225634
H27   H     H_    0.879568 0.096982 0.219347 0.221995
H28   H     H_    0.854677 0.959852 0.264231 0.234222
N4    N     N_2   0.958597 0.974724 0.687872 -0.426868
H29   H     H_    0.884176 0.916954 0.714038 0.238573
C48   C     C_3   0.073619 0.970570 0.763246 -0.694393
H30   H     H_    0.045707 0.965327 0.833698 0.226283
H31   H     H_    0.144764 0.040219 0.735901 0.234839
H32   H     H_    0.119992 0.903080 0.780847 0.220633

loop_
_geom_bond_atom_site_label_1
_geom_bond_atom_site_label_2
_ccdc_geom_bond_type
C25   C31   A    
C38   C40   S    
C26   C32   A    
C40   H12   S    
C34   C37   S    
C1    O3    A    
Cu2   O2    S    
Cu1   O5    S    
C36   H2    S    
C32   H24   S    
C3    H16   S    
C4    H15   S    
C33   C39   S    
C34   C40   S    
C28   C29   A    
C19   C21   A    
C20   H3    S    
C15   C25   A    
C14   H14   S    
Cu2   O7    S    
C42   C46   A    
Cu1   O8    S    
C24   O8    A    
C12   H22   S    
C18   H5    S    
C19   H4    S    
C24   O6    A    
N3    H25   S    
C35   H1    S    
C7    C43   A    
N4    C48   S    
C9    C10   A    
C31   H23   S    
C21   C27   A    
C18   N2    A    
C22   C28   A    
C27   C30   A    
C17   N1    A    
C44   C46   A    
C47   H27   S    
C16   C26   A    
C37   C39   S    
C1    O1    A    
C19   N1    A    
C46   H17   S    
C4    C6    A    
C48   H30   S    
C5    C7    A    
C6    C8    A    
C47   H26   S    
C15   H7    S    
Cu2   O3    S    
C16   H8    S    
C43   H19   S    
C5    C9    A    
C2    O4    A    
C48   H31   S    
C43   C45   A    
Cu1   Cu2   S    
C39   H11   S    
C24   C37   S    
C20   N2    A    
C33   N3    S    
C1    C41   S    
N3    C47   S    
C29   H9    S    
C44   H20   S    
C45   H18   S    
C2    O2    A    
C47   H28   S    
C15   C17   A    
C21   C25   A    
C3    C41   A    
C8    C14   A    
C23   O7    A    
C35   C37   S    
Cu2   N1    S    
C36   C39   S    
C8    C44   A    
Cu1   N2    S    
C20   C22   A    
C3    C5    A    
C6    C10   A    
C11   H21   S    
C23   C38   S    
C33   C38   S    
Cu2   O6    S    
C36   C38   S    
C35   C40   S    
C12   C14   A    
C34   N4    S    
Cu1   O1    S    
C29   C31   A    
C48   H32   S    
C30   C32   A    
C11   C13   A    
C4    C42   A    
C2    C42   S    
C30   H10   S    
C33   C35   S    
C34   C36   S    
C9    C12   A    
C10   C11   A    
C7    C13   A    
C13   H13   S    
C16   C18   A    
C22   C26   A    
C27   C28   A    
C41   C45   A    
Cu1   O4    S    
C23   O5    A    
N4    H29   S    
C17   H6    S    
