data_mof_unit_40655.cif
_audit_creation_date              2012-12-10T20:25:44-0500
_audit_creation_method            fapswitch 2.2
_symmetry_space_group_name_H-M    P1
_symmetry_Int_Tables_number       1
_space_group_crystal_system       triclinic
_cell_length_a                    8.586374
_cell_length_b                    10.68719
_cell_length_c                    9.899258
_cell_angle_alpha                 89.325848
_cell_angle_beta                  98.306402
_cell_angle_gamma                 90.590715
_cell_volume                      898.771937008

loop_
_atom_site_label
_atom_site_type_symbol
_atom_type_description
_atom_site_fract_x
_atom_site_fract_y
_atom_site_fract_z
_atom_type_partial_charge
C1    C     C_R   0.505555 0.259908 0.501131 0.873908
C2    C     C_R   0.367584 0.466854 0.913074 0.195658
C3    C     C_3   0.281407 0.344967 0.898582 -0.501012
C4    C     C_R   0.201424 0.499614 0.464398 0.967653
C5    C     C_3   0.283429 0.343376 0.052409 -0.475733
C6    C     C_R   0.506224 0.739916 0.500069 0.876739
C7    C     C_R   0.798604 0.500209 0.535622 0.966593
C8    C     C_2   0.036409 0.498374 0.445265 -0.369662
C9    C     C_2   0.963648 0.501083 0.554809 -0.395970
C10   C     C_R   0.547276 0.062026 0.626953 0.138035
C11   C     C_R   0.533170 0.128561 0.504117 -0.103727
C12   C     C_R   0.552867 0.936944 0.382559 -0.223247
C13   C     C_R   0.552293 0.066386 0.383303 -0.218855
C14   C     C_R   0.534428 0.871208 0.502632 -0.102255
C15   C     C_R   0.547788 0.934232 0.626061 0.134513
C16   C     C_3   0.450723 0.923320 0.739308 -0.460725
C17   C     C_3   0.449777 0.064905 0.740201 -0.503826
C18   C     C_R   0.368377 0.465458 0.055213 0.157950
C19   C     C_R   0.621867 0.551985 0.084861 0.431275
C20   C     C_R   0.623315 0.547757 0.941879 -0.147940
H1    H     H_    0.975283 0.494850 0.341194 0.219492
H2    H     H_    0.332538 0.881161 0.706376 0.208360
H3    H     H_    0.517562 0.881477 0.833301 0.207619
H4    H     H_    0.330842 0.104468 0.707368 0.204891
H5    H     H_    0.516464 0.104200 0.835078 0.203879
H6    H     H_    0.701287 0.652981 0.237519 0.368716
H7    H     H_    0.722982 0.585766 0.899069 0.174712
H8    H     H_    0.161309 0.354383 0.840360 0.201235
H9    H     H_    0.353414 0.270574 0.863099 0.211198
H10   H     H_    0.164473 0.352487 0.082880 0.210429
H11   H     H_    0.356776 0.267483 0.105624 0.208235
H12   H     H_    0.024859 0.504518 0.658890 0.177086
H13   H     H_    0.554718 0.116349 0.287768 0.170759
H14   H     H_    0.555374 0.889555 0.286760 0.172783
N1    N     N_R   0.498950 0.499140 0.142680 -0.164446
N2    N     N_R   0.498950 0.499180 0.857030 -0.143448
O1    O     O_R   0.500020 0.316790 0.614690 -0.615466
O2    O     O_R   0.500000 0.316760 0.385350 -0.626493
O3    O     O_R   0.271760 0.500010 0.587850 -0.611102
O4    O     O_R   0.271740 0.499970 0.358500 -0.614205
O5    O     O_R   0.500000 0.683240 0.614650 -0.617354
O6    O     O_R   0.499980 0.683210 0.385310 -0.649020
O7    O     O_R   0.728260 0.500030 0.641500 -0.633088
O8    O     O_R   0.728240 0.499990 0.412150 -0.605297
O9    O     O_3   0.744593 0.612824 0.161972 -0.784627
Zn1   Zn    Zn3+2 0.500010 0.500020 0.653130 0.938817
Zn2   Zn    Zn3+2 0.499990 0.499980 0.346870 0.946960

loop_
_geom_bond_atom_site_label_1
_geom_bond_atom_site_label_2
_ccdc_geom_bond_type
O4    Zn2   S    
O5    Zn1   S    
C19   O9    S    
C13   H13   S    
C20   H7    S    
C7    O7    A    
C2    C18   A    
O8    Zn2   S    
C18   N1    A    
C19   C20   A    
C9    H12   S    
C4    O3    A    
C1    O1    A    
C10   C15   A    
C17   H5    S    
C2    C3    S    
N1    Zn2   S    
C19   N1    A    
C7    O8    A    
N2    Zn1   S    
C11   C13   A    
O2    Zn2   S    
C1    O2    A    
O3    Zn1   S    
C3    H8    S    
C12   C14   A    
C8    H1    S    
C16   H3    S    
O6    Zn2   S    
O7    Zn1   S    
C17   H4    S    
C6    C14   S    
C10   C11   A    
C10   C17   S    
C12   H14   S    
C15   C16   S    
C20   N2    A    
C12   C13   A    
C7    C9    S    
C5    H10   S    
C6    O6    A    
C2    N2    A    
C4    C8    S    
C3    H9    S    
C14   C15   A    
C8    C9    D    
C16   H2    S    
C5    C18   S    
H6    O9    S    
C5    H11   S    
O1    Zn1   S    
C4    O4    A    
C16   C17   S    
C3    C5    S    
C6    O5    A    
C1    C11   S    
