data_mof_unit_66991.cif
_audit_creation_date              2013-03-05T15:58:13-0500
_audit_creation_method            fapswitch 2.2
_symmetry_space_group_name_H-M    P1
_symmetry_Int_Tables_number       1
_space_group_crystal_system       triclinic
_cell_length_a                    8.319974
_cell_length_b                    12.58926
_cell_length_c                    14.323946
_cell_angle_alpha                 92.993452
_cell_angle_beta                  90.903422
_cell_angle_gamma                 98.229882
_cell_volume                      1482.43634254

loop_
_atom_site_label
_atom_site_type_symbol
_atom_site_description
_atom_site_fract_x
_atom_site_fract_y
_atom_site_fract_z
_atom_type_partial_charge
P1    P     P_3+3 0.054400 0.427280 0.286870 0.438133
O1    O     O_2   0.887370 0.460630 0.272300 -0.358352
O2    O     O_3   0.129410 0.451380 0.388510 -0.401901
O3    O     O_3   0.670210 0.653170 0.329170 -0.369976
O4    O     O_2   0.771977 0.582745 0.166029 -0.388214
O5    O     O_3   0.984417 0.289100 0.265374 -0.565122
O6    O     O_3   0.728076 0.781778 0.173422 -0.509516
C1    C     C_3   0.552381 0.899289 0.116104 -0.992637
H1    H     H_    0.478045 0.962884 0.136753 0.237614
H2    H     H_    0.649434 0.933196 0.069148 0.294008
P2    P     P_3+3 0.668300 0.742890 0.573060 0.460794
P3    P     P_3+3 0.136645 0.843342 0.375334 0.449089
O7    O     O_2   0.845380 0.761330 0.544970 -0.378186
O8    O     O_3   0.088930 0.704860 0.376040 -0.379454
O9    O     O_2   0.013557 0.891325 0.438536 -0.380839
O10   O     O_3   0.670346 0.774439 0.693774 -0.628626
O11   O     O_3   0.097543 0.885020 0.263449 -0.532872
C2    C     C_3   0.130484 0.805454 0.196812 0.451689
H3    H     H_    0.043246 0.730633 0.202338 0.163109
H4    H     H_    0.256114 0.787164 0.206091 0.006279
C3    C     C_3   0.112459 0.845110 0.099050 -0.894149
H5    H     H_    0.142982 0.783988 0.046056 0.215050
H6    H     H_    0.985885 0.859533 0.085708 0.307532
C4    C     C_3   0.292151 0.771802 0.711286 0.712852
H7    H     H_    0.371666 0.723677 0.671328 0.140280
C5    C     C_3   0.246758 0.859176 0.650185 -0.915051
H8    H     H_    0.171756 0.912024 0.688805 0.278701
H9    H     H_    0.357020 0.909955 0.627340 0.213656
H10   H     H_    0.175598 0.821306 0.588082 0.261478
Ba1   Ba    Ba6+2 0.855630 0.555280 0.454520 1.554721
C6    C     C_3   0.102080 0.224228 0.285699 0.299216
H11   H     H_    0.048636 0.160818 0.331752 0.111497
H12   H     H_    0.209229 0.269527 0.321369 0.143827
C7    C     C_3   0.150616 0.169509 0.196229 -0.903905
H13   H     H_    0.041918 0.126558 0.157389 0.287599
H14   H     H_    0.234534 0.111292 0.211732 0.257108
H15   H     H_    0.212444 0.232623 0.153593 0.237849
C8    C     C_3   0.766460 0.715742 0.745886 0.847892
H16   H     H_    0.843787 0.669153 0.702618 0.075902
C9    C     C_3   0.869030 0.794166 0.815284 -0.816481
H17   H     H_    0.948731 0.854822 0.777427 0.254127
H18   H     H_    0.944114 0.750843 0.860765 0.239581
H19   H     H_    0.789042 0.837076 0.860542 0.275055
P4    P     P_3+3 0.135310 0.572810 0.713130 0.466992
O12   O     O_2   0.302330 0.539400 0.727760 -0.332396
O13   O     O_3   0.060300 0.548700 0.611500 -0.382928
O14   O     O_3   0.519500 0.346920 0.670840 -0.326142
O15   O     O_3   0.147936 0.711427 0.737323 -0.604893
P5    P     P_3+3 0.061593 0.153482 0.614820 0.449991
O16   O     O_3   0.614310 0.373510 0.452640 -0.406244
O17   O     O_3   0.100780 0.295230 0.623970 -0.410602
O18   O     O_2   0.210493 0.111357 0.570732 -0.353314
O19   O     O_3   0.056176 0.103029 0.726343 -0.565191
Ba2   Ba    Ba6+2 0.334200 0.444810 0.545490 1.551157
P6    P     P_3+3 0.650388 0.653180 0.207295 0.449278
C10   C     C_3   0.627325 0.857718 0.202672 0.730855
H20   H     H_    0.527914 0.825558 0.249121 0.020005
H21   H     H_    0.473381 0.832690 0.076960 0.235186
O20   O     O_3   0.575400 0.626570 0.547370 -0.372123
C11   C     C_3   0.523918 0.326777 0.253290 0.468692
H22   H     H_    0.410092 0.361847 0.253566 0.015835
H23   H     H_    0.618352 0.385174 0.289408 0.161469
C12   C     C_3   0.574134 0.310646 0.152908 -1.005605
H24   H     H_    0.482989 0.251876 0.113490 0.246985
H25   H     H_    0.585027 0.388575 0.119215 0.239325
H26   H     H_    0.691892 0.279010 0.151316 0.277981
P7    P     P_3+3 0.521770 0.243146 0.415634 0.413266
O21   O     O_2   0.344320 0.238700 0.455090 -0.387325
O22   O     O_3   0.500312 0.226725 0.293664 -0.596836
H27   H     H_    0.194852 0.921533 0.091590 0.260455
C13   C     C_3   0.073089 0.188538 0.794214 0.312715
H28   H     H_    0.174835 0.251421 0.777707 0.146152
H29   H     H_    0.959520 0.224692 0.798698 0.021012
C14   C     C_3   0.115892 0.146046 0.887809 0.401044
H30   H     H_    0.219225 0.102033 0.876100 0.165354
P8    P     P_3+3 0.541807 0.345461 0.792495 0.484831
C15   C     C_3   0.593155 0.153643 0.835922 0.707762
H31   H     H_    0.710330 0.200507 0.859640 0.064968
O23   O     O_2   0.419700 0.415286 0.834162 -0.353213
O24   O     O_3   0.467277 0.216835 0.827730 -0.559051
H32   H     H_    0.636448 0.015254 0.914071 0.282834
C16   C     C_3   0.549401 0.073643 0.911479 -0.922028
H33   H     H_    0.428755 0.026615 0.897889 0.241879
H34   H     H_    0.549527 0.117285 0.980895 0.239891
C17   C     C_R   0.984297 0.448017 0.059812 -0.152343
C18   C     C_R   0.179261 0.499204 0.194732 0.227375
C19   C     C_R   0.331048 0.553513 0.225395 -0.492593
C20   C     C_R   0.443644 0.599824 0.162947 0.211232
C21   C     C_R   0.401382 0.600067 0.068110 -0.300917
C22   C     C_R   0.246552 0.552147 0.034623 0.076354
C23   C     C_R   0.134915 0.498798 0.097237 -0.003770
H35   H     H_    0.366117 0.554469 0.298561 0.171879
C24   C     C_R   0.054607 0.502877 0.900985 -0.026958
C25   C     C_R   0.942885 0.450813 0.963909 0.102921
C26   C     C_R   0.011248 0.498833 0.802909 0.228121
C27   C     C_R   0.860460 0.444267 0.772165 -0.419102
C28   C     C_R   0.747728 0.400668 0.835434 0.278976
C29   C     C_R   0.789113 0.402342 0.930334 -0.295097
C30   C     C_R   0.204815 0.555129 0.938670 -0.152676
H36   H     H_    0.489870 0.636959 0.020469 0.191444
H37   H     H_    0.700910 0.364792 0.977333 0.147438
H38   H     H_    0.825700 0.442035 0.698885 0.165498
H39   H     H_    0.898371 0.404889 0.104589 0.177010
H40   H     H_    0.292037 0.597226 0.893867 0.193830
C31   C     C_R   0.793500 0.171192 0.497016 -0.218717
C32   C     C_R   0.430884 0.811601 0.459867 -0.479181
C33   C     C_R   0.409837 0.993887 0.422523 -0.186663
C34   C     C_R   0.344028 0.886220 0.421097 0.212392
C35   C     C_R   0.579010 0.844983 0.507667 0.297884
C36   C     C_R   0.647191 0.955990 0.510751 -0.072860
C37   C     C_R   0.562132 0.030522 0.465733 -0.087182
C38   C     C_R   0.632255 0.139698 0.464160 0.265344
C39   C     C_R   0.871603 0.101171 0.548292 0.246074
C40   C     C_R   0.796548 0.995475 0.557470 -0.202172
H41   H     H_    0.340073 0.047516 0.388709 0.172408
H42   H     H_    0.857661 0.945521 0.600856 0.192233
H43   H     H_    0.376953 0.728061 0.458784 0.178159
C41   C     C_3   0.731402 0.950876 0.257503 -0.821163
H44   H     H_    0.777728 0.922007 0.323134 0.259092
H45   H     H_    0.836169 0.984248 0.215680 0.270374
H46   H     H_    0.658655 0.016089 0.275594 0.208432
Cl1   Cl    Cl    0.635979 0.627490 0.812446 -0.704384
C42   C     C_3   0.164051 0.236093 0.962637 -1.009071
H47   H     H_    0.059449 0.247830 0.007162 0.285499
H48   H     H_    0.264605 0.214304 0.005721 0.260268
H49   H     H_    0.209224 0.313542 0.932374 0.263437
Cl2   Cl    Cl    0.958225 0.050254 0.928240 -0.748819
C43   C     C_3   0.615559 0.095734 0.741865 -0.905616
H50   H     H_    0.662725 0.155417 0.691087 0.209585
H51   H     H_    0.703764 0.038033 0.748710 0.252498
H52   H     H_    0.497431 0.052687 0.714546 0.262721
C44   C     C_3   0.885728 0.277954 0.474521 -0.586959
H53   H     H_    0.015698 0.272850 0.464196 0.230215
H54   H     H_    0.844873 0.302417 0.406861 0.246008
H55   H     H_    0.870850 0.339953 0.530398 0.239719
C45   C     C_3   0.377530 0.823984 0.800782 -0.903174
H56   H     H_    0.293006 0.868558 0.840985 0.247526
H57   H     H_    0.412794 0.762286 0.845938 0.262170
H58   H     H_    0.487652 0.879711 0.784775 0.257922

loop_
_geom_bond_atom_site_label_1
_geom_bond_atom_site_label_2
_geom_bond_distance
_ccdc_geom_bond_type
C1    H1    1.110750 S    
P5    C39   1.851861 S    
C19   C20   1.393617 A    
C12   H25   1.108599 S    
C24   C25   1.421163 A    
C27   H38   1.082233 S    
P2    C35   1.859666 S    
C2    C3    1.523313 S    
C37   C38   1.415646 A    
P8    O23   1.543062 D    
O6    P6    1.751155 S    
C43   H50   1.108718 S    
C1    C10   1.528758 S    
H32   C16   1.104819 S    
C17   C23   1.407159 A    
C42   H47   1.109268 S    
C15   H31   1.103571 S    
Ba1   Ba2   4.593139 S    
C5    H8    1.108771 S    
O16   Ba2   2.928783 S    
C11   C12   1.515258 S    
C15   C16   1.529536 S    
C31   C39   1.398335 A    
C4    C5    1.525663 S    
O14   P8    1.750853 S    
P1    O1    1.522532 D    
C18   C23   1.438361 A    
C8    H16   1.106648 S    
O2    Ba2   2.811579 S    
C42   H48   1.105936 S    
Ba2   O21   2.851617 S    
C25   C29   1.402464 A    
C7    H15   1.101130 S    
C10   H20   1.113680 S    
C11   H23   1.098882 S    
C7    H13   1.110178 S    
C17   C25   1.414434 A    
P6    C20   1.844905 S    
C36   C37   1.426865 A    
O5    C6    1.398150 S    
C1    H21   1.109450 S    
C41   H44   1.108511 S    
C9    H19   1.111268 S    
C26   C27   1.394267 A    
P2    Ba1   3.407223 S    
C44   H53   1.104196 S    
P5    O17   1.765101 S    
P3    O11   1.752092 S    
C33   C34   1.386266 A    
C6    H12   1.091176 S    
O16   P7    1.761183 S    
C24   C30   1.411449 A    
C2    H4    1.109472 S    
C17   H39   1.075612 S    
C4    C45   1.526188 S    
C9    H18   1.110831 S    
C14   C42   1.524464 S    
Ba1   O16   2.818675 S    
C12   H26   1.109281 S    
C24   C26   1.441385 A    
C3    H5    1.110778 S    
Ba1   O20   2.929578 S    
C10   C41   1.527645 S    
O6    C10   1.410985 S    
O8    Ba1   2.796587 S    
C45   H58   1.106173 S    
P2    O20   1.577324 S    
P4    O13   1.572184 S    
C28   C29   1.395354 A    
C31   C44   1.502282 S    
Ba2   O20   2.817991 S    
C14   H30   1.097945 S    
C21   H36   1.083720 S    
P7    O21   1.583729 D    
C4    O15   1.392513 S    
O7    Ba1   2.851418 S    
C4    H7    1.105791 S    
C45   H57   1.104301 S    
P3    C34   1.832731 S    
C18   C19   1.399692 A    
C2    H3    1.110948 S    
C42   H49   1.106443 S    
P8    C28   1.837878 S    
P1    O5    1.763067 S    
C11   H22   1.100658 S    
P1    O2    1.572304 S    
C41   H46   1.110173 S    
O2    Ba1   2.930058 S    
P2    O10   1.753070 S    
C14   Cl2   1.776084 S    
P3    O9    1.543519 D    
P5    O18   1.546788 D    
C27   C28   1.390558 A    
O13   Ba2   2.930836 S    
O11   C2    1.405899 S    
C6    C7    1.511206 S    
C33   H41   1.079262 S    
C8    Cl1   1.766311 S    
C15   C43   1.524980 S    
O14   Ba2   2.794121 S    
C1    H2    1.111330 S    
C9    H17   1.107472 S    
C31   C38   1.409532 A    
P3    O8    1.732318 S    
O12   Ba2   2.844691 S    
C16   H34   1.110522 S    
C3    H6    1.109284 S    
C32   H43   1.081969 S    
O19   C13   1.402428 S    
C43   H52   1.107247 S    
C22   C30   1.416019 A    
P4    O12   1.522883 D    
C13   H29   1.107290 S    
C39   C40   1.400287 A    
C15   O24   1.409932 S    
P1    C18   1.881394 S    
C36   C40   1.414668 A    
C33   C37   1.406925 A    
O4    P6    1.542714 D    
C6    H11   1.110297 S    
P8    O24   1.751898 S    
C45   H56   1.110437 S    
C43   H51   1.110690 S    
C13   C14   1.524708 S    
C40   H42   1.078261 S    
C29   H37   1.079220 S    
C5    H9    1.104870 S    
Ba1   O13   2.811002 S    
C3    H27   1.109609 S    
O1    Ba1   2.844160 S    
O17   Ba2   2.797190 S    
C13   H28   1.110498 S    
O3    P6    1.750923 S    
P4    C26   1.865014 S    
C35   C36   1.429176 A    
C8    C9    1.523388 S    
P2    O7    1.522148 D    
C22   C23   1.424346 A    
C32   C34   1.396156 A    
C11   O22   1.402995 S    
C44   H55   1.109368 S    
P5    O19   1.748533 S    
P1    Ba1   3.403291 S    
C30   H40   1.076774 S    
C7    H14   1.110211 S    
C41   H45   1.110437 S    
C12   H24   1.106117 S    
P4    Ba2   3.403757 S    
P7    C38   1.855088 S    
C20   C21   1.398104 A    
C5    H10   1.107882 S    
C44   H54   1.095632 S    
C16   H33   1.098924 S    
P7    O22   1.751804 S    
C21   C22   1.407564 A    
C19   H35   1.082433 S    
O3    Ba1   2.794726 S    
P4    O15   1.749188 S    
O10   C8    1.396662 S    
C32   C35   1.399746 A    
