data_mof_unit_42678.cif
_audit_creation_date              2012-12-10T19:28:27-0500
_audit_creation_method            fapswitch 2.2
_symmetry_space_group_name_H-M    P1
_symmetry_Int_Tables_number       1
_space_group_crystal_system       triclinic
_cell_length_a                    27.749532
_cell_length_b                    10.474531
_cell_length_c                    9.741808
_cell_angle_alpha                 89.592189
_cell_angle_beta                  89.862052
_cell_angle_gamma                 89.74135
_cell_volume                      2831.4778182

loop_
_atom_site_label
_atom_site_type_symbol
_atom_type_description
_atom_site_fract_x
_atom_site_fract_y
_atom_site_fract_z
_atom_type_partial_charge
C1    C     C_R   0.500032 0.257481 0.500539 0.866205
C2    C     C_R   0.499984 0.742521 0.499461 0.865699
C3    C     C_R   0.101474 0.498710 0.528418 -0.093155
C4    C     C_R   0.898073 0.487789 0.494220 -0.092881
C5    C     C_R   0.127632 0.382908 0.528601 -0.006628
C6    C     C_R   0.872787 0.602517 0.467380 -0.007491
C7    C     C_R   0.103450 0.266535 0.523890 -0.140605
C8    C     C_R   0.897787 0.716554 0.448074 -0.139974
C9    C     C_R   0.126357 0.616769 0.532855 -0.044233
C10   C     C_R   0.872385 0.371863 0.511881 -0.043913
C11   C     C_R   0.353192 0.497869 0.501655 -0.057451
C12   C     C_R   0.646567 0.501676 0.499131 -0.053036
C13   C     C_R   0.974865 0.374839 0.523354 -0.002017
C14   C     C_R   0.024267 0.611316 0.514745 -0.002357
C15   C     C_R   0.973817 0.608163 0.493881 0.071271
C16   C     C_R   0.025998 0.376676 0.522688 0.071874
C17   C     C_R   0.949040 0.490067 0.503725 0.073262
C18   C     C_R   0.050450 0.495647 0.522418 0.072685
C19   C     C_R   0.948805 0.261100 0.543947 -0.211088
C20   C     C_R   0.049156 0.727179 0.530448 -0.211226
C21   C     C_R   0.898548 0.257238 0.537641 0.193741
C22   C     C_R   0.099326 0.732126 0.538982 0.197516
C23   C     C_R   0.406057 0.498550 0.499964 0.875789
C24   C     C_R   0.593854 0.501660 0.500041 0.876075
C25   C     C_R   0.053670 0.263181 0.520165 -0.223213
C26   C     C_R   0.947354 0.719508 0.460626 -0.226769
C27   C     C_3   0.500009 0.039156 0.631206 -0.141749
C28   C     C_3   0.500020 0.960854 0.368789 -0.142390
C29   C     C_3   0.539677 0.956484 0.564439 -0.176563
C30   C     C_3   0.460351 0.043529 0.435556 -0.176838
C31   C     C_3   0.499996 0.877586 0.498320 0.025093
C32   C     C_3   0.500033 0.122421 0.501679 0.025120
C33   C     C_3   0.460326 0.957523 0.564911 -0.169606
C34   C     C_3   0.539702 0.042489 0.435086 -0.169738
C35   C     C_3   0.474265 0.407393 0.049604 -0.072775
C36   C     C_3   0.525732 0.592612 0.950399 -0.073752
C37   C     C_3   0.517480 0.394279 0.951976 -0.074146
C38   C     C_3   0.482517 0.605720 0.048028 -0.074583
C39   C     C_3   0.456740 0.513140 0.951726 -0.075181
C40   C     C_3   0.543260 0.486861 0.048279 -0.075551
C41   C     C_R   0.177806 0.385542 0.530305 0.502341
C42   C     C_R   0.822685 0.601321 0.460686 0.503098
C43   C     C_R   0.177330 0.613437 0.530701 0.513872
C44   C     C_R   0.821434 0.377088 0.505972 0.514862
C45   C     C_R   0.280032 0.543324 0.629263 -0.100415
C46   C     C_R   0.720128 0.439190 0.382617 -0.097835
C47   C     C_R   0.329866 0.543165 0.620152 -0.271866
C48   C     C_R   0.670209 0.442768 0.388526 -0.274359
C49   C     C_R   0.325410 0.451418 0.390461 0.163025
C50   C     C_R   0.673829 0.559693 0.604584 0.163589
C51   C     C_R   0.275183 0.453509 0.401271 -0.101223
C52   C     C_R   0.724064 0.554771 0.596949 -0.103860
C53   C     C_R   0.252700 0.498826 0.519913 0.273545
C54   C     C_R   0.746984 0.494715 0.486956 0.275765
H1    H     H_    0.500013 0.075223 0.738119 0.138717
H2    H     H_    0.500017 0.924785 0.261878 0.138769
H3    H     H_    0.428083 0.917878 0.617432 0.140152
H4    H     H_    0.571947 0.082140 0.382573 0.139123
H5    H     H_    0.532199 0.305366 0.906420 0.119278
H6    H     H_    0.467791 0.694620 0.093591 0.118827
H7    H     H_    0.452602 0.329592 0.096594 0.122431
H8    H     H_    0.547371 0.670465 0.903411 0.123049
H9    H     H_    0.420303 0.524215 0.906264 0.122076
H10   H     H_    0.579691 0.475762 0.093781 0.124795
H11   H     H_    0.253094 0.419416 0.317696 0.142765
H12   H     H_    0.745810 0.597575 0.676452 0.141243
H13   H     H_    0.122996 0.176792 0.521195 0.188611
H14   H     H_    0.879082 0.804902 0.423840 0.188136
H15   H     H_    0.649999 0.398013 0.307042 0.162500
H16   H     H_    0.350210 0.579260 0.706245 0.164539
H17   H     H_    0.738019 0.393109 0.297240 0.150115
H18   H     H_    0.262555 0.578085 0.721320 0.150625
H19   H     H_    0.966912 0.173139 0.569984 0.140673
H20   H     H_    0.029847 0.816168 0.540376 0.139787
H21   H     H_    0.038122 0.169638 0.510501 0.134571
H22   H     H_    0.964096 0.810283 0.439595 0.139475
H23   H     H_    0.571896 0.916020 0.616600 0.134122
H24   H     H_    0.428140 0.084088 0.383413 0.135580
N1    N     N_R   0.201350 0.499325 0.528805 -0.350976
N2    N     N_R   0.798330 0.490470 0.482152 -0.351297
N3    N     N_3   0.499960 0.500030 0.863290 -0.073432
N4    N     N_3   0.500040 0.499970 0.136710 -0.073625
O1    O     O_R   0.500000 0.313960 0.616610 -0.625215
O2    O     O_R   0.500000 0.686040 0.383390 -0.625285
O3    O     O_R   0.500020 0.313950 0.383350 -0.624901
O4    O     O_R   0.499980 0.686050 0.616650 -0.624348
O5    O     O_R   0.428750 0.500030 0.616610 -0.625322
O6    O     O_R   0.571250 0.499970 0.383390 -0.624766
O7    O     O_R   0.428770 0.500020 0.383360 -0.612811
O8    O     O_R   0.571230 0.499980 0.616640 -0.612192
O9    O     O_2   0.203142 0.275134 0.532760 -0.559531
O10   O     O_2   0.798183 0.710374 0.433909 -0.560261
O11   O     O_2   0.794687 0.271474 0.525908 -0.564549
O12   O     O_2   0.203132 0.722114 0.527175 -0.563361
Zn1   Zn    Zn3+2 0.499990 0.500010 0.655740 0.938821
Zn2   Zn    Zn3+2 0.500010 0.499990 0.344260 0.938144
C55   C     C_3   0.347707 0.396221 0.262307 -0.881437
H25   H     H_    0.373454 0.318796 0.290014 0.239128
H26   H     H_    0.320128 0.354448 0.193654 0.231118
H27   H     H_    0.366473 0.472181 0.203145 0.253108
C56   C     C_3   0.650818 0.629885 0.722774 -0.883628
H28   H     H_    0.624813 0.702184 0.683429 0.234772
H29   H     H_    0.632102 0.561392 0.791832 0.253580
H30   H     H_    0.677988 0.680855 0.785221 0.233617
C57   C     C_3   0.874921 0.128559 0.558963 -0.770083
H31   H     H_    0.901601 0.050568 0.575447 0.196052
H32   H     H_    0.851474 0.130704 0.651406 0.269155
H33   H     H_    0.853819 0.102676 0.466654 0.267505
C58   C     C_3   0.121891 0.862344 0.556028 -0.771836
H34   H     H_    0.094494 0.939232 0.567349 0.190554
H35   H     H_    0.144372 0.863670 0.650124 0.265249
H36   H     H_    0.143796 0.886921 0.464178 0.272129

loop_
_geom_bond_atom_site_label_1
_geom_bond_atom_site_label_2
_ccdc_geom_bond_type
O6    Zn2   S    
C42   N2    A    
C56   H28   S    
C27   C29   S    
C8    C26   A    
C14   C18   A    
C2    O2    A    
C48   H15   S    
C12   C48   A    
C55   H25   S    
C28   H2    S    
O8    Zn1   S    
C27   C33   S    
C57   H32   S    
C11   C49   A    
C53   N1    S    
C37   C40   S    
C58   H35   S    
C51   H11   S    
C38   C39   S    
N3    Zn1   S    
O3    Zn2   S    
C27   H1    S    
C9    C22   A    
C43   N1    A    
C43   O12   S    
C3    C18   A    
O2    Zn2   S    
C11   C23   S    
C36   C40   S    
C44   O11   S    
C11   C47   A    
C49   C51   A    
O5    Zn1   S    
C50   C52   A    
C23   O7    A    
C28   C34   S    
C56   H29   S    
C23   O5    A    
C38   N4    S    
C45   H18   S    
C37   N3    S    
C36   H8    S    
C55   H26   S    
C35   N4    S    
C52   C54   A    
C54   N2    S    
C45   C47   A    
C10   C21   A    
C1    O3    A    
C57   H33   S    
C46   C48   A    
C9    C43   A    
N4    Zn2   S    
C13   C19   A    
C10   C44   A    
C14   C20   A    
C19   H19   S    
C39   N3    S    
C4    C6    A    
C58   H36   S    
C5    C7    A    
C15   C26   A    
C6    C8    A    
C7    H13   S    
C29   C34   S    
C45   C53   A    
C1    C32   S    
C2    C31   S    
C51   C53   A    
C32   C34   S    
C35   C39   S    
C47   H16   S    
C3    C9    A    
C40   N4    S    
C26   H22   S    
C44   N2    A    
C36   N3    S    
C22   C58   S    
O1    Zn1   S    
C46   C54   A    
C31   C33   S    
C20   H20   S    
C35   H7    S    
C24   O6    A    
C46   H17   S    
C37   H5    S    
C38   H6    S    
C4    C17   A    
C41   O9    S    
C20   C22   A    
C8    H14   S    
C56   H30   S    
C4    C10   A    
C55   H27   S    
C52   H12   S    
C16   C25   A    
C15   C17   A    
C5    C41   A    
C33   H3    S    
C30   C33   S    
C35   C37   S    
C27   C32   S    
C28   C31   S    
C3    C5    A    
C24   O8    A    
C41   N1    A    
C12   C50   A    
C1    O1    A    
C39   H9    S    
C57   H31   S    
C12   C24   S    
C7    C25   A    
C13   C17   A    
O7    Zn2   S    
C36   C38   S    
C29   C31   S    
C58   H34   S    
C30   C32   S    
C40   H10   S    
C28   C30   S    
C2    O4    A    
C42   O10   S    
O4    Zn1   S    
C49   C55   S    
C30   H24   S    
C29   H23   S    
C50   C56   S    
C16   C18   A    
C6    C42   A    
C13   C16   A    
C34   H4    S    
C14   C15   A    
C25   H21   S    
C21   C57   S    
C19   C21   A    
