data_mof_unit_9410.cif
_audit_creation_date              2012-12-10T17:36:35-0500
_audit_creation_method            fapswitch 2.2
_symmetry_space_group_name_H-M    P1
_symmetry_Int_Tables_number       1
_space_group_crystal_system       triclinic
_cell_length_a                    12.07765
_cell_length_b                    12.821264
_cell_length_c                    15.698627
_cell_angle_alpha                 91.064275
_cell_angle_beta                  87.375403
_cell_angle_gamma                 94.743808
_cell_volume                      2419.80836903

loop_
_atom_site_label
_atom_site_type_symbol
_atom_type_description
_atom_site_fract_x
_atom_site_fract_y
_atom_site_fract_z
_atom_type_partial_charge
C1    C     C_R   0.523033 0.699884 0.497459 0.848047
C2    C     C_R   0.532051 0.023918 0.533334 0.117254
C3    C     C_R   0.948181 0.408237 0.412840 -0.083882
C4    C     C_R   0.051664 0.589854 0.587883 -0.062196
C5    C     C_R   0.833174 0.412780 0.426708 0.048604
C6    C     C_R   0.166465 0.586735 0.573557 -0.038644
C7    C     C_R   0.861272 0.546919 0.531404 0.071367
C8    C     C_R   0.138936 0.452601 0.468737 0.062882
C9    C     C_R   0.977677 0.534397 0.530847 0.057580
C10   C     C_R   0.022174 0.464083 0.469728 -0.057485
C11   C     C_R   0.501160 0.500037 0.661826 0.875517
C12   C     C_R   0.476974 0.300115 0.502526 0.851531
C13   C     C_R   0.498840 0.499954 0.338172 0.879869
C14   C     C_3   0.478915 0.596975 0.029294 -0.315278
C15   C     C_3   0.521083 0.402881 0.970688 -0.308576
C16   C     C_3   0.581592 0.571968 0.971593 -0.317584
C17   C     C_3   0.418408 0.427887 0.028391 -0.322262
C18   C     C_1   0.503781 0.499602 0.750686 -0.158866
C19   C     C_1   0.496219 0.500337 0.249308 -0.169795
C20   C     C_3   0.403456 0.523847 0.973729 0.580304
C21   C     C_3   0.596545 0.476007 0.026252 0.580427
C22   C     C_3   0.504226 0.499304 0.916968 0.065343
C23   C     C_R   0.598562 0.963330 0.580316 -0.141071
C24   C     C_3   0.495778 0.500552 0.083018 0.068120
C25   C     C_1   0.505005 0.499319 0.826001 0.022805
C26   C     C_1   0.494999 0.500571 0.173989 0.014691
C27   C     C_R   0.461323 0.188485 0.501467 -0.111501
C28   C     C_R   0.538726 0.811513 0.498455 -0.112518
C29   C     C_3   0.776852 0.436162 0.996192 0.098310
C30   C     C_3   0.880735 0.401511 0.034956 -0.764159
C31   C     C_3   0.223119 0.563652 0.003725 0.083125
C32   C     C_3   0.119191 0.598128 0.964905 -0.767831
C33   C     C_2   0.591397 0.186340 0.620339 0.416581
C34   C     C_R   0.401649 0.036703 0.419503 -0.141664
C35   C     C_2   0.408552 0.813629 0.379647 0.410574
C36   C     C_2   0.186337 0.360907 0.427852 0.404244
C37   C     C_2   0.814692 0.639262 0.572005 0.512843
C38   C     C_2   0.986321 0.355731 0.332870 0.482009
C39   C     C_2   0.016031 0.641293 0.668720 0.436877
C40   C     C_R   0.602929 0.858452 0.562005 -0.177059
C41   C     C_R   0.397283 0.141579 0.437812 -0.170147
C42   C     C_R   0.472463 0.868819 0.448620 -0.078964
C43   C     C_R   0.527579 0.131173 0.551306 -0.082181
C44   C     C_R   0.468071 0.976094 0.466543 0.116062
H1    H     H_    0.648446 0.629183 0.946219 0.166818
H2    H     H_    0.775412 0.368271 0.386490 0.183616
H3    H     H_    0.799837 0.510697 0.962070 0.152735
H4    H     H_    0.746925 0.374524 0.949837 0.147270
H5    H     H_    0.860729 0.326604 0.068906 0.274050
H6    H     H_    0.945406 0.389908 0.983868 0.208412
H7    H     H_    0.913840 0.461962 0.080829 0.251737
H8    H     H_    0.252967 0.625371 0.050041 0.142819
H9    H     H_    0.200211 0.489138 0.037897 0.140541
H10   H     H_    0.086182 0.537598 0.919056 0.264654
H11   H     H_    0.054476 0.609699 0.015966 0.205115
H12   H     H_    0.351558 0.370666 0.053762 0.160107
H13   H     H_    0.139107 0.673019 0.930914 0.261194
H14   H     H_    0.550708 0.240400 0.662962 0.047138
H15   H     H_    0.449143 0.759448 0.337075 0.049511
H16   H     H_    0.257640 0.370270 0.383840 0.080507
H17   H     H_    0.741712 0.630760 0.614397 0.098947
H18   H     H_    0.065194 0.381504 0.301163 0.021047
H19   H     H_    0.063774 0.710731 0.691799 0.076365
H20   H     H_    0.460070 0.674947 0.055339 0.163031
H21   H     H_    0.539922 0.324908 0.944640 0.163350
H22   H     H_    0.349821 0.187856 0.397968 0.171750
H23   H     H_    0.650523 0.812200 0.601773 0.170380
H24   H     H_    0.645104 0.994501 0.633435 0.196193
H25   H     H_    0.355196 0.005548 0.366331 0.197507
H26   H     H_    0.223705 0.631602 0.614028 0.138193
N1    N     N_R   0.207800 0.519340 0.515560 -0.127844
N2    N     N_R   0.792200 0.480660 0.484440 -0.168385
O1    O     O_R   0.421700 0.658830 0.504150 -0.600679
O2    O     O_3   0.304197 0.549254 0.938019 -0.600596
O3    O     O_2   0.690786 0.178123 0.625922 -0.538586
O4    O     O_2   0.309189 0.821978 0.374055 -0.552684
O5    O     O_2   0.145848 0.272695 0.444127 -0.543013
O6    O     O_2   0.857666 0.727031 0.557264 -0.583700
O7    O     O_2   0.928412 0.284810 0.300035 -0.546000
O8    O     O_2   0.938401 0.602518 0.713270 -0.592929
O9    O     O_R   0.578300 0.341170 0.495850 -0.598501
O10   O     O_R   0.609310 0.646410 0.494170 -0.630326
O11   O     O_R   0.390690 0.353590 0.505830 -0.617651
O12   O     O_R   0.406210 0.506220 0.628210 -0.602247
O13   O     O_R   0.593790 0.493780 0.371790 -0.603293
O14   O     O_R   0.593830 0.493800 0.618230 -0.639359
O15   O     O_R   0.406170 0.506200 0.381770 -0.649641
O16   O     O_3   0.695820 0.450587 0.061929 -0.599822
Zn1   Zn    Zn3+2 0.374730 0.508290 0.506660 0.967454
Zn2   Zn    Zn3+2 0.625270 0.491710 0.493340 0.971512

loop_
_geom_bond_atom_site_label_1
_geom_bond_atom_site_label_2
_ccdc_geom_bond_type
C30   H7    S    
C11   C18   S    
C6    H26   S    
C33   H14   S    
C31   H8    S    
C18   C25   T    
C16   C21   S    
C29   H3    S    
C35   H15   S    
C24   C26   S    
C5    N2    A    
C36   O5    D    
C38   O7    D    
C28   C40   A    
C11   O14   A    
C23   C40   A    
C15   H21   S    
C17   C20   S    
C7    C9    A    
C8    C36   S    
C14   C24   S    
C35   C42   S    
C19   C26   T    
C29   O16   S    
C33   O3    D    
C15   C22   S    
C3    C38   S    
C2    C44   A    
C40   H23   S    
C1    C28   S    
C9    C10   A    
C32   H11   S    
C30   H6    S    
C21   O16   S    
C34   C41   A    
C42   C44   A    
C32   H13   S    
C32   H10   S    
C6    N1    A    
O11   Zn1   S    
C35   O4    D    
C17   C24   S    
C13   C19   S    
C12   C27   S    
C33   C43   S    
C14   C20   S    
C34   C44   A    
C4    C6    A    
O14   Zn2   S    
C7    N2    A    
C31   O2    S    
C29   H4    S    
C3    C5    A    
C1    O10   A    
C22   C25   S    
C12   O11   A    
C23   H24   S    
C29   C30   S    
N2    Zn2   S    
C27   C41   A    
C31   C32   S    
N1    Zn1   S    
C4    C39   S    
C2    C43   A    
C14   H20   S    
C13   O15   A    
C7    C37   S    
C20   O2    S    
C31   H9    S    
C17   H12   S    
O9    Zn2   S    
C30   H5    S    
C20   C22   S    
O15   Zn1   S    
C14   C16   S    
O12   Zn1   S    
C37   O6    D    
C15   C17   S    
C8    N1    A    
C16   C22   S    
C34   H25   S    
C36   H16   S    
C16   H1    S    
C37   H17   S    
O13   Zn2   S    
C41   H22   S    
C11   O12   A    
C39   H19   S    
C5    H2    S    
O10   Zn2   S    
C1    O1    A    
C39   O8    D    
O1    Zn1   S    
C3    C10   A    
C28   C42   A    
C12   O9    A    
C27   C43   A    
C15   C21   S    
C8    C10   A    
C21   C24   S    
C13   O13   A    
C2    C23   A    
C4    C9    A    
C38   H18   S    
