data_mof_unit_30558.cif
_audit_creation_date              2012-12-10T20:27:10-0500
_audit_creation_method            fapswitch 2.2
_symmetry_space_group_name_H-M    P1
_symmetry_Int_Tables_number       1
_space_group_crystal_system       triclinic
_cell_length_a                    10.859212
_cell_length_b                    10.689973
_cell_length_c                    9.889016
_cell_angle_alpha                 89.455252
_cell_angle_beta                  103.616796
_cell_angle_gamma                 90.633699
_cell_volume                      1115.59997954

loop_
_atom_site_label
_atom_site_type_symbol
_atom_type_description
_atom_site_fract_x
_atom_site_fract_y
_atom_site_fract_z
_atom_type_partial_charge
C1    C     C_R   0.507255 0.259856 0.501932 0.908641
C2    C     C_R   0.534127 0.128552 0.507857 -0.167710
C3    C     C_R   0.560885 0.065500 0.392643 0.442041
C4    C     C_R   0.557772 0.934802 0.393133 -0.350764
C5    C     C_R   0.530958 0.870791 0.507108 -0.148578
C6    C     C_R   0.535352 0.934440 0.629767 0.134398
C7    C     C_3   0.451171 0.924839 0.728876 -0.455128
C8    C     C_3   0.453267 0.066378 0.730446 -0.483525
C9    C     C_R   0.394589 0.463877 0.044618 0.138873
C10   C     C_R   0.597560 0.553156 0.096005 0.157268
C11   C     C_R   0.598016 0.550529 0.951889 -0.184582
C12   C     C_R   0.259747 0.502226 0.442047 0.946341
C13   C     C_R   0.393656 0.465641 0.902091 0.200439
C14   C     C_3   0.326450 0.342167 0.882186 -0.134331
C15   C     C_3   0.328047 0.340928 0.036800 -0.536219
C16   C     C_R   0.505589 0.739908 0.500892 0.896373
C17   C     C_R   0.740578 0.501516 0.557872 0.940530
C18   C     C_2   0.124096 0.506263 0.408624 -0.371839
C19   C     C_2   0.067153 0.529460 0.510463 -0.147393
C20   C     C_2   0.876503 0.512166 0.590260 -0.377770
C21   C     C_2   0.933078 0.514639 0.484973 -0.139871
C22   C     C_R   0.536958 0.061979 0.630390 0.065543
H1    H     H_    0.880781 0.501603 0.377923 0.207637
H2    H     H_    0.504714 0.103922 0.832824 0.203007
H3    H     H_    0.677237 0.589534 0.916226 0.150930
H4    H     H_    0.383703 0.268576 0.850379 0.179675
H5    H     H_    0.233306 0.348802 0.060470 0.196781
H6    H     H_    0.388962 0.266419 0.095970 0.241950
H7    H     H_    0.119913 0.553293 0.614920 0.190924
H8    H     H_    0.929517 0.521487 0.697677 0.142093
H9    H     H_    0.071017 0.485458 0.303397 0.145780
H10   H     H_    0.567606 0.884646 0.301682 0.158040
H11   H     H_    0.356294 0.884474 0.680727 0.201451
H12   H     H_    0.499978 0.882069 0.829961 0.200283
H13   H     H_    0.359209 0.108008 0.684052 0.205574
N1    N     N_R   0.499160 0.499140 0.142600 -0.098442
N2    N     N_R   0.499160 0.499180 0.856960 -0.125232
O1    O     O_R   0.500020 0.316790 0.614700 -0.624684
O2    O     O_R   0.500000 0.316760 0.385350 -0.551055
O3    O     O_R   0.317820 0.500020 0.571850 -0.600016
O4    O     O_R   0.317800 0.499980 0.342510 -0.623201
O5    O     O_R   0.500000 0.683240 0.614650 -0.622279
O6    O     O_R   0.499980 0.683210 0.385300 -0.632412
O7    O     O_R   0.682200 0.500020 0.657490 -0.629261
O8    O     O_R   0.682180 0.499980 0.428150 -0.589812
Zn1   Zn    Zn3+2 0.500010 0.500020 0.653140 0.944076
Zn2   Zn    Zn3+2 0.499990 0.499980 0.346860 0.975190
N3    N     N_3   0.699352 0.613482 0.192512 -0.420275
H14   H     H_    0.663351 0.695220 0.224779 0.190291
H15   H     H_    0.770657 0.641277 0.143372 0.141594
N4    N     N_3   0.199214 0.351434 0.791526 -0.428122
H16   H     H_    0.147325 0.419553 0.828811 0.181697
H17   H     H_    0.152956 0.265765 0.796114 0.195644
O9    O     O_3   0.581998 0.131333 0.279056 -0.759947
H18   H     H_    0.597956 0.071788 0.208916 0.319384

loop_
_geom_bond_atom_site_label_1
_geom_bond_atom_site_label_2
_ccdc_geom_bond_type
C2    C22   A    
C9    N1    A    
C8    C22   S    
C12   O3    A    
C6    C7    S    
C15   H5    S    
C14   N4    S    
C20   C21   D    
N3    H15   S    
C2    C3    A    
O4    Zn2   S    
C17   O7    A    
C7    C8    S    
C20   H8    S    
C13   C14   S    
C14   H4    S    
O3    Zn1   S    
C7    H11   S    
C16   O6    A    
C15   H6    S    
C4    H10   S    
C1    O1    A    
N1    Zn2   S    
N3    H14   S    
C19   C21   S    
O7    Zn1   S    
C18   C19   D    
O8    Zn2   S    
C21   H1    S    
C10   N3    S    
C5    C6    A    
C3    O9    S    
O1    Zn1   S    
C10   C11   A    
C1    O2    A    
N4    H17   S    
C3    C4    A    
C6    C22   A    
C16   O5    A    
C17   C20   S    
C7    H12   S    
C12   O4    A    
O2    Zn2   S    
C1    C2    S    
O5    Zn1   S    
C12   C18   S    
C11   N2    A    
C11   H3    S    
O9    H18   S    
C13   N2    A    
C5    C16   S    
C9    C13   A    
C18   H9    S    
C8    H2    S    
N2    Zn1   S    
C14   C15   S    
O6    Zn2   S    
N4    H16   S    
C9    C15   S    
C17   O8    A    
C4    C5    A    
C10   N1    A    
C8    H13   S    
C19   H7    S    
