data_mof_unit_61191.cif
_audit_creation_date              2012-12-10T19:54:32-0500
_audit_creation_method            fapswitch 2.2
_symmetry_space_group_name_H-M    P1
_symmetry_Int_Tables_number       1
_space_group_crystal_system       triclinic
_cell_length_a                    18.397718
_cell_length_b                    18.397644
_cell_length_c                    51.283809
_cell_angle_alpha                 90.0
_cell_angle_beta                  90.000019
_cell_angle_gamma                 90.000063
_cell_volume                      17358.2701315

loop_
_atom_site_label
_atom_site_type_symbol
_atom_type_description
_atom_site_fract_x
_atom_site_fract_y
_atom_site_fract_z
_atom_type_partial_charge
C1    C     C_R   1.000000 0.500000 0.929364 0.597776
C2    C     C_R   0.917293 0.603034 0.763582 -0.107691
C3    C     C_R   0.639889 0.140048 0.999750 0.525247
C4    C     C_R   0.139994 0.639935 0.999727 0.517874
C5    C     C_R   0.639934 0.860005 0.999727 0.517868
C6    C     C_R   0.860006 0.360065 0.999727 0.517874
C7    C     C_R   0.360065 0.139994 0.999727 0.517868
C8    C     C_R   0.359952 0.139889 0.499750 0.525244
C9    C     C_R   0.860112 0.359952 0.499750 0.525251
C10   C     C_R   0.640048 0.860111 0.499750 0.525245
C11   C     C_R   0.139888 0.640048 0.499750 0.525251
C12   C     C_R   0.639994 0.139935 0.499727 0.517872
C13   C     C_R   0.397202 0.916985 0.763581 -0.107682
C14   C     C_R   0.139935 0.360005 0.499727 0.517855
C15   C     C_R   0.360006 0.860065 0.499727 0.517872
C16   C     C_R   0.860065 0.639994 0.499727 0.517855
C17   C     C_R   0.254373 0.693736 0.983167 0.015993
C18   C     C_R   0.306264 0.254374 0.983167 0.015997
C19   C     C_R   0.745627 0.306264 0.983167 0.015993
C20   C     C_R   0.693736 0.745626 0.983167 0.015997
C21   C     C_R   0.745526 0.693710 0.983188 0.019965
C22   C     C_R   0.693711 0.254474 0.983188 0.019962
C23   C     C_R   0.254475 0.306290 0.983188 0.019965
C24   C     C_R   0.082708 0.396965 0.763582 -0.107691
C25   C     C_R   0.306289 0.745525 0.983188 0.019962
C26   C     C_R   0.754373 0.193737 0.483167 0.015996
C27   C     C_R   0.806264 0.754374 0.483167 0.015997
C28   C     C_R   0.245627 0.806263 0.483167 0.015996
C29   C     C_R   0.193736 0.245626 0.483167 0.015997
C30   C     C_R   0.245526 0.193710 0.483188 0.019964
C31   C     C_R   0.193711 0.754474 0.483188 0.019959
C32   C     C_R   0.754474 0.806290 0.483188 0.019964
C33   C     C_R   0.806289 0.245526 0.483188 0.019959
C34   C     C_R   0.195559 0.695492 0.000086 0.034540
C35   C     C_R   0.102778 0.583040 0.263582 -0.107684
C36   C     C_R   0.304508 0.195559 0.000086 0.034539
C37   C     C_R   0.804441 0.304508 0.000086 0.034540
C38   C     C_R   0.695492 0.804441 0.000086 0.034539
C39   C     C_R   0.804345 0.695418 0.000117 0.039635
C40   C     C_R   0.695418 0.195656 0.000117 0.039639
C41   C     C_R   0.195655 0.304582 0.000117 0.039635
C42   C     C_R   0.304582 0.804344 0.000117 0.039639
C43   C     C_R   0.695559 0.195492 0.500086 0.034541
C44   C     C_R   0.804508 0.695559 0.500085 0.034536
C45   C     C_R   0.304441 0.804508 0.500086 0.034542
C46   C     C_R   0.417055 0.102856 0.263582 -0.107683
C47   C     C_R   0.195492 0.304441 0.500085 0.034536
C48   C     C_R   0.304345 0.195418 0.500117 0.039636
C49   C     C_R   0.195418 0.695656 0.500117 0.039648
C50   C     C_R   0.695655 0.804582 0.500117 0.039637
C51   C     C_R   0.804582 0.304344 0.500117 0.039649
C52   C     C_R   0.191895 0.754099 0.017839 -0.141773
C53   C     C_R   0.245900 0.191893 0.017839 -0.141778
C54   C     C_R   0.808105 0.245900 0.017839 -0.141773
C55   C     C_R   0.754100 0.808106 0.017839 -0.141778
C56   C     C_R   0.808056 0.754044 0.017860 -0.141221
C57   C     C_R   0.897223 0.416957 0.263582 -0.107683
C58   C     C_R   0.754043 0.191944 0.017860 -0.141211
C59   C     C_R   0.191944 0.245955 0.017860 -0.141222
C60   C     C_R   0.245957 0.808056 0.017860 -0.141211
C61   C     C_R   0.691895 0.254099 0.517839 -0.141769
C62   C     C_R   0.745900 0.691894 0.517838 -0.141782
C63   C     C_R   0.308105 0.745901 0.517839 -0.141770
C64   C     C_R   0.254100 0.308106 0.517838 -0.141782
C65   C     C_R   0.308056 0.254044 0.517860 -0.141219
C66   C     C_R   0.254043 0.691945 0.517860 -0.141189
C67   C     C_R   0.691944 0.745956 0.517860 -0.141219
C68   C     C_R   0.582946 0.897145 0.263582 -0.107683
C69   C     C_R   0.745957 0.308055 0.517860 -0.141189
C70   C     C_3   0.347258 0.711829 0.961247 -0.253192
C71   C     C_3   0.288172 0.347261 0.961248 -0.253194
C72   C     C_3   0.652742 0.288171 0.961247 -0.253192
C73   C     C_3   0.711828 0.652740 0.961248 -0.253194
C74   C     C_3   0.652698 0.712064 0.961226 -0.253032
C75   C     C_3   0.712066 0.347301 0.961225 -0.253031
C76   C     C_3   0.347302 0.287936 0.961226 -0.253032
C77   C     C_3   0.287934 0.652699 0.961225 -0.253030
C78   C     C_3   0.847257 0.211830 0.461247 -0.253193
C79   C     C_R   0.102604 0.583254 0.236366 -0.104777
C80   C     C_3   0.788172 0.847260 0.461248 -0.253193
C81   C     C_3   0.152742 0.788170 0.461247 -0.253194
C82   C     C_3   0.211828 0.152740 0.461248 -0.253194
C83   C     C_3   0.152699 0.212064 0.461226 -0.253031
C84   C     C_3   0.212067 0.847300 0.461225 -0.253030
C85   C     C_3   0.847301 0.787936 0.461226 -0.253031
C86   C     C_3   0.787933 0.152700 0.461225 -0.253029
C87   C     C_R   0.449320 0.959379 0.804849 0.414073
C88   C     C_R   0.040469 0.449202 0.804850 0.414069
C89   C     C_R   0.550685 0.040621 0.804850 0.414073
C90   C     C_R   0.416840 0.102681 0.236367 -0.104778
C91   C     C_R   0.959531 0.550798 0.804850 0.414070
C92   C     C_R   0.949328 0.459365 0.304850 0.414075
C93   C     C_R   0.540586 0.949290 0.304850 0.414070
C94   C     C_R   0.050672 0.540633 0.304849 0.414074
C95   C     C_R   0.459414 0.050710 0.304850 0.414070
C96   C     C_R   0.551674 0.041571 0.777479 0.030779
C97   C     C_R   0.958584 0.551788 0.777480 0.030783
C98   C     C_R   0.448332 0.958429 0.777479 0.030779
C99   C     C_R   0.041416 0.448211 0.777480 0.030783
C100  C     C_R   0.051660 0.541583 0.277479 0.030776
C101  C     C_R   0.897397 0.416743 0.236366 -0.104777
C102  C     C_R   0.458465 0.051699 0.277479 0.030780
C103  C     C_R   0.948341 0.458415 0.277479 0.030776
C104  C     C_R   0.541536 0.948302 0.277479 0.030780
C105  C     C_2   0.893377 0.584740 0.155198 0.651843
C106  C     C_2   0.415185 0.893436 0.155198 0.651845
C107  C     C_2   0.106623 0.415258 0.155197 0.651846
C108  C     C_2   0.584815 0.106565 0.155198 0.651844
C109  C     C_2   0.393408 0.084775 0.655198 0.651834
C110  C     C_2   0.915016 0.393578 0.655200 0.651843
C111  C     C_2   0.606600 0.915227 0.655198 0.651839
C112  C     C_R   0.500000 0.000000 0.929364 0.597795
C113  C     C_R   0.583161 0.897320 0.236367 -0.104779
C114  C     C_2   0.084985 0.606421 0.655200 0.651843
C115  C     C_2   0.894092 0.587101 0.098394 0.638593
C116  C     C_2   0.412844 0.894135 0.098395 0.638611
C117  C     C_2   0.105911 0.412902 0.098394 0.638595
C118  C     C_2   0.587156 0.105865 0.098395 0.638609
C119  C     C_2   0.394114 0.087125 0.598395 0.638609
C120  C     C_2   0.912711 0.394249 0.598398 0.638674
C121  C     C_2   0.605888 0.912874 0.598394 0.638603
C122  C     C_2   0.087290 0.605750 0.598398 0.638673
C123  C     C_2   0.613190 0.919368 0.899972 0.591221
C124  C     C_R   0.602630 0.083229 0.736367 -0.104776
C125  C     C_2   0.080659 0.613170 0.899972 0.591244
C126  C     C_2   0.386811 0.080632 0.899971 0.591221
C127  C     C_2   0.919341 0.386830 0.899972 0.591243
C128  C     C_2   0.113191 0.419371 0.399971 0.591219
C129  C     C_2   0.580631 0.113190 0.399972 0.591224
C130  C     C_2   0.886809 0.580629 0.399971 0.591219
C131  C     C_2   0.419368 0.886810 0.399972 0.591225
C132  C     C_R   0.917075 0.602859 0.736367 -0.104792
C133  C     C_R   0.397377 0.916771 0.736366 -0.104776
C134  C     C_R   0.082925 0.397141 0.736367 -0.104793
C135  C     C_R   0.051431 0.541871 0.222470 0.040839
C136  C     C_R   0.458175 0.051469 0.222471 0.040838
C137  C     C_R   0.948570 0.458126 0.222471 0.040839
C138  C     C_R   0.541826 0.948532 0.222471 0.040838
C139  C     C_R   0.551445 0.041859 0.722471 0.040842
C140  C     C_R   0.500000 1.000000 0.429364 0.597795
C141  C     C_R   0.958291 0.551557 0.722472 0.040834
C142  C     C_R   0.448561 0.958141 0.722471 0.040842
C143  C     C_R   0.041709 0.448442 0.722472 0.040834
C144  C     C_R   0.000000 0.499998 0.236204 -0.020168
C145  C     C_R   0.500000 0.000000 0.236204 -0.020168
C146  C     C_R   0.500003 0.000000 0.736204 -0.020168
C147  C     C_R   0.000000 0.500000 0.736205 -0.020159
C148  C     C_R   0.050199 0.541247 0.195109 0.457631
C149  C     C_R   0.458796 0.050236 0.195109 0.457624
C150  C     C_R   0.949802 0.458749 0.195109 0.457631
C151  C     C_R   0.000000 0.500000 0.429364 0.597800
C152  C     C_R   0.541205 0.949765 0.195109 0.457623
C153  C     C_R   0.550214 0.041236 0.695109 0.457633
C154  C     C_R   0.958907 0.550320 0.695110 0.457625
C155  C     C_R   0.449793 0.958765 0.695109 0.457631
C156  C     C_R   0.041093 0.449679 0.695110 0.457625
C157  C     C_R   0.948528 0.542429 0.140340 0.058274
C158  C     C_R   0.457537 0.948555 0.140340 0.058274
C159  C     C_R   0.051472 0.457570 0.140340 0.058276
C160  C     C_R   0.542463 0.051445 0.140340 0.058273
C161  C     C_R   0.448543 0.042445 0.640340 0.058273
C162  C     C_R   0.500003 0.000000 0.763742 -0.025455
C163  C     C_R   0.957461 0.448621 0.640342 0.058276
C164  C     C_R   0.551463 0.957556 0.640340 0.058272
C165  C     C_R   0.042540 0.551378 0.640342 0.058276
C166  C     C_R   0.948331 0.542427 0.112788 -0.006782
C167  C     C_R   0.457543 0.948355 0.112789 -0.006782
C168  C     C_R   0.051669 0.457572 0.112788 -0.006782
C169  C     C_R   0.542458 0.051645 0.112789 -0.006783
C170  C     C_R   0.448345 0.042441 0.612789 -0.006777
C171  C     C_R   0.957473 0.448415 0.612790 -0.006775
C172  C     C_R   0.551659 0.957559 0.612788 -0.006778
C173  C     C_R   0.000000 0.500000 0.763742 -0.025447
C174  C     C_R   0.042527 0.551584 0.612790 -0.006774
C175  C     C_R   1.000000 0.500000 0.099024 -0.054867
C176  C     C_R   0.500000 0.000000 0.099025 -0.054874
C177  C     C_R   0.500001 0.000000 0.599024 -0.054871
C178  C     C_R   1.000000 0.500000 0.599025 -0.054900
C179  C     C_R   1.000000 0.499999 0.153958 0.141709
C180  C     C_R   0.500000 0.000000 0.153959 0.141712
C181  C     C_R   0.500003 0.000001 0.653959 0.141711
C182  C     C_R   0.000000 0.499999 0.653960 0.141722
C183  C     C_R   1.000000 0.500000 0.070192 0.571799
C184  C     C_R   0.000000 0.499999 0.263742 -0.025455
C185  C     C_R   0.500000 1.000000 0.070192 0.571770
C186  C     C_R   0.500000 1.000000 0.570192 0.571778
C187  C     C_R   0.000000 0.500000 0.570192 0.571688
C188  C     C_R   0.551955 0.959819 0.859427 -0.058545
C189  C     C_R   0.040196 0.551942 0.859428 -0.058534
C190  C     C_R   0.448048 0.040181 0.859427 -0.058545
C191  C     C_R   0.959804 0.448058 0.859428 -0.058534
C192  C     C_R   0.051955 0.459820 0.359427 -0.058546
C193  C     C_R   0.540181 0.051954 0.359428 -0.058543
C194  C     C_R   0.948045 0.540179 0.359427 -0.058546
C195  C     C_R   0.500000 0.000000 0.263742 -0.025455
C196  C     C_R   0.459819 0.948046 0.359428 -0.058542
C197  C     C_R   0.553476 0.959803 0.886759 0.007153
C198  C     C_R   0.040211 0.553465 0.886759 0.007144
C199  C     C_R   0.446525 0.040197 0.886758 0.007153
C200  C     C_R   0.959789 0.446535 0.886759 0.007144
C201  C     C_R   0.053477 0.459804 0.386759 0.007153
C202  C     C_R   0.540197 0.053476 0.386759 0.007150
C203  C     C_R   0.946524 0.540196 0.386758 0.007153
C204  C     C_R   0.459803 0.946524 0.386759 0.007150
C205  C     C_R   0.500000 0.000000 0.900668 -0.014849
C206  C     C_R   0.602803 0.083015 0.763582 -0.107681
C207  C     C_R   1.000000 0.500000 0.900668 -0.014859
C208  C     C_R   1.000000 0.500000 0.400668 -0.014848
C209  C     C_R   0.500000 0.000000 0.400668 -0.014850
C210  C     C_R   0.500002 0.000000 0.845858 0.184534
C211  C     C_R   1.000000 0.500000 0.845858 0.184501
C212  C     C_R   1.000000 0.499999 0.345858 0.184540
C213  C     C_R   0.500000 0.000000 0.345858 0.184524
C214  C     C_R   0.859952 0.639889 0.999750 0.525243
C215  C     C_R   0.360111 0.859952 0.999750 0.525246
C216  C     C_R   0.140048 0.360111 0.999750 0.525243
H1    H     H_    0.346901 0.746393 0.943470 0.165879
H2    H     H_    0.753608 0.846903 0.443470 0.165879
H3    H     H_    0.153101 0.753605 0.443470 0.165880
H4    H     H_    0.246392 0.153097 0.443470 0.165879
H5    H     H_    0.153227 0.246640 0.443446 0.174792
H6    H     H_    0.246644 0.846770 0.443446 0.174790
H7    H     H_    0.846772 0.753360 0.443446 0.174791
H8    H     H_    0.753356 0.153230 0.443446 0.174790
H9    H     H_    0.592270 0.929667 0.848451 0.172727
H10   H     H_    0.070362 0.592247 0.848452 0.172782
H11   H     H_    0.407733 0.070334 0.848450 0.172727
H12   H     H_    0.253609 0.346904 0.943470 0.165877
H13   H     H_    0.929638 0.407752 0.848452 0.172782
H14   H     H_    0.092270 0.429668 0.348450 0.172723
H15   H     H_    0.570334 0.092268 0.348451 0.172742
H16   H     H_    0.907730 0.570331 0.348450 0.172723
H17   H     H_    0.429666 0.907732 0.348451 0.172742
H18   H     H_    0.147559 0.758539 0.031638 0.158374
H19   H     H_    0.241460 0.147557 0.031638 0.158377
H20   H     H_    0.852441 0.241461 0.031639 0.158373
H21   H     H_    0.758540 0.852442 0.031638 0.158376
H22   H     H_    0.852357 0.758427 0.031678 0.156375
H23   H     H_    0.653099 0.253607 0.943470 0.165880
H24   H     H_    0.758425 0.147644 0.031679 0.156369
H25   H     H_    0.147643 0.241573 0.031678 0.156376
H26   H     H_    0.241575 0.852356 0.031679 0.156369
H27   H     H_    0.647560 0.258538 0.531639 0.158369
H28   H     H_    0.741460 0.647558 0.531638 0.158377
H29   H     H_    0.352440 0.741462 0.531639 0.158369
H30   H     H_    0.258539 0.352442 0.531638 0.158377
H31   H     H_    0.352357 0.258427 0.531678 0.156372
H32   H     H_    0.258424 0.647645 0.531679 0.156353
H33   H     H_    0.647643 0.741573 0.531678 0.156372
H34   H     H_    0.746392 0.653097 0.943470 0.165876
H35   H     H_    0.741576 0.352355 0.531679 0.156353
H36   H     H_    0.401545 0.691634 0.967419 0.149684
H37   H     H_    0.308367 0.401547 0.967420 0.149684
H38   H     H_    0.598455 0.308366 0.967419 0.149684
H39   H     H_    0.691633 0.598453 0.967420 0.149684
H40   H     H_    0.598326 0.692074 0.967384 0.150048
H41   H     H_    0.692076 0.401673 0.967383 0.150051
H42   H     H_    0.401674 0.307927 0.967385 0.150048
H43   H     H_    0.307924 0.598327 0.967383 0.150051
H44   H     H_    0.901544 0.191634 0.467418 0.149684
H45   H     H_    0.653227 0.746640 0.943446 0.174791
H46   H     H_    0.808366 0.901547 0.467420 0.149683
H47   H     H_    0.098456 0.808366 0.467418 0.149684
H48   H     H_    0.191634 0.098453 0.467420 0.149683
H49   H     H_    0.098327 0.192074 0.467384 0.150047
H50   H     H_    0.192077 0.901672 0.467383 0.150050
H51   H     H_    0.901673 0.807926 0.467384 0.150047
H52   H     H_    0.807923 0.098327 0.467383 0.150050
H53   H     H_    0.643059 0.115470 0.773677 0.179100
H54   H     H_    0.884960 0.643383 0.773677 0.179108
H55   H     H_    0.356947 0.884530 0.773676 0.179100
H56   H     H_    0.746642 0.346771 0.943446 0.174791
H57   H     H_    0.115040 0.356617 0.773677 0.179108
H58   H     H_    0.143025 0.615505 0.273676 0.179102
H59   H     H_    0.384628 0.143133 0.273677 0.179103
H60   H     H_    0.856976 0.384493 0.273677 0.179102
H61   H     H_    0.615372 0.856868 0.273677 0.179103
H62   H     H_    0.142724 0.615872 0.226270 0.180118
H63   H     H_    0.384258 0.142831 0.226270 0.180119
H64   H     H_    0.857277 0.384124 0.226270 0.180118
H65   H     H_    0.615743 0.857170 0.226270 0.180119
H66   H     H_    0.642759 0.115837 0.726270 0.180111
H67   H     H_    0.346773 0.253361 0.943446 0.174790
H68   H     H_    0.884586 0.643079 0.726271 0.180117
H69   H     H_    0.357248 0.884163 0.726270 0.180111
H70   H     H_    0.115414 0.356920 0.726271 0.180117
H71   H     H_    0.787880 0.611861 0.159741 0.357718
H72   H     H_    0.387994 0.787957 0.159744 0.357718
H73   H     H_    0.212120 0.388139 0.159740 0.357718
H74   H     H_    0.612007 0.212044 0.159744 0.357718
H75   H     H_    0.287920 0.111932 0.659742 0.357720
H76   H     H_    0.887652 0.288150 0.659749 0.357725
H77   H     H_    0.712088 0.888071 0.659740 0.357720
H78   H     H_    0.253358 0.653229 0.943446 0.174791
H79   H     H_    0.112350 0.711849 0.659749 0.357725
H80   H     H_    0.847491 0.685328 0.093323 0.347714
H81   H     H_    0.314595 0.847586 0.093321 0.347707
H82   H     H_    0.152519 0.314680 0.093322 0.347714
H83   H     H_    0.685405 0.152414 0.093321 0.347707
H84   H     H_    0.347540 0.185363 0.593321 0.347708
H85   H     H_    0.814399 0.347847 0.593314 0.347693
H86   H     H_    0.652462 0.814637 0.593321 0.347708
H87   H     H_    0.185602 0.652151 0.593314 0.347693
H88   H     H_    0.682509 0.912176 0.930393 0.336402
H89   H     H_    0.846899 0.246395 0.443470 0.165880
H90   H     H_    0.087861 0.682496 0.930392 0.336399
H91   H     H_    0.317491 0.087823 0.930392 0.336403
H92   H     H_    0.912139 0.317504 0.930392 0.336399
H93   H     H_    0.182511 0.412180 0.430393 0.336402
H94   H     H_    0.587823 0.182510 0.430393 0.336400
H95   H     H_    0.817489 0.587820 0.430393 0.336402
H96   H     H_    0.412176 0.817490 0.430393 0.336400
N1    N     N_R   0.500002 0.000000 0.817893 -0.396678
N2    N     N_R   1.000000 0.500000 0.817894 -0.396645
N3    N     N_R   0.000000 0.499999 0.317893 -0.396678
N4    N     N_R   0.500000 0.000000 0.317893 -0.396671
N5    N     N_R   0.000000 0.499998 0.182052 -0.373206
N6    N     N_R   0.500000 0.000000 0.182052 -0.373208
N7    N     N_R   0.500004 0.000000 0.682052 -0.373207
N8    N     N_R   0.000000 0.500000 0.682053 -0.373187
O1    O     O_3   1.000000 0.500000 0.999730 -0.459632
O2    O     O_R   1.000000 0.561010 0.441690 -0.509791
O3    O     O_R   0.160980 0.613762 0.604413 -0.649773
O4    O     O_2   0.638306 0.864600 0.889878 -0.504654
O5    O     O_R   0.642434 0.944699 0.923454 -0.690895
O6    O     O_2   0.135437 0.638268 0.889880 -0.504671
O7    O     O_R   0.055329 0.642428 0.923452 -0.690880
O8    O     O_2   0.361695 0.135400 0.889877 -0.504654
O9    O     O_R   0.357566 0.055301 0.923453 -0.690895
O10   O     O_2   0.864562 0.361732 0.889880 -0.504671
O11   O     O_R   0.944671 0.357572 0.923452 -0.690880
O12   O     O_2   0.138310 0.364604 0.389877 -0.504653
O13   O     O_R   0.438990 1.000000 0.441690 -0.509796
O14   O     O_R   0.142434 0.444701 0.423454 -0.690896
O15   O     O_2   0.635399 0.138307 0.389878 -0.504657
O16   O     O_R   0.555301 0.142434 0.423454 -0.690894
O17   O     O_2   0.861690 0.635395 0.389877 -0.504652
O18   O     O_R   0.857566 0.555299 0.423454 -0.690896
O19   O     O_2   0.364601 0.861693 0.389877 -0.504657
O20   O     O_R   0.444698 0.857566 0.423454 -0.690894
O21   O     O_R   1.000000 0.438990 0.441690 -0.509791
O22   O     O_R   1.000000 0.560620 0.057780 -0.512577
O23   O     O_R   0.439380 0.000000 0.057780 -0.512579
O24   O     O_R   1.000000 0.439380 0.057780 -0.512580
O25   O     O_R   0.560620 0.000000 0.057780 -0.512579
O26   O     O_R   0.500000 0.060620 0.557780 -0.512582
O27   O     O_R   0.939380 0.500000 0.557780 -0.512582
O28   O     O_R   0.500000 0.939380 0.557780 -0.512578
O29   O     O_3   0.500000 1.000000 0.999730 -0.459633
O30   O     O_R   0.060620 0.500000 0.557780 -0.512582
O31   O     O_R   0.854100 0.585380 0.984510 -0.542717
O32   O     O_R   0.414620 0.854100 0.984510 -0.542718
O33   O     O_R   0.145900 0.414620 0.984510 -0.542716
O34   O     O_R   0.585380 0.145900 0.984510 -0.542718
O35   O     O_R   0.145900 0.585380 0.984510 -0.537055
O36   O     O_R   0.585380 0.854100 0.984510 -0.537056
O37   O     O_R   0.854100 0.414620 0.984510 -0.537055
O38   O     O_R   0.414620 0.145900 0.984510 -0.537056
O39   O     O_R   0.354100 0.085380 0.484510 -0.542716
O40   O     O_3   0.500000 0.000000 0.499730 -0.459633
O41   O     O_R   0.914620 0.354100 0.484510 -0.542723
O42   O     O_R   0.645900 0.914620 0.484510 -0.542716
O43   O     O_R   0.085380 0.645900 0.484510 -0.542723
O44   O     O_R   0.645900 0.085380 0.484510 -0.537055
O45   O     O_R   0.085380 0.354100 0.484510 -0.537057
O46   O     O_R   0.354100 0.914620 0.484510 -0.537056
O47   O     O_R   0.914620 0.645900 0.484510 -0.537058
O48   O     O_R   0.085710 0.353760 0.014950 -0.539498
O49   O     O_R   0.646240 0.085710 0.014950 -0.539491
O50   O     O_R   0.914290 0.646240 0.014950 -0.539498
O51   O     O_3   1.000000 0.500000 0.499730 -0.459634
O52   O     O_R   0.353760 0.914290 0.014950 -0.539491
O53   O     O_R   0.914290 0.353760 0.014950 -0.546052
O54   O     O_R   0.353760 0.085710 0.014950 -0.546055
O55   O     O_R   0.085710 0.646240 0.014950 -0.546052
O56   O     O_R   0.646240 0.914290 0.014950 -0.546055
O57   O     O_R   0.585710 0.853760 0.514950 -0.539495
O58   O     O_R   0.146240 0.585710 0.514950 -0.539475
O59   O     O_R   0.414290 0.146240 0.514950 -0.539497
O60   O     O_R   0.853760 0.414290 0.514950 -0.539475
O61   O     O_R   0.414290 0.853760 0.514950 -0.546053
O62   O     O_R   0.061010 0.500000 0.941690 -0.509801
O63   O     O_R   0.853760 0.585710 0.514950 -0.546061
O64   O     O_R   0.585710 0.146240 0.514950 -0.546053
O65   O     O_R   0.146240 0.414290 0.514950 -0.546061
O66   O     O_2   0.400348 0.919800 0.818344 -0.470503
O67   O     O_2   0.079905 0.400120 0.818344 -0.470554
O68   O     O_2   0.599656 0.080201 0.818344 -0.470502
O69   O     O_2   0.920095 0.599879 0.818344 -0.470554
O70   O     O_2   0.900368 0.419774 0.318344 -0.470501
O71   O     O_2   0.580133 0.900293 0.318344 -0.470514
O72   O     O_2   0.099632 0.580225 0.318344 -0.470501
O73   O     O_R   0.500000 0.061010 0.941690 -0.509795
O74   O     O_2   0.419868 0.099708 0.318344 -0.470515
O75   O     O_2   0.098530 0.581591 0.181612 -0.452827
O76   O     O_2   0.418494 0.098603 0.181613 -0.452825
O77   O     O_2   0.901470 0.418405 0.181612 -0.452828
O78   O     O_2   0.581507 0.901398 0.181613 -0.452825
O79   O     O_2   0.598557 0.081566 0.681613 -0.452832
O80   O     O_2   0.918710 0.598770 0.681614 -0.452845
O81   O     O_2   0.401450 0.918434 0.681612 -0.452832
O82   O     O_2   0.081290 0.401229 0.681614 -0.452845
O83   O     O_2   0.911969 0.622504 0.173653 -0.473367
O84   O     O_R   0.938990 0.500000 0.941690 -0.509801
O85   O     O_R   0.820038 0.580824 0.148177 -0.638418
O86   O     O_2   0.377428 0.912058 0.173652 -0.473370
O87   O     O_R   0.419056 0.820092 0.148180 -0.638407
O88   O     O_2   0.088032 0.377494 0.173653 -0.473368
O89   O     O_R   0.179961 0.419176 0.148176 -0.638417
O90   O     O_2   0.622572 0.087943 0.173652 -0.473369
O91   O     O_R   0.580945 0.179909 0.148180 -0.638408
O92   O     O_2   0.412012 0.122534 0.673653 -0.473366
O93   O     O_R   0.320067 0.080883 0.648178 -0.638416
O94   O     O_2   0.877284 0.412268 0.673650 -0.473387
O95   O     O_R   0.500000 0.938990 0.941690 -0.509795
O96   O     O_R   0.918770 0.320228 0.648185 -0.638394
O97   O     O_2   0.587997 0.877469 0.673653 -0.473366
O98   O     O_R   0.679940 0.919119 0.648176 -0.638415
O99   O     O_2   0.122717 0.587731 0.673650 -0.473386
O100  O     O_R   0.081232 0.679771 0.648185 -0.638396
O101  O     O_2   0.856654 0.559435 0.081366 -0.495890
O102  O     O_R   0.885916 0.660767 0.104424 -0.649752
O103  O     O_2   0.440497 0.856675 0.081370 -0.495872
O104  O     O_R   0.339172 0.886002 0.104422 -0.649754
O105  O     O_2   0.143348 0.440571 0.081365 -0.495891
O106  O     O_R   0.561010 1.000000 0.441690 -0.509796
O107  O     O_R   0.114092 0.339237 0.104423 -0.649751
O108  O     O_2   0.559502 0.143325 0.081369 -0.495871
O109  O     O_R   0.660829 0.113998 0.104421 -0.649754
O110  O     O_2   0.356658 0.059462 0.581370 -0.495874
O111  O     O_R   0.385962 0.160796 0.604421 -0.649754
O112  O     O_2   0.940326 0.356726 0.581382 -0.495821
O113  O     O_R   0.839021 0.386236 0.604413 -0.649773
O114  O     O_2   0.643339 0.940535 0.581368 -0.495876
O115  O     O_R   0.614042 0.839204 0.604422 -0.649753
O116  O     O_2   0.059674 0.643273 0.581382 -0.495820
Zn1   Zn    Zn3+2 1.000000 0.586670 0.021480 0.997861
Zn2   Zn    Zn3+2 0.500000 0.913520 0.977990 0.985063
Zn3   Zn    Zn3+2 0.086480 0.500000 0.977990 0.985062
Zn4   Zn    Zn3+2 0.500000 0.086480 0.977990 0.985063
Zn5   Zn    Zn3+2 0.413520 0.000000 0.477990 0.985064
Zn6   Zn    Zn3+2 1.000000 0.413520 0.477990 0.985053
Zn7   Zn    Zn3+2 0.586480 0.000000 0.477990 0.985065
Zn8   Zn    Zn3+2 1.000000 0.586480 0.477990 0.985053
Zn9   Zn    Zn3+2 0.413330 0.000000 0.021480 0.997853
Zn10  Zn    Zn3+2 1.000000 0.413330 0.021480 0.997860
Zn11  Zn    Zn3+2 0.586670 0.000000 0.021480 0.997853
Zn12  Zn    Zn3+2 0.500000 0.086670 0.521480 0.997856
Zn13  Zn    Zn3+2 0.913330 0.500000 0.521480 0.997834
Zn14  Zn    Zn3+2 0.500000 0.913330 0.521480 0.997857
Zn15  Zn    Zn3+2 0.086670 0.500000 0.521480 0.997834
Zn16  Zn    Zn3+2 0.913520 0.500000 0.977990 0.985062

loop_
_geom_bond_atom_site_label_1
_geom_bond_atom_site_label_2
_ccdc_geom_bond_type
C172  C177  A    
C168  C175  A    
C144  C184  A    
C142  C146  A    
O44   Zn7   S    
C114  O100  S    
C86   H52   S    
H88   O5    S    
C55   C56   A    
C127  C200  S    
C183  O22   A    
C52   H18   S    
O46   Zn5   S    
O1    Zn1   S    
O40   Zn5   S    
C107  O89   S    
C56   H22   S    
C141  C154  A    
C214  O31   A    
C138  C145  A    
C93   N4    A    
C199  C205  A    
C42   C215  S    
C94   N3    A    
C151  O21   A    
C158  C180  A    
C130  O17   D    
C140  O106  A    
C36   C53   A    
C19   C37   A    
C77   H78   S    
C188  C210  A    
C38   C55   A    
C91   O69   S    
O60   Zn13  S    
C171  C178  A    
C118  O108  D    
C48   C65   A    
C196  C204  A    
O36   Zn2   S    
C16   C44   S    
H80   O102  S    
C95   C102  A    
O23   Zn9   S    
O51   Zn13  S    
H83   O109  S    
C151  O2    A    
H87   O3    S    
C98   C162  A    
C190  C199  A    
C4    C34   S    
O29   Zn11  S    
C73   C74   S    
O49   Zn11  S    
C8    O39   A    
C97   C173  A    
O30   Zn15  S    
C83   H49   S    
C108  O90   D    
C4    O35   A    
C148  N5    A    
C101  C137  A    
C66   H32   S    
C88   O67   S    
C33   C78   S    
C177  C186  S    
C190  H11   S    
C90   H63   S    
C30   C82   S    
H90   O7    S    
C11   C49   S    
C117  O105  D    
C32   C80   S    
O29   Zn2   S    
C39   C56   A    
C10   O57   A    
O25   Zn11  S    
C121  O115  S    
C55   H21   S    
H95   O18   S    
C122  O116  D    
C131  C204  S    
C67   H33   S    
C126  O9    S    
C153  N7    A    
C158  C167  A    
C33   C51   A    
C17   C34   A    
C165  C182  A    
C9    O60   A    
C43   C61   A    
C175  C183  S    
O1    Zn3   S    
C57   H60   S    
C24   C134  A    
O40   Zn7   S    
C13   C133  A    
C94   O72   S    
C4    O55   A    
C193  C213  A    
C124  H66   S    
O45   Zn6   S    
C6    O53   A    
C23   C41   A    
C17   C25   A    
C140  O13   A    
C89   C96   A    
C190  C210  A    
C187  O27   A    
C64   C65   A    
O51   Zn8   S    
C15   O46   A    
H72   O87   S    
O61   Zn14  S    
C134  H70   S    
C104  C195  A    
C96   C162  A    
C71   H12   S    
C129  O15   D    
C88   C99   A    
C141  C147  A    
C5    O56   A    
C194  C212  A    
C83   H5    S    
C74   H45   S    
C64   H30   S    
C20   C21   A    
C3    O49   A    
C51   C69   A    
C89   N1    A    
C191  C211  A    
C81   H3    S    
C61   H27   S    
O2    Zn8   S    
O13   Zn5   S    
C101  H64   S    
C54   H20   S    
O73   Zn4   S    
C180  N6    S    
C115  O102  S    
C181  N7    S    
C133  C142  A    
C153  O79   S    
C128  O14   S    
C29   C47   A    
C154  O80   S    
C30   C48   A    
C95   N4    A    
C157  C179  A    
O29   Zn4   S    
C75   H56   S    
C117  C168  S    
O40   Zn12  S    
C116  O103  D    
C21   C73   S    
C20   C38   A    
C192  C212  A    
C95   O74   S    
C106  O87   S    
C52   C60   A    
C96   C206  A    
C27   C44   A    
C201  C208  A    
O106  Zn7   S    
C50   C67   A    
C191  H13   S    
C122  O3    S    
C134  C143  A    
C87   N1    A    
C70   C77   S    
C72   C75   S    
C22   C72   S    
O65   Zn15  S    
O33   Zn3   S    
C63   H29   S    
C49   C66   A    
C80   H46   S    
C191  C200  A    
O51   Zn6   S    
C69   H35   S    
C1    O84   A    
C118  C169  S    
C165  C174  A    
C122  C174  S    
C14   O65   A    
C29   C30   A    
C112  O95   A    
C26   C33   A    
C111  O97   D    
C94   C100  A    
C192  C201  A    
C72   H23   S    
C84   H50   S    
O55   Zn1   S    
C89   O68   S    
C137  C144  A    
C125  C198  S    
C81   H47   S    
C82   H48   S    
C137  C150  A    
C164  C172  A    
C185  O23   A    
C129  C202  S    
C202  C209  A    
C35   C100  A    
C105  O83   D    
C70   H36   S    
O57   Zn14  S    
C105  O85   S    
C114  C165  S    
C6    O37   A    
C132  C141  A    
C198  C207  A    
H86   O115  S    
C123  C197  S    
C111  C164  S    
H91   O9    S    
C118  O109  S    
C72   H38   S    
C15   O61   A    
C120  C171  S    
O50   Zn1   S    
C57   C101  A    
C203  C208  A    
C60   H26   S    
C46   H59   S    
O38   Zn4   S    
C87   C98   A    
C84   H6    S    
C7    O54   A    
C215  O52   A    
C155  N7    A    
C79   H62   S    
C156  N8    A    
C148  O75   S    
C35   C79   A    
C161  C181  A    
C130  O18   S    
O53   Zn10  S    
H76   O96   S    
C121  C172  S    
C77   H43   S    
C78   H44   S    
C212  N3    S    
C152  N6    A    
H79   O100  S    
C130  C203  S    
H77   O98   S    
C126  C199  S    
C120  O113  S    
C139  C146  A    
C28   C84   S    
C7    C36   S    
C197  C205  A    
C189  H10   S    
C9    C51   S    
H84   O111  S    
C169  C176  A    
H92   O11   S    
C102  C195  A    
C136  C149  A    
C143  C156  A    
C176  C185  S    
O26   Zn12  S    
H74   O91   S    
C150  N5    A    
C192  H14   S    
C146  C162  A    
C166  C175  A    
C107  O88   D    
O28   Zn14  S    
C13   H55   S    
C71   C76   S    
O27   Zn13  S    
C139  C153  A    
C216  O48   A    
O21   Zn6   S    
C125  O7    S    
C131  O20   S    
C27   C85   S    
C71   H37   S    
C124  C139  A    
C186  O28   A    
C105  C157  S    
C75   H41   S    
C2    C97   A    
C204  C209  A    
C140  C209  S    
C2    C132  A    
C160  C169  A    
C8    O59   A    
C121  O114  D    
C163  C171  A    
C174  C178  A    
O35   Zn3   S    
C149  O76   S    
C68   C113  A    
C155  O81   S    
O1    Zn16  S    
C124  C206  A    
C92   N3    A    
C5    C38   S    
C3    O34   A    
C114  O99   D    
C185  O25   A    
C31   C49   A    
C57   C103  A    
C91   N2    A    
C2    H54   S    
C123  O4    D    
C70   H1    S    
C170  C177  A    
C103  C184  A    
C23   C71   S    
C40   C58   A    
C68   H61   S    
C138  C152  A    
O43   Zn8   S    
C193  C202  A    
C16   O47   A    
O41   Zn6   S    
C14   O45   A    
C143  C147  A    
H75   O93   S    
C80   C85   S    
C187  O30   A    
C99   C173  A    
C109  O93   S    
C88   N2    A    
C85   H51   S    
C20   C74   S    
C211  N2    S    
C91   C97   A    
C115  C166  S    
C85   H7    S    
C182  N8    S    
C178  C187  S    
C150  O77   S    
C132  H68   S    
C3    C40   S    
C200  C207  A    
C133  H69   S    
C119  O110  D    
C127  O10   D    
C161  C170  A    
C193  H15   S    
C9    O41   A    
C78   H89   S    
C47   C64   A    
C109  O92   D    
C18   C76   S    
C27   C32   A    
C28   C31   A    
C68   C104  A    
C159  C179  A    
C7    O38   A    
C110  O94   D    
C25   C42   A    
C112  C205  S    
C110  C163  S    
C147  C173  A    
C62   H28   S    
C46   C90   A    
C115  O101  D    
C79   C135  A    
C34   C52   A    
C215  O32   A    
C213  N4    S    
H93   O14   S    
C11   O43   A    
C186  O26   A    
C45   C63   A    
C188  C197  A    
O34   Zn4   S    
C100  C184  A    
C145  C195  A    
O48   Zn10  S    
C82   H4    S    
C1    O62   A    
C82   C83   S    
C128  O12   D    
C206  H53   S    
C126  O8    D    
C12   O44   A    
O40   Zn14  S    
C113  C138  A    
C25   C70   S    
C18   C36   A    
C113  H65   S    
C189  C198  A    
O52   Zn9   S    
O31   Zn16  S    
C24   C99   A    
C76   H67   S    
O39   Zn5   S    
C5    O36   A    
O58   Zn15  S    
C214  O50   A    
C8    C48   S    
C53   C59   A    
O24   Zn10  S    
C46   C102  A    
O47   Zn8   S    
C62   C67   A    
O42   Zn7   S    
C29   C83   S    
C12   C43   S    
O63   Zn13  S    
C80   H2    S    
H71   O85   S    
O54   Zn9   S    
H73   O89   S    
C10   O42   A    
C11   O58   A    
H81   O104  S    
C110  O96   S    
C159  C168  A    
C13   C98   A    
C129  O16   S    
C92   C103  A    
C73   H39   S    
C160  C180  A    
C93   O71   S    
C35   H58   S    
O22   Zn1   S    
C116  C167  S    
C164  C181  A    
C151  C208  S    
C53   H19   S    
C136  C145  A    
C179  N5    S    
O37   Zn16  S    
C128  C201  S    
C78   C86   S    
C65   H31   S    
C63   C66   A    
C163  C182  A    
O62   Zn3   S    
C108  O91   S    
C86   H8    S    
C58   H24   S    
C112  O73   A    
C93   C104  A    
C17   C77   S    
O84   Zn16  S    
C26   C43   A    
H96   O20   S    
H94   O16   S    
C24   H57   S    
C16   O63   A    
C92   O70   S    
C28   C45   A    
C18   C23   A    
C194  H16   S    
C19   C22   A    
C41   C59   A    
C188  H9    S    
C189  C211  A    
O56   Zn11  S    
C42   C60   A    
C183  O24   A    
C41   C216  S    
C154  N8    A    
C116  O104  S    
C119  C170  S    
C44   C62   A    
C106  C158  S    
C76   H42   S    
C123  O5    S    
O64   Zn12  S    
C106  O86   D    
C90   C136  A    
C156  O82   S    
C216  O33   A    
C21   C39   A    
C26   C86   S    
C22   C40   A    
C6    C37   S    
C196  H17   S    
C32   C50   A    
C12   O64   A    
C37   C54   A    
C135  C144  A    
C142  C155  A    
H85   O113  S    
C15   C45   S    
C81   C84   S    
C87   O66   S    
C73   H34   S    
C54   C58   A    
C61   C69   A    
O51   Zn15  S    
C39   C214  S    
C119  O111  S    
C127  O11   S    
C120  O112  D    
O32   Zn2   S    
C157  C166  A    
C107  C159  S    
C14   C47   S    
C108  C160  S    
O29   Zn9   S    
C31   C81   S    
C59   H25   S    
C19   C75   S    
O59   Zn12  S    
C109  C161  S    
C196  C213  A    
C149  N6    A    
C111  O98   S    
C194  C203  A    
C125  O6    D    
C117  O107  S    
O95   Zn2   S    
C131  O19   D    
C1    C207  S    
H82   O107  S    
C210  N1    S    
O1    Zn10  S    
C135  C148  A    
C74   H40   S    
C152  O78   S    
C167  C176  A    
C10   C50   S    
