data_mof_unit_58587.cif
_audit_creation_date              2012-12-10T17:41:00-0500
_audit_creation_method            fapswitch 2.2
_symmetry_space_group_name_H-M    P1
_symmetry_Int_Tables_number       1
_space_group_crystal_system       triclinic
_cell_length_a                    14.873586
_cell_length_b                    15.437964
_cell_length_c                    9.873969
_cell_angle_alpha                 89.997206
_cell_angle_beta                  88.997681
_cell_angle_gamma                 89.999866
_cell_volume                      2266.89296281

loop_
_atom_site_label
_atom_site_type_symbol
_atom_type_description
_atom_site_fract_x
_atom_site_fract_y
_atom_site_fract_z
_atom_type_partial_charge
Br1   Br    Br    0.692458 0.000001 0.837221 -0.450093
Br2   Br    Br    0.192458 0.500001 0.837221 -0.450093
Br3   Br    Br    0.595098 0.748215 0.025668 -0.578199
Br4   Br    Br    0.594904 0.251863 0.025567 -0.578149
Br5   Br    Br    0.095099 0.248215 0.025668 -0.578199
Br6   Br    Br    0.094905 0.751863 0.025567 -0.578149
C1    C     C_R   0.383868 0.876034 0.501888 0.855018
C2    C     C_R   0.718819 0.218605 0.380920 -0.164172
C3    C     C_R   0.218838 0.281416 0.380920 -0.164149
C4    C     C_R   0.218820 0.718605 0.380920 -0.164172
C5    C     C_R   0.671965 0.800682 0.500722 -0.118844
C6    C     C_R   0.671927 0.199344 0.500705 -0.118817
C7    C     C_R   0.171965 0.300682 0.500722 -0.118844
C8    C     C_R   0.171927 0.699344 0.500705 -0.118817
C9    C     C_R   0.335346 0.000010 0.144198 -0.162069
C10   C     C_R   0.835346 0.500010 0.144198 -0.162069
C11   C     C_R   0.254483 0.000018 0.075515 -0.168201
C12   C     C_R   0.383883 0.123974 0.501881 0.854998
C13   C     C_R   0.754483 0.500018 0.075515 -0.168201
C14   C     C_R   0.254713 0.000018 0.935379 -0.163640
C15   C     C_R   0.754713 0.500018 0.935379 -0.163640
C16   C     C_R   0.335814 0.000008 0.863170 -0.162210
C17   C     C_R   0.835814 0.500008 0.863170 -0.162210
C18   C     C_R   0.418956 0.000004 0.929426 0.089640
C19   C     C_R   0.918956 0.500004 0.929426 0.089640
C20   C     C_R   0.418899 0.000004 0.074267 0.169397
C21   C     C_R   0.918899 0.500004 0.074267 0.169397
C22   C     C_R   0.577378 0.999998 0.070481 -0.071486
C23   C     C_R   0.883868 0.376034 0.501888 0.855018
C24   C     C_R   0.077378 0.499998 0.070481 -0.071486
C25   C     C_R   0.613297 0.125586 0.499823 0.906295
C26   C     C_R   0.613307 0.874419 0.499828 0.906320
C27   C     C_R   0.113297 0.625586 0.499823 0.906295
C28   C     C_R   0.113307 0.374419 0.499828 0.906320
C29   C     C_R   0.577747 0.999998 0.927516 0.339328
C30   C     C_R   0.077747 0.499999 0.927516 0.339328
C31   C     C_R   0.313760 0.206394 0.762300 -0.198694
C32   C     C_R   0.313639 0.793680 0.762329 -0.198782
C33   C     C_R   0.813760 0.706394 0.762300 -0.198694
C34   C     C_R   0.883883 0.623974 0.501881 0.854998
C35   C     C_R   0.813639 0.293681 0.762329 -0.198782
C36   C     C_R   0.260523 0.216896 0.878909 -0.151411
C37   C     C_R   0.260369 0.783189 0.878907 -0.151525
C38   C     C_R   0.760523 0.716896 0.878909 -0.151411
C39   C     C_R   0.760369 0.283189 0.878907 -0.151525
C40   C     C_R   0.670757 0.740465 0.867758 0.316070
C41   C     C_R   0.670609 0.259610 0.867706 0.316097
C42   C     C_R   0.170757 0.240465 0.867758 0.316070
C43   C     C_R   0.170609 0.759610 0.867706 0.316097
C44   C     C_R   0.637370 0.762243 0.741241 -0.163341
C45   C     C_R   0.290138 0.225640 0.383724 -0.193497
C46   C     C_R   0.637262 0.237810 0.741178 -0.163370
C47   C     C_R   0.137370 0.262243 0.741241 -0.163341
C48   C     C_R   0.137262 0.737810 0.741178 -0.163370
C49   C     C_R   0.693951 0.760258 0.624257 0.061313
C50   C     C_R   0.693876 0.239791 0.624230 0.061336
C51   C     C_R   0.193951 0.260258 0.624257 0.061313
C52   C     C_R   0.193876 0.739791 0.624230 0.061336
C53   C     C_R   0.277418 0.219374 0.631745 0.092506
C54   C     C_R   0.277337 0.780683 0.631751 0.092545
C55   C     C_R   0.777418 0.719374 0.631745 0.092506
C56   C     C_R   0.290117 0.774380 0.383738 -0.193563
C57   C     C_R   0.777337 0.280683 0.631751 0.092545
C58   C     C_R   0.319816 0.193776 0.507632 -0.113601
C59   C     C_R   0.319774 0.806255 0.507648 -0.113585
C60   C     C_R   0.819816 0.693776 0.507632 -0.113601
C61   C     C_R   0.819774 0.306255 0.507648 -0.113585
C62   C     C_R   0.790137 0.725640 0.383724 -0.193497
C63   C     C_R   0.790118 0.274380 0.383738 -0.193563
C64   C     C_R   0.718838 0.781416 0.380920 -0.164149
H1    H     H_    0.322714 0.208480 0.288388 0.187937
H2    H     H_    0.140271 0.499996 0.123919 0.171991
H3    H     H_    0.329336 0.000007 0.251675 0.209292
H4    H     H_    0.829336 0.500007 0.251675 0.209292
H5    H     H_    0.191253 0.000024 0.131538 0.186091
H6    H     H_    0.691253 0.500023 0.131538 0.186091
H7    H     H_    0.191709 0.000022 0.882084 0.176712
H8    H     H_    0.691709 0.500022 0.882084 0.176712
H9    H     H_    0.330598 0.000000 0.755842 0.216670
H10   H     H_    0.830598 0.500000 0.755842 0.216670
H11   H     H_    0.383702 0.191297 0.777446 0.190084
H12   H     H_    0.322718 0.791524 0.288413 0.187914
H13   H     H_    0.383577 0.808771 0.777526 0.190105
H14   H     H_    0.883702 0.691297 0.777446 0.190084
H15   H     H_    0.883577 0.308771 0.777526 0.190105
H16   H     H_    0.567331 0.780594 0.735561 0.166702
H17   H     H_    0.567230 0.219436 0.735461 0.166636
H18   H     H_    0.067331 0.280594 0.735561 0.166702
H19   H     H_    0.067230 0.719436 0.735461 0.166636
H20   H     H_    0.701656 0.810578 0.284985 0.207173
H21   H     H_    0.701661 0.189429 0.284990 0.207098
H22   H     H_    0.201656 0.310578 0.284985 0.207173
H23   H     H_    0.822714 0.708480 0.288388 0.187937
H24   H     H_    0.201660 0.689429 0.284990 0.207098
H25   H     H_    0.822718 0.291524 0.288413 0.187914
H26   H     H_    0.288723 0.204850 0.977518 0.175875
H27   H     H_    0.288539 0.795247 0.977531 0.175853
H28   H     H_    0.788723 0.704850 0.977518 0.175875
H29   H     H_    0.788539 0.295247 0.977531 0.175853
H30   H     H_    0.640271 0.999996 0.123919 0.171991
N1    N     N_R   0.498810 0.000000 0.142780 -0.134119
N2    N     N_R   0.998810 0.500000 0.142780 -0.134119
N3    N     N_R   0.498740 0.000000 0.857170 -0.156120
N4    N     N_R   0.998740 0.500000 0.857170 -0.156120
O1    O     O_R   0.408390 0.908380 0.614690 -0.663383
O2    O     O_R   0.591620 0.908390 0.614640 -0.585631
O3    O     O_R   0.091620 0.591610 0.614640 -0.585615
O4    O     O_R   0.091620 0.408390 0.614640 -0.585632
O5    O     O_R   0.591610 0.091610 0.385310 -0.609190
O6    O     O_R   0.591610 0.908390 0.385310 -0.609167
O7    O     O_R   0.091610 0.591610 0.385310 -0.609190
O8    O     O_R   0.091610 0.408390 0.385310 -0.609167
O9    O     O_R   0.408390 0.091620 0.614690 -0.663391
O10   O     O_R   0.908390 0.408380 0.614690 -0.663383
O11   O     O_R   0.908390 0.591620 0.614690 -0.663391
O12   O     O_R   0.408370 0.908380 0.385360 -0.632812
O13   O     O_R   0.408370 0.091620 0.385360 -0.632819
O14   O     O_R   0.908370 0.408380 0.385360 -0.632812
O15   O     O_R   0.908370 0.591620 0.385360 -0.632819
O16   O     O_R   0.591620 0.091610 0.614640 -0.585615
Zn1   Zn    Zn3+2 0.500010 0.000000 0.653130 0.961953
Zn2   Zn    Zn3+2 0.000010 0.500000 0.653130 0.961953
Zn3   Zn    Zn3+2 0.499980 0.000000 0.346870 0.974696
Zn4   Zn    Zn3+2 0.999980 0.500000 0.346870 0.974696

loop_
_geom_bond_atom_site_label_1
_geom_bond_atom_site_label_2
_ccdc_geom_bond_type
C60   C62   A    
C23   O10   A    
O12   Zn3   S    
C32   H13   S    
C28   O8    A    
C3    C45   A    
C8    C27   S    
C5    C64   A    
C4    C56   A    
O15   Zn4   S    
C53   C58   A    
N1    Zn3   S    
C26   O6    A    
C14   H7    S    
C36   H26   S    
C13   H6    S    
C13   C15   A    
C18   C20   A    
C16   H9    S    
O8    Zn4   S    
C29   N3    A    
C20   N1    A    
N2    Zn4   S    
C51   C53   A    
C34   O11   A    
N4    Zn2   S    
C4    H24   S    
C52   C54   A    
C43   C48   A    
C11   C14   A    
C3    H22   S    
C31   C36   A    
C3    C7    A    
C23   C61   S    
C38   H28   S    
C55   C60   A    
C22   C29   A    
C27   O3    A    
C15   H8    S    
C1    O1    A    
C27   O7    A    
C17   H10   S    
C22   H30   S    
C10   C21   A    
C56   H12   S    
O11   Zn2   S    
C34   C60   S    
C31   H11   S    
C64   H20   S    
C45   H1    S    
C8    C52   A    
C22   N1    A    
C12   O9    A    
C38   C40   A    
C39   C41   A    
C42   C47   A    
C33   C55   A    
Br5   C42   S    
C57   C61   A    
C48   H19   S    
C39   H29   S    
C2    C63   A    
C37   C43   A    
C9    C20   A    
O14   Zn4   S    
C61   C63   A    
C1    O12   A    
C41   C46   A    
O6    Zn3   S    
C1    C59   S    
C2    C6    A    
C44   C49   A    
C24   N2    A    
C5    C26   S    
C25   O5    A    
C50   C57   A    
O1    Zn1   S    
C2    H21   S    
C36   C42   A    
C12   O13   A    
C31   C53   A    
C32   C54   A    
C9    H3    S    
C14   C16   A    
C54   C59   A    
C15   C17   A    
C6    C25   S    
C4    C8    A    
C16   C18   A    
C35   C57   A    
N3    Zn1   S    
C5    C49   A    
O16   Zn1   S    
Br1   C29   S    
C48   C52   A    
Br2   C30   S    
C9    C11   A    
C47   C51   A    
Br3   C40   S    
C56   C59   A    
O7    Zn4   S    
C46   H17   S    
O5    Zn3   S    
C45   C58   A    
C37   H27   S    
O4    Zn2   S    
C63   H25   S    
C33   H14   S    
C24   H2    S    
C19   N4    A    
C33   C38   A    
C10   H4    S    
C19   C21   A    
O9    Zn1   S    
C35   H15   S    
C23   O14   A    
C40   C44   A    
C21   N2    A    
C62   H23   S    
C24   C30   A    
C30   N4    A    
C18   N3    A    
C28   O4    A    
O13   Zn3   S    
C7    C28   S    
C12   C58   S    
C10   C13   A    
C49   C55   A    
O2    Zn1   S    
C6    C50   A    
C47   H18   S    
C17   C19   A    
Br6   C43   S    
C25   O16   A    
C44   H16   S    
O10   Zn2   S    
C32   C37   A    
C34   O15   A    
C7    C51   A    
C62   C64   A    
C11   H5    S    
C35   C39   A    
C26   O2    A    
O3    Zn2   S    
C46   C50   A    
Br4   C41   S    
