data_mof_unit_23078.cif
_audit_creation_date              2012-12-11T16:13:58-0500
_audit_creation_method            fapswitch 2.2
_symmetry_space_group_name_H-M    P1
_symmetry_Int_Tables_number       1
_space_group_crystal_system       triclinic
_cell_length_a                    26.195034
_cell_length_b                    7.340522
_cell_length_c                    23.613966
_cell_angle_alpha                 89.964391
_cell_angle_beta                  101.421414
_cell_angle_gamma                 89.988227
_cell_volume                      4450.69884114

loop_
_atom_site_label
_atom_site_type_symbol
_atom_type_description
_atom_site_fract_x
_atom_site_fract_y
_atom_site_fract_z
_atom_type_partial_charge
O1    O     O_R   0.192370 0.384760 0.193350 -0.540491
O2    O     O_R   0.807630 0.615240 0.806650 -0.522239
O3    O     O_R   0.307630 0.884760 0.306650 -0.529732
O4    O     O_R   0.692370 0.115240 0.693350 -0.523215
O5    O     O_R   0.296630 0.711620 0.196480 -0.545289
O6    O     O_R   0.703370 0.288380 0.803520 -0.539045
O7    O     O_R   0.203370 0.211620 0.303520 -0.551955
O8    O     O_R   0.796630 0.788380 0.696480 -0.538640
C1    C     C_R   0.313497 0.545996 0.185644 0.772740
C2    C     C_R   0.686545 0.454045 0.814389 0.765160
C3    C     C_R   0.186451 0.046008 0.314317 0.760682
C4    C     C_R   0.813472 0.954080 0.685646 0.765826
O9    O     O_R   0.192080 0.714290 0.186600 -0.505029
O10   O     O_R   0.807920 0.285710 0.813400 -0.523203
O11   O     O_R   0.307920 0.214290 0.313400 -0.507222
O12   O     O_R   0.692080 0.785710 0.686600 -0.517683
O13   O     O_R   0.202340 0.887460 0.296690 -0.499178
O14   O     O_R   0.797660 0.112540 0.703310 -0.508459
O15   O     O_R   0.297660 0.387460 0.203310 -0.503973
O16   O     O_R   0.702340 0.612540 0.796690 -0.508564
C5    C     C_R   0.173874 0.547890 0.171550 0.705554
C6    C     C_R   0.826168 0.452205 0.828420 0.744123
C7    C     C_R   0.326147 0.047775 0.328411 0.761359
C8    C     C_R   0.673846 0.952310 0.671582 0.742082
O17   O     O_3   0.253490 0.552180 0.286130 -0.366533
O18   O     O_3   0.746510 0.447820 0.713870 -0.373722
O19   O     O_3   0.246510 0.052180 0.213870 -0.369800
O20   O     O_3   0.753490 0.947820 0.786130 -0.376148
V1    V     V_3+5 0.249350 0.825920 0.243300 1.687611
V2    V     V_3+5 0.750650 0.174080 0.756700 1.705867
V3    V     V_3+5 0.250650 0.325920 0.256700 1.669131
V4    V     V_3+5 0.749350 0.674080 0.743300 1.715236
C9    C     C_3   0.535104 0.918876 0.476572 -0.187121
C10   C     C_3   0.464335 0.096321 0.523886 -0.177313
C11   C     C_3   0.964926 0.421102 0.023017 -0.211602
C12   C     C_3   0.036075 0.597210 0.976005 -0.190975
C13   C     C_3   0.513796 0.111050 0.459230 -0.238663
C14   C     C_3   0.485485 0.904458 0.541631 -0.204502
C15   C     C_3   0.986126 0.613562 0.040082 -0.219710
C16   C     C_3   0.014992 0.405321 0.958414 -0.205245
C17   C     C_1   0.372051 0.050677 0.374227 -0.030215
C18   C     C_1   0.627849 0.950857 0.625849 0.005749
C19   C     C_1   0.127945 0.551244 0.125754 -0.042699
C20   C     C_1   0.872267 0.450557 0.874046 -0.000502
C21   C     C_3   0.478876 0.852161 0.476962 0.349347
C22   C     C_3   0.520825 0.162145 0.524192 0.385967
C23   C     C_3   0.021206 0.354099 0.023153 0.347822
C24   C     C_3   0.979519 0.663363 0.975015 0.440253
C25   C     C_3   0.457681 0.044381 0.459262 -0.018882
C26   C     C_3   0.541927 0.969891 0.541562 -0.018076
C27   C     C_3   0.042328 0.546392 0.040679 -0.023643
C28   C     C_3   0.958454 0.470921 0.957949 -0.031042
C29   C     C_1   0.410556 0.057322 0.412534 0.230198
C30   C     C_1   0.589128 0.949851 0.587735 0.255916
C31   C     C_1   0.089423 0.558581 0.087472 0.231520
C32   C     C_1   0.911133 0.449947 0.911986 0.216512
C33   C     C_R   0.894149 0.091188 0.656272 0.414137
C34   C     C_R   0.106381 0.906853 0.344861 0.463419
C35   C     C_R   0.605933 0.591102 0.843968 0.413892
C36   C     C_R   0.393960 0.408081 0.155853 0.397525
C37   C     C_R   0.928072 0.097368 0.617169 -0.232249
C38   C     C_R   0.072547 0.902035 0.384112 -0.190631
C39   C     C_R   0.572046 0.596943 0.883120 -0.231787
C40   C     C_R   0.427927 0.402760 0.116752 -0.203193
H1    H     H_    0.959445 0.195938 0.623802 0.211563
H2    H     H_    0.041918 0.800686 0.378556 0.219646
H3    H     H_    0.540679 0.695600 0.876553 0.211883
H4    H     H_    0.458924 0.302661 0.122918 0.215184
C41   C     C_R   0.923573 0.975300 0.570731 -0.160328
C42   C     C_R   0.076018 0.028966 0.429147 -0.182656
C43   C     C_R   0.576577 0.474493 0.929525 -0.160919
C44   C     C_R   0.424073 0.527774 0.071081 -0.162507
C45   C     C_R   0.882731 0.845403 0.562576 0.482842
C46   C     C_R   0.115640 0.163412 0.435498 0.482402
C47   C     C_R   0.617429 0.344509 0.937569 0.483040
C48   C     C_R   0.383934 0.660548 0.063935 0.480802
C49   C     C_R   0.848253 0.840605 0.601280 -0.232997
C50   C     C_R   0.150347 0.165713 0.397062 -0.250333
C51   C     C_R   0.651854 0.340017 0.898798 -0.232223
C52   C     C_R   0.349117 0.663214 0.102241 -0.289349
H5    H     H_    0.816807 0.742328 0.594528 0.191981
H6    H     H_    0.180941 0.267107 0.402681 0.209528
H7    H     H_    0.683294 0.241647 0.905464 0.191402
H8    H     H_    0.318105 0.763165 0.096032 0.195937
C53   C     C_R   0.852704 0.963135 0.647734 -0.212257
C54   C     C_R   0.147076 0.037791 0.352173 -0.247087
C55   C     C_R   0.647367 0.462931 0.852388 -0.212372
C56   C     C_R   0.352852 0.537500 0.147818 -0.217779
N1    N     N_R   0.984708 0.836845 0.514994 -0.158061
N2    N     N_R   0.014956 0.167308 0.485119 -0.161424
N3    N     N_R   0.515772 0.335770 0.985722 -0.157461
N4    N     N_R   0.484939 0.666157 0.014877 -0.162131
N5    N     N_R   0.020861 0.850418 0.482597 -0.203937
N6    N     N_R   0.978877 0.153755 0.517595 -0.240085
N7    N     N_R   0.479628 0.349209 0.018141 -0.205886
N8    N     N_R   0.521019 0.652721 0.982402 -0.239781
C57   C     C_R   0.037081 0.016015 0.467279 0.593023
C58   C     C_R   0.962624 0.988248 0.532835 0.582677
C59   C     C_R   0.463110 0.514768 0.033083 0.589697
C60   C     C_R   0.537559 0.487269 0.967500 0.583265
C61   C     C_2   0.530588 0.222717 0.413029 0.629214
H9    H     H_    0.570995 0.263218 0.417737 0.023436
O21   O     O_2   0.499338 0.265559 0.369619 -0.427042
C62   C     C_2   0.466975 0.798575 0.587734 0.611417
H10   H     H_    0.429846 0.728411 0.577877 0.078545
O22   O     O_2   0.492786 0.794679 0.636760 -0.464453
C63   C     C_2   0.968732 0.727587 0.085335 0.643545
H11   H     H_    0.928574 0.772578 0.079030 0.066434
O23   O     O_2   0.999252 0.768483 0.129503 -0.437494
C64   C     C_2   0.034136 0.301032 0.912472 0.610195
H12   H     H_    0.071280 0.230952 0.922671 0.080907
O24   O     O_2   0.008854 0.298537 0.863183 -0.464570
C65   C     C_2   0.574202 0.830988 0.446850 0.511064
H13   H     H_    0.562326 0.783312 0.402759 0.096802
O25   O     O_2   0.619541 0.815750 0.471536 -0.508001
C66   C     C_2   0.424902 0.192534 0.551262 0.576400
H14   H     H_    0.433217 0.217779 0.597412 0.079406
O26   O     O_2   0.383397 0.241589 0.522129 -0.483734
C67   C     C_2   0.926009 0.332516 0.052849 0.493182
H15   H     H_    0.938814 0.270431 0.094933 0.118328
O27   O     O_2   0.879765 0.334305 0.030839 -0.514317
C68   C     C_2   0.075805 0.693322 0.949023 0.578062
H16   H     H_    0.068093 0.716706 0.902767 0.080388
O28   O     O_2   0.116849 0.744534 0.978604 -0.482820
S1    S     S_3+6 0.551236 0.363304 0.559854 0.056664
O29   O     O_2   0.514773 0.449215 0.593508 -0.284688
O30   O     O_2   0.601364 0.323233 0.601091 -0.343068
O31   O     O_3   0.564380 0.510273 0.510549 -0.474013
H17   H     H_    0.597402 0.466110 0.501033 0.347523
S2    S     S_3+6 0.445164 0.657788 0.441037 0.062042
O32   O     O_2   0.459959 0.488097 0.474984 -0.265763
O33   O     O_2   0.387322 0.681700 0.434619 -0.335272
O34   O     O_3   0.459959 0.634557 0.375328 -0.441293
H18   H     H_    0.447016 0.747181 0.354174 0.336362
S3    S     S_3+6 0.949900 0.864091 0.938165 0.045576
O35   O     O_2   0.988617 0.955233 0.908703 -0.298144
O36   O     O_2   0.902593 0.820330 0.893023 -0.344699
O37   O     O_3   0.931918 0.006491 0.986033 -0.497243
H19   H     H_    0.900261 0.067672 0.964512 0.373983
S4    S     S_3+6 0.054396 0.159604 0.059602 0.058292
O38   O     O_2   0.038032 0.989109 0.026838 -0.266345
O39   O     O_2   0.112212 0.179511 0.064531 -0.333754
O40   O     O_3   0.040796 0.141377 0.126034 -0.446298
H20   H     H_    0.056486 0.250518 0.147203 0.328616
S5    S     S_3+6 0.907662 0.238320 0.716953 0.067197
O41   O     O_2   0.870617 0.396743 0.707188 -0.316741
O42   O     O_2   0.901197 0.138381 0.770682 -0.304001
O43   O     O_3   0.968850 0.319080 0.726303 -0.449727
H21   H     H_    0.991468 0.211772 0.737857 0.369363
S6    S     S_3+6 0.093680 0.754139 0.285540 0.047292
O44   O     O_2   0.039010 0.681830 0.277647 -0.299816
O45   O     O_2   0.100071 0.850152 0.231142 -0.302194
O46   O     O_3   0.135740 0.578951 0.298725 -0.504185
H22   H     H_    0.120078 0.481540 0.271803 0.340775
S7    S     S_3+6 0.592390 0.738834 0.783373 0.066431
O47   O     O_2   0.629480 0.897031 0.793170 -0.317446
O48   O     O_2   0.598770 0.639342 0.729571 -0.302002
O49   O     O_3   0.531227 0.819902 0.774143 -0.450873
H23   H     H_    0.508573 0.712808 0.762521 0.368880
S8    S     S_3+6 0.406930 0.258057 0.215958 0.060536
O50   O     O_2   0.461530 0.184823 0.224478 -0.288761
O51   O     O_2   0.400712 0.357616 0.269770 -0.280124
O52   O     O_3   0.364931 0.082582 0.204689 -0.500892
H24   H     H_    0.370433 0.025778 0.168335 0.329622
S9    S     S_3+6 0.871533 0.693062 0.503223 0.081737
O53   O     O_2   0.817686 0.613523 0.495140 -0.300000
O54   O     O_2   0.877202 0.791861 0.449022 -0.290447
O55   O     O_3   0.915381 0.523308 0.516164 -0.462209
H25   H     H_    0.908274 0.447372 0.480819 0.397952
S10   S     S_3+6 0.125056 0.326278 0.491949 0.072509
O56   O     O_2   0.083938 0.471216 0.477970 -0.288426
O57   O     O_2   0.121018 0.235843 0.548027 -0.291646
O58   O     O_3   0.184081 0.423798 0.498846 -0.488799
H26   H     H_    0.184591 0.520722 0.528121 0.388587
S11   S     S_3+6 0.628719 0.191636 0.996851 0.082592
O59   O     O_2   0.682543 0.111875 0.004760 -0.298837
O60   O     O_2   0.623192 0.289998 0.051139 -0.290183
O61   O     O_3   0.584834 0.022103 0.983940 -0.462504
H27   H     H_    0.592072 0.945618 0.019195 0.397525
S12   S     S_3+6 0.374056 0.820839 0.006680 0.059282
O62   O     O_2   0.414548 0.967947 0.020106 -0.295449
O63   O     O_2   0.378685 0.728448 0.951122 -0.288886
O64   O     O_3   0.314608 0.915683 0.999045 -0.493214
H28   H     H_    0.313736 0.011032 0.969166 0.388955

loop_
_geom_bond_atom_site_label_1
_geom_bond_atom_site_label_2
_ccdc_geom_bond_type
C34   C38   A    
S3    O37   S    
C15   C27   S    
C34   S6    S    
O1    C5    A    
C61   H9    S    
C33   S5    S    
O19   V1    S    
C9    C21   S    
C24   S3    S    
C11   C67   S    
O52   H24   S    
S4    O40   S    
N4    N8    A    
C12   C68   S    
C44   C48   A    
C11   C23   S    
O31   H17   S    
C62   O22   D    
O61   H27   S    
C36   C56   A    
S3    O35   D    
S11   O60   D    
O58   H26   S    
O7    C3    A    
S9    O53   D    
C4    C53   S    
C40   H4    S    
O9    V1    S    
S4    O39   D    
C1    C56   S    
S5    O41   D    
C11   C15   S    
O4    C8    A    
N7    C59   A    
S7    O48   D    
S10   O56   D    
N6    C58   A    
C3    C54   S    
C10   C66   S    
O40   H20   S    
O1    V3    S    
O13   V1    S    
C66   H14   S    
C38   C42   A    
O2    V4    S    
O3    V1    S    
C20   C32   T    
C42   C46   A    
C14   C21   S    
C14   C62   S    
C22   S1    S    
C5    C19   S    
O3    C7    A    
C1    O15   A    
C6    C20   S    
C2    O16   A    
C51   H7    S    
S6    O46   S    
C23   S4    S    
O2    C6    A    
S1    O31   S    
C63   H11   S    
C41   C45   A    
C10   C22   S    
C21   C25   S    
N3    C60   A    
N2    C57   A    
S12   O64   S    
C52   H8    S    
C41   C58   S    
C50   C54   A    
O11   C7    A    
O15   V3    S    
C21   S2    S    
O12   C8    A    
C44   C59   S    
S7    O49   S    
C63   O23   D    
O10   V2    S    
C34   C54   A    
C51   C55   A    
C62   H10   S    
S5    O42   D    
S12   O63   D    
N2    N6    A    
S11   O61   S    
O5    V1    S    
C67   O27   D    
C39   H3    S    
C2    C55   S    
C43   C47   A    
O7    V3    S    
C38   H2    S    
C47   S11   S    
O8    V4    S    
S8    O52   S    
C36   S8    S    
C12   C16   S    
S4    O38   D    
C35   C55   A    
C45   S9    S    
C35   S7    S    
O18   V4    S    
C23   C27   S    
C9    C26   S    
C16   C28   S    
C16   C23   S    
N3    N7    A    
C9    C13   S    
C64   H12   S    
S8    O51   D    
O49   H23   S    
S2    O33   D    
O64   H28   S    
O5    C1    A    
C13   C25   S    
C50   H6    S    
S11   O59   D    
C49   H5    S    
O8    C4    A    
O9    C5    A    
C26   C30   S    
O43   H21   S    
C33   C37   A    
C8    C18   S    
C17   C29   T    
C12   C27   S    
O14   V2    S    
C19   C31   T    
O55   H25   S    
O6    V2    S    
C39   C43   A    
S9    O55   S    
S1    O29   D    
S6    O45   D    
S2    O34   S    
C68   O28   D    
N5    C57   A    
C11   C28   S    
S5    O43   S    
S12   O62   D    
C65   H13   S    
O16   V4    S    
C37   C41   A    
S3    O36   D    
C3    O13   A    
C10   C25   S    
C10   C14   S    
C9    C65   S    
O17   V3    S    
C48   C52   A    
C48   S12   S    
O6    C2    A    
C16   C64   S    
C67   H15   S    
C42   C57   S    
O11   V3    S    
C14   C26   S    
O12   V4    S    
C43   C60   S    
C22   C26   S    
C35   C39   A    
C7    C17   S    
C61   O21   D    
N1    C58   A    
C36   C40   A    
S8    O50   D    
O10   C6    A    
O20   V2    S    
S2    O32   D    
C13   C22   S    
C52   C56   A    
C18   C30   T    
C13   C61   S    
O34   H18   S    
S10   O57   D    
C25   C29   S    
N8    C60   A    
C66   O26   D    
C12   C24   S    
C27   C31   S    
C40   C44   A    
N1    N5    A    
C15   C63   S    
C64   O24   D    
C46   S10   S    
O37   H19   S    
C49   C53   A    
C37   H1    S    
C24   C28   S    
S9    O54   D    
C46   C50   A    
C4    O14   A    
S7    O47   D    
S1    O30   D    
C45   C49   A    
S6    O44   D    
C65   O25   D    
C68   H16   S    
C47   C51   A    
C33   C53   A    
O4    V2    S    
C28   C32   S    
N4    C59   A    
C15   C24   S    
O46   H22   S    
S10   O58   S    
