data_mof_unit_10340.cif
_audit_creation_date              2012-12-11T14:57:54-0500
_audit_creation_method            fapswitch 2.2
_symmetry_space_group_name_H-M    P1
_symmetry_Int_Tables_number       1
_space_group_crystal_system       triclinic
_cell_length_a                    6.93374
_cell_length_b                    16.756209
_cell_length_c                    17.060914
_cell_angle_alpha                 100.522334
_cell_angle_beta                  92.012307
_cell_angle_gamma                 89.168138
_cell_volume                      1947.59047091

loop_
_atom_site_label
_atom_site_type_symbol
_atom_type_description
_atom_site_fract_x
_atom_site_fract_y
_atom_site_fract_z
_atom_type_partial_charge
O1    O     O_R   0.506180 0.438940 0.579430 -0.542153
O2    O     O_R   0.170520 0.406230 0.413590 -0.537942
O3    O     O_R   0.005180 0.561060 0.420570 -0.540192
C1    C     C_R   0.338801 0.382928 0.385457 0.690056
O4    O     O_R   0.176140 0.429310 0.578370 -0.542006
O5    O     O_R   0.010830 0.584300 0.586530 -0.535228
C2    C     C_R   0.349484 0.413850 0.605244 0.695565
O6    O     O_R   0.500520 0.415700 0.413470 -0.533896
O7    O     O_3   0.340830 0.550820 0.502480 -0.367318
V1    V     V_3+5 0.064040 0.490570 0.499540 1.417525
O8    O     O_R   0.681400 0.593770 0.586410 -0.538853
C3    C     C_R   0.851619 0.616596 0.614753 0.697898
O9    O     O_R   0.675790 0.570690 0.421630 -0.545100
C4    C     C_R   0.840418 0.587113 0.395128 0.695052
V2    V     V_3+5 0.564650 0.509430 0.500460 1.417886
O10   O     O_3   0.837730 0.449180 0.497520 -0.365771
C5    C     C_R   0.933407 0.858593 0.165251 -0.056650
C6    C     C_R   0.833049 0.641396 0.334651 -0.073123
C7    C     C_R   0.641270 0.703320 0.237931 -0.194647
C8    C     C_R   0.659578 0.648479 0.290558 -0.160981
C9    C     C_R   0.989768 0.690287 0.323864 -0.237147
C10   C     C_R   0.971189 0.746602 0.271553 0.155871
C11   C     C_R   0.795249 0.753436 0.228401 0.167172
C12   C     C_R   0.776673 0.809733 0.176077 -0.210088
C13   C     C_R   0.106875 0.851532 0.209351 -0.136057
C14   C     C_R   0.125169 0.796720 0.262013 -0.178721
H1    H     H_    0.642588 0.813868 0.142367 0.115852
H2    H     H_    0.230290 0.888412 0.202857 0.132873
H3    H     H_    0.505855 0.706835 0.205017 0.116022
H4    H     H_    0.260583 0.793214 0.294930 0.130885
H5    H     H_    0.536160 0.611592 0.297027 0.128149
H6    H     H_    0.123845 0.686146 0.357577 0.124957
H7    H     H_    0.117000 0.628235 0.967209 0.113421
C15   C     C_R   0.780667 0.909407 0.729150 -0.155971
C16   C     C_R   0.714777 0.923885 0.654892 -0.118672
C17   C     C_R   0.698648 0.860142 0.590358 -0.097780
C18   C     C_R   0.748089 0.781418 0.599611 -0.140928
C19   C     C_R   0.813671 0.764652 0.674505 0.067406
C20   C     C_R   0.830481 0.829972 0.740628 0.071602
C21   C     C_R   0.865924 0.684706 0.683824 -0.184341
C22   C     C_R   0.935072 0.670044 0.759230 0.068746
C23   C     C_R   0.951900 0.735365 0.825350 0.068826
C24   C     C_R   0.899664 0.815311 0.816029 -0.181871
C25   C     C_R   0.984862 0.590608 0.770713 -0.144576
C26   C     C_R   0.050777 0.576133 0.844969 -0.121661
C27   C     C_R   0.066947 0.639880 0.909496 -0.119063
C28   C     C_R   0.017509 0.718603 0.900242 -0.137198
H8    H     H_    0.793410 0.961332 0.777053 0.100022
H9    H     H_    0.677229 0.985022 0.647300 0.123021
H10   H     H_    0.648624 0.871790 0.532642 0.142781
H11   H     H_    0.735485 0.734195 0.547256 0.106468
H12   H     H_    0.972079 0.538679 0.722817 0.103862
H13   H     H_    0.088312 0.514995 0.852563 0.118171
H14   H     H_    0.030137 0.765827 0.952595 0.100400
H15   H     H_    0.088039 0.468068 0.141923 0.144702
C29   C     C_R   0.495805 0.226327 0.404673 -0.238665
C30   C     C_R   0.581188 0.153307 0.415852 -0.195552
C31   C     C_R   0.611969 0.091772 0.350842 0.681147
C32   C     C_R   0.557497 0.102832 0.274131 -0.250928
C33   C     C_R   0.471771 0.176578 0.260655 -0.030713
C34   C     C_R   0.440161 0.239674 0.327457 0.087002
C35   C     C_R   0.415308 0.187405 0.182438 -0.153238
C36   C     C_R   0.328312 0.262391 0.171203 -0.040185
C37   C     C_R   0.294441 0.324903 0.238642 0.005202
C38   C     C_R   0.351313 0.313871 0.316626 -0.126526
C39   C     C_R   0.276720 0.278093 0.093924 0.593193
C40   C     C_R   0.189940 0.351406 0.084337 -0.160515
C41   C     C_R   0.154653 0.411193 0.150080 -0.226833
C42   C     C_R   0.207286 0.398694 0.226293 -0.157975
H16   H     H_    0.472146 0.271732 0.457366 0.129649
H17   H     H_    0.622630 0.144340 0.475422 0.142994
H18   H     H_    0.583460 0.052841 0.225720 0.127413
H19   H     H_    0.151491 0.362267 0.025101 0.142914
H20   H     H_    0.179071 0.447831 0.275251 0.126076
C43   C     C_R   0.386405 0.137708 0.832928 -0.054923
C44   C     C_R   0.379423 0.361826 0.666785 -0.073248
C45   C     C_R   0.598889 0.315055 0.764865 -0.193621
C46   C     C_R   0.553579 0.368524 0.712874 -0.155439
C47   C     C_R   0.248566 0.301058 0.675466 -0.243947
C48   C     C_R   0.294330 0.246399 0.727464 0.156244
C49   C     C_R   0.471431 0.253137 0.772257 0.148198
C50   C     C_R   0.517229 0.198477 0.824239 -0.203655
C51   C     C_R   0.212205 0.131014 0.786880 -0.155515
C52   C     C_R   0.166861 0.184483 0.734880 -0.187471
H21   H     H_    0.650869 0.204957 0.859667 0.132379
H22   H     H_    0.108402 0.084624 0.791848 0.120181
H23   H     H_    0.734794 0.321721 0.798691 0.123508
H24   H     H_    0.030934 0.177821 0.701071 0.121169
H25   H     H_    0.657402 0.414922 0.707955 0.126591
H26   H     H_    0.114927 0.294591 0.640037 0.125920
O11   O     O_R   0.265840 0.084300 0.086750 -0.520659
O12   O     O_R   0.589750 0.070740 0.921690 -0.546475
O13   O     O_R   0.755020 0.915730 0.913400 -0.542022
C53   C     C_R   0.416426 0.085720 0.894489 0.797182
O14   O     O_R   0.595830 0.093740 0.086480 -0.537937
O15   O     O_R   0.761150 0.938890 0.079360 -0.542168
C54   C     C_R   0.427547 0.117394 0.114470 0.825063
O16   O     O_R   0.259710 0.061140 0.920790 -0.524220
O17   O     O_3   0.425260 0.949200 0.997610 -0.383069
V3    V     V_3+5 0.702060 0.009430 0.000450 1.452274
O18   O     O_R   0.090530 0.929220 0.078150 -0.552776
C55   C     C_R   0.925967 0.912839 0.104745 0.687170
O19   O     O_R   0.084440 0.906220 0.913360 -0.544802
C56   C     C_R   0.914145 0.883425 0.885091 0.683988
V4    V     V_3+5 0.201450 0.990520 0.999290 1.458706
O20   O     O_3   0.928380 0.050800 0.002390 -0.356579
F1    F     F_    0.694271 0.020657 0.362138 -0.689697
F2    F     F_    0.314739 0.224657 0.026426 -0.722064

loop_
_geom_bond_atom_site_label_1
_geom_bond_atom_site_label_2
_ccdc_geom_bond_type
O18   C55   A    
O15   C55   A    
C6    C9    A    
C22   C23   A    
C4    C6    S    
O2    C1    A    
C7    C8    A    
C44   C47   A    
C48   C52   A    
H15   C41   S    
C26   C27   A    
C13   H2    S    
C18   C19   A    
O16   V4    S    
C17   C18   A    
C44   C46   A    
C15   C16   A    
O5    C3    A    
C19   C20   A    
C18   H11   S    
C53   O16   A    
V2    O10   S    
C29   C30   A    
C33   C35   A    
C31   F1    S    
O11   V4    S    
C24   C56   S    
C47   H26   S    
O8    V2    S    
C51   C52   A    
C41   C42   A    
C16   H9    S    
C11   C12   A    
C12   H1    S    
C40   H19   S    
O7    V1    S    
C1    O6    A    
C32   H18   S    
C25   H12   S    
C39   C40   A    
C36   C39   A    
C26   H13   S    
C32   C33   A    
O9    C4    A    
H7    C27   S    
O13   C56   A    
C49   C50   A    
C10   C11   A    
C46   H25   S    
O18   V4    S    
O17   V4    S    
C9    H6    S    
C5    C12   A    
C36   C37   A    
C40   C41   A    
O4    C2    A    
O14   V3    S    
C20   C24   A    
C31   C32   A    
C45   C46   A    
O11   C54   A    
C15   C20   A    
C33   C34   A    
C16   C17   A    
C3    C21   S    
C7    C11   A    
C5    C55   S    
C35   C36   A    
C35   C54   S    
O17   V3    S    
C45   C49   A    
O12   C53   A    
C42   H20   S    
O19   V4    S    
C37   C42   A    
C30   H17   S    
O13   V3    S    
O3    C4    A    
C28   H14   S    
O1    V2    S    
C21   C22   A    
C14   H4    S    
O6    V2    S    
C29   H16   S    
O9    V2    S    
C22   C25   A    
C15   H8    S    
C23   C24   A    
O2    V1    S    
C17   H10   S    
C25   C26   A    
O12   V3    S    
C27   C28   A    
O1    C2    A    
C52   H24   S    
C39   F2    S    
C48   C49   A    
O5    V1    S    
O8    C3    A    
O14   C54   A    
C43   C50   A    
C2    C44   S    
C50   H21   S    
V4    O20   S    
V3    O20   S    
C5    C13   A    
C37   C38   A    
C13   C14   A    
O4    V1    S    
O3    V1    S    
V1    O10   S    
C19   C21   A    
C43   C51   A    
C30   C31   A    
C1    C38   S    
O15   V3    S    
C6    C8    A    
C23   C28   A    
O7    V2    S    
C47   C48   A    
C34   C38   A    
C51   H22   S    
C45   H23   S    
C10   C14   A    
O19   C56   A    
C29   C34   A    
C9    C10   A    
C43   C53   S    
C8    H5    S    
C7    H3    S    
