data_mof_unit_22403.cif
_audit_creation_date              2012-12-10T18:59:15-0500
_audit_creation_method            fapswitch 2.2
_symmetry_space_group_name_H-M    P1
_symmetry_Int_Tables_number       1
_space_group_crystal_system       triclinic
_cell_length_a                    10.775072
_cell_length_b                    10.811897
_cell_length_c                    9.560178
_cell_angle_alpha                 90.261643
_cell_angle_beta                  90.193314
_cell_angle_gamma                 90.513053
_cell_volume                      1113.68811927

loop_
_atom_site_label
_atom_site_type_symbol
_atom_type_description
_atom_site_fract_x
_atom_site_fract_y
_atom_site_fract_z
_atom_type_partial_charge
C1    C     C_R   0.502466 0.262374 0.499786 0.799498
C2    C     C_R   0.064845 0.394962 0.577316 0.106248
C3    C     C_R   0.128766 0.486379 0.499362 -0.084752
C4    C     C_R   0.064356 0.571722 0.418463 -0.180025
C5    C     C_R   0.936399 0.572032 0.418924 -0.206637
C6    C     C_R   0.870940 0.487004 0.500298 -0.098164
C7    C     C_R   0.522516 0.064420 0.624919 0.103279
C8    C     C_R   0.515808 0.129430 0.499296 -0.095782
C9    C     C_R   0.528290 0.064165 0.372686 -0.176790
C10   C     C_R   0.528623 0.935260 0.372908 -0.221809
C11   C     C_R   0.516349 0.870870 0.499761 -0.096413
C12   C     C_R   0.262603 0.495407 0.499840 0.807576
C13   C     C_R   0.522793 0.937181 0.625148 0.115987
C14   C     C_3   0.442935 0.930239 0.752323 -0.448552
C15   C     C_3   0.442591 0.070738 0.752114 -0.450664
C16   C     C_R   0.566075 0.587438 0.074340 0.184665
C17   C     C_R   0.424612 0.421879 0.072155 0.437220
C18   C     C_R   0.425373 0.422003 0.923838 -0.119589
C19   C     C_R   0.565962 0.587476 0.927133 0.236128
C20   C     C_3   0.702606 0.609884 0.921805 -0.471577
C21   C     C_3   0.702772 0.609715 0.080584 -0.489482
C22   C     C_R   0.502843 0.737662 0.500132 0.795378
C23   C     C_R   0.737316 0.495791 0.500169 0.778516
C24   C     C_R   0.128027 0.300853 0.650317 -0.165621
C25   C     C_R   0.062545 0.210819 0.724319 -0.120725
C26   C     C_R   0.933490 0.211167 0.724911 -0.127875
C27   C     C_R   0.869128 0.301563 0.651572 -0.190977
C28   C     C_R   0.933587 0.395313 0.577892 0.092722
Cu1   Cu    Cu3+1 0.499990 0.499980 0.640670 0.936613
Cu2   Cu    Cu3+1 0.500010 0.500020 0.359330 0.990531
H1    H     H_    0.113577 0.640522 0.357306 0.152303
H2    H     H_    0.493163 0.890762 0.843322 0.194878
H3    H     H_    0.349704 0.110216 0.730265 0.191054
H4    H     H_    0.492478 0.112330 0.843058 0.205853
H5    H     H_    0.366962 0.357403 0.866499 0.165931
H6    H     H_    0.754219 0.530803 0.876349 0.225395
H7    H     H_    0.725900 0.701710 0.876591 0.190806
H8    H     H_    0.754448 0.530500 0.125158 0.227192
H9    H     H_    0.726312 0.701405 0.127112 0.188732
H10   H     H_    0.227951 0.294048 0.648725 0.135487
H11   H     H_    0.112116 0.139419 0.779801 0.139263
H12   H     H_    0.882930 0.140021 0.780793 0.135912
H13   H     H_    0.769003 0.295211 0.651259 0.149638
H14   H     H_    0.888057 0.640976 0.357949 0.146774
H15   H     H_    0.531339 0.111826 0.273335 0.189298
H16   H     H_    0.531921 0.886748 0.273618 0.165793
H17   H     H_    0.350222 0.888242 0.730538 0.201055
N1    N     N_R   0.500790 0.500930 0.147930 -0.217384
N2    N     N_R   0.500790 0.500890 0.852020 -0.210375
O1    O     O_R   0.500000 0.319640 0.618810 -0.603084
O2    O     O_R   0.500010 0.319680 0.381230 -0.533068
O3    O     O_R   0.319640 0.499980 0.618820 -0.592999
O4    O     O_R   0.319650 0.500020 0.381230 -0.523434
O5    O     O_R   0.499990 0.680320 0.618770 -0.574287
O6    O     O_R   0.500000 0.680360 0.381190 -0.587243
O7    O     O_R   0.680350 0.499980 0.618770 -0.589338
O8    O     O_R   0.680360 0.500020 0.381180 -0.583038
Cl1   Cl    Cl    0.324270 0.315925 0.153713 -0.630042

loop_
_geom_bond_atom_site_label_1
_geom_bond_atom_site_label_2
_ccdc_geom_bond_type
C10   H16   S    
Cu2   O2    S    
C9    H15   S    
C16   C21   S    
Cu1   O7    S    
C1    C8    S    
C11   C13   A    
Cu2   O6    S    
C19   N2    A    
C11   C22   S    
C12   O4    A    
C21   H9    S    
C17   N1    A    
C17   Cl1   S    
Cu1   O5    S    
C16   N1    A    
C7    C15   S    
C17   C18   A    
C22   O6    A    
C23   O7    A    
C22   O5    A    
Cu1   N2    S    
C13   C14   S    
C20   C21   S    
C20   H7    S    
C1    O2    A    
C26   C27   A    
C14   H17   S    
C16   C19   A    
C6    C23   S    
C18   H5    S    
Cu2   N1    S    
C12   O3    A    
C5    H14   S    
C1    O1    A    
C2    C3    A    
Cu1   O1    S    
C2    C24   A    
C5    C6    A    
Cu2   O4    S    
C4    H1    S    
C7    C8    A    
C10   C11   A    
Cu1   Cu2   S    
C3    C4    A    
C20   H6    S    
Cu2   O8    S    
C27   H13   S    
C7    C13   A    
C24   C25   A    
C26   H12   S    
C9    C10   A    
C25   H11   S    
C27   C28   A    
C23   O8    A    
C14   C15   S    
C4    C5    A    
C2    C28   A    
C3    C12   S    
C15   H4    S    
C24   H10   S    
C25   C26   A    
C15   H3    S    
C6    C28   A    
C21   H8    S    
C19   C20   S    
C18   N2    A    
C14   H2    S    
C8    C9    A    
Cu1   O3    S    
