data_mof_unit_7270.cif
_audit_creation_date              2013-03-05T15:48:35-0500
_audit_creation_method            fapswitch 2.2
_symmetry_space_group_name_H-M    P1
_symmetry_Int_Tables_number       1
_space_group_crystal_system       triclinic
_cell_length_a                    8.31186
_cell_length_b                    18.806666
_cell_length_c                    18.99727
_cell_angle_alpha                 98.783129
_cell_angle_beta                  94.219507
_cell_angle_gamma                 91.284532
_cell_volume                      2925.13734363

loop_
_atom_site_label
_atom_site_type_symbol
_atom_site_description
_atom_site_fract_x
_atom_site_fract_y
_atom_site_fract_z
_atom_type_partial_charge
P1    P     P_3+3 0.947550 0.663200 0.567530 0.501097
O1    O     O_2   0.118870 0.674530 0.547560 -0.379644
O2    O     O_3   0.870460 0.585330 0.542110 -0.401663
O3    O     O_3   0.354280 0.631750 0.418430 -0.391153
O4    O     O_2   0.229428 0.759491 0.457679 -0.435373
O5    O     O_3   0.972896 0.673856 0.660853 -0.515818
O6    O     O_3   0.356580 0.743336 0.333452 -0.512084
H1    H     H_    0.208130 0.654788 0.298110 0.137047
C1    C     C_3   0.313777 0.691969 0.209281 -0.885718
H2    H     H_    0.273485 0.641487 0.173455 0.223525
H3    H     H_    0.227099 0.734182 0.200525 0.260806
P2    P     P_3+3 0.354660 0.445020 0.336980 0.474257
P3    P     P_3+3 0.906979 0.590695 0.286451 0.441396
O7    O     O_2   0.180880 0.466650 0.327890 -0.339879
O8    O     O_3   0.939000 0.596010 0.380670 -0.387156
O9    O     O_2   0.039036 0.543745 0.251912 -0.425697
O10   O     O_3   0.297209 0.353107 0.322698 -0.570027
O11   O     O_3   0.941869 0.674511 0.257563 -0.593122
C2    C     C_3   0.912413 0.733357 0.310366 0.732921
H4    H     H_    0.970775 0.726106 0.363246 0.053311
C3    C     C_3   0.986291 0.803640 0.291987 -0.737480
H5    H     H_    0.119028 0.803737 0.298595 0.219709
C4    C     C_3   0.832228 0.386439 0.309742 0.473967
H6    H     H_    0.707124 0.403397 0.309062 -0.038322
H7    H     H_    0.909900 0.430960 0.339333 0.147628
C5    C     C_3   0.881358 0.371453 0.233363 -0.862131
H8    H     H_    0.807487 0.325734 0.202440 0.256679
H9    H     H_    0.863783 0.419395 0.206670 0.209164
H10   H     H_    0.010396 0.357442 0.233365 0.280630
Ba1   Ba    Ba6+2 0.152460 0.535140 0.468980 1.593229
C6    C     C_3   0.023896 0.609023 0.681601 0.348038
H11   H     H_    0.136160 0.593161 0.656750 0.091931
H12   H     H_    0.931110 0.565082 0.665296 0.135458
C7    C     C_3   0.054294 0.618939 0.762562 -0.682944
H13   H     H_    0.091324 0.675437 0.784848 0.282338
H14   H     H_    0.151040 0.583767 0.777796 0.217212
H15   H     H_    0.944764 0.603276 0.787105 0.271496
C8    C     C_3   0.425133 0.306972 0.311553 0.814884
H16   H     H_    0.533481 0.328533 0.345106 0.046750
C9    C     C_3   0.460936 0.295382 0.232915 -1.008034
H17   H     H_    0.348389 0.280506 0.197981 0.277655
H18   H     H_    0.548361 0.252045 0.222496 0.290301
H19   H     H_    0.514816 0.344901 0.218753 0.201688
P4    P     P_3+3 0.862750 0.336790 0.432410 0.535971
O12   O     O_2   0.691430 0.325420 0.452420 -0.355718
O13   O     O_3   0.939830 0.414660 0.457830 -0.416157
O14   O     O_3   0.456020 0.368240 0.581510 -0.352177
O15   O     O_3   0.840843 0.322404 0.338669 -0.510675
P5    P     P_3+3 0.890646 0.398126 0.710332 0.474934
O16   O     O_3   0.374170 0.535780 0.585810 -0.389561
O17   O     O_3   0.871300 0.403980 0.619270 -0.396011
O18   O     O_2   0.765117 0.447381 0.747256 -0.373374
O19   O     O_3   0.832778 0.310908 0.721538 -0.487863
Ba2   Ba    Ba6+2 0.657710 0.464850 0.530960 1.626062
P6    P     P_3+3 0.376139 0.725040 0.421514 0.477985
C10   C     C_3   0.322137 0.678585 0.286383 0.529349
H20   H     H_    0.413839 0.638051 0.291954 0.114488
H21   H     H_    0.434852 0.709041 0.195586 0.278082
O20   O     O_3   0.436130 0.464210 0.414140 -0.376493
C11   C     C_3   0.480179 0.690919 0.707587 0.815857
C12   C     C_3   0.389091 0.755605 0.742047 -0.928681
H22   H     H_    0.399742 0.758851 0.801115 0.292458
H23   H     H_    0.438729 0.806792 0.728491 0.228696
H24   H     H_    0.258911 0.750413 0.723317 0.236631
P7    P     P_3+3 0.443853 0.544205 0.677125 0.465876
O21   O     O_2   0.629420 0.533310 0.672080 -0.351919
O22   O     O_3   0.412955 0.628960 0.728974 -0.614913
H25   H     H_    0.948965 0.850489 0.329591 0.200404
C13   C     C_3   0.907927 0.261712 0.671933 0.546917
H26   H     H_    0.836209 0.254524 0.619589 0.126118
H27   H     H_    0.032951 0.279267 0.664078 -0.067339
C14   C     C_3   0.916510 0.189634 0.698692 -0.997936
H28   H     H_    0.966805 0.149078 0.658158 0.222350
H29   H     H_    0.995842 0.195193 0.749025 0.253815
H30   H     H_    0.794190 0.170854 0.709091 0.286412
P8    P     P_3+3 0.441567 0.275451 0.575516 0.500154
C15   C     C_3   0.367897 0.264494 0.702462 0.364018
H31   H     H_    0.281143 0.218322 0.684924 0.050399
O23   O     O_2   0.579793 0.246091 0.530515 -0.355507
O24   O     O_3   0.501365 0.257692 0.661213 -0.490332
H32   H     H_    0.307375 0.315780 0.698774 0.070683
H33   H     H_    0.319171 0.268796 0.813179 0.200084
C16   C     C_3   0.424568 0.264271 0.780268 -0.891540
H34   H     H_    0.510150 0.310583 0.799429 0.275440
H35   H     H_    0.485801 0.213405 0.786238 0.260715
C17   C     C_R   0.991202 0.952717 0.543475 0.053033
C18   C     C_R   0.073825 0.904543 0.582676 -0.205779
C19   C     C_R   0.216822 0.042414 0.562342 -0.249668
C20   C     C_R   0.056275 0.022571 0.538733 0.056075
C21   C     C_R   0.283975 0.109824 0.557943 -0.016854
C22   C     C_R   0.187910 0.163707 0.531952 -0.029250
C23   C     C_R   0.029441 0.142234 0.500545 -0.011785
C24   C     C_R   0.964850 0.071286 0.503504 0.045924
C25   C     C_R   0.241302 0.236901 0.534174 0.163031
C26   C     C_R   0.137167 0.285788 0.506289 -0.397073
C27   C     C_R   0.987597 0.264321 0.469204 0.264511
C28   C     C_R   0.939373 0.189529 0.461697 -0.175375
C29   C     C_R   0.837965 0.930159 0.508878 0.046353
C30   C     C_R   0.779312 0.857798 0.507608 -0.014949
C31   C     C_R   0.876021 0.807963 0.539607 -0.034832
C32   C     C_R   0.018416 0.833832 0.580081 -0.025831
H36   H     H_    0.176301 0.341699 0.511186 0.169520
H37   H     H_    0.089617 0.799903 0.610337 0.151904
C33   C     C_R   0.812091 0.157904 0.412709 0.421882
C34   C     C_R   0.739839 0.092162 0.422073 -0.235649
C35   C     C_R   0.811542 0.048479 0.468828 -0.025706
C36   C     C_R   0.744631 0.978871 0.474211 0.072251
C37   C     C_R   0.586203 0.956300 0.446426 -0.193057
C38   C     C_R   0.624780 0.835205 0.473891 -0.033566
C39   C     C_R   0.527907 0.886139 0.446240 -0.060514
C40   C     C_R   0.573751 0.761992 0.467573 0.290135
C41   C     C_R   0.681771 0.712288 0.490637 -0.401683
C42   C     C_R   0.827557 0.733968 0.529818 0.225049
H38   H     H_    0.406671 0.872166 0.422862 0.168658
H39   H     H_    0.648008 0.655521 0.480386 0.182518
H40   H     H_    0.297731 0.003904 0.580843 0.132397
H41   H     H_    0.182048 0.920007 0.616910 0.127334
H42   H     H_    0.640552 0.070968 0.384416 0.188124
H43   H     H_    0.503265 0.992522 0.425225 0.146697
C43   C     C_R   0.606158 0.526392 0.297092 -0.428705
C44   C     C_R   0.463734 0.486972 0.271923 0.206339
C45   C     C_R   0.418149 0.474290 0.198282 -0.279193
C46   C     C_R   0.518371 0.499371 0.149862 0.058349
C47   C     C_R   0.664397 0.536992 0.176189 -0.282423
C48   C     C_R   0.709440 0.549071 0.249850 0.328801
C49   C     C_R   0.419165 0.546087 0.039554 -0.275926
C50   C     C_R   0.360540 0.536999 0.967388 0.376635
C51   C     C_R   0.356398 0.468007 0.925432 -0.030410
C52   C     C_R   0.410866 0.409449 0.957202 -0.247362
C53   C     C_R   0.467005 0.418503 0.029732 0.051525
C54   C     C_R   0.469212 0.487305 0.071925 0.045656
C55   C     C_R   0.148389 0.427560 0.821194 -0.077993
C56   C     C_R   0.097854 0.425219 0.748162 0.168094
C57   C     C_R   0.354285 0.479537 0.727523 0.337126
C58   C     C_R   0.404669 0.482915 0.800179 -0.197035
C59   C     C_R   0.303425 0.457104 0.847607 0.008516
C60   C     C_R   0.203359 0.448955 0.701853 -0.541635
H44   H     H_    0.517393 0.511027 0.821069 0.181743
H45   H     H_    0.420552 0.599109 0.071255 0.176336
H46   H     H_    0.307653 0.443704 0.178711 0.162827
H47   H     H_    0.411031 0.356638 0.925093 0.153647
H48   H     H_    0.743928 0.555372 0.139515 0.170918
H49   H     H_    0.161927 0.450279 0.646727 0.166201
H50   H     H_    0.642237 0.535509 0.353758 0.169509
N1    N     N_R   0.376622 0.238146 0.331673 0.255053
O25   O     O_R   0.260658 0.198552 0.294329 -0.310711
O26   O     O_R   0.432760 0.220736 0.392142 -0.390403
N2    N     N_R   0.650611 0.701172 0.732822 0.234575
O27   O     O_R   0.734166 0.754137 0.714995 -0.418780
O28   O     O_R   0.702202 0.673977 0.788939 -0.352219
C61   C     C_1   0.456871 0.687993 0.630851 -0.017312
N3    N     N_1   0.433074 0.683779 0.570165 -0.016018
C62   C     C_1   0.455977 0.115638 0.575897 0.178401
N4    N     N_1   0.593821 0.117702 0.590552 -0.063318
N5    N     N_R   0.792888 0.177696 0.342585 0.247119
O29   O     O_R   0.922322 0.189006 0.310754 -0.311458
O30   O     O_R   0.659594 0.160395 0.302806 -0.377103
N6    N     N_R   0.739342 0.739301 0.315979 0.206080
O31   O     O_R   0.660879 0.794696 0.300271 -0.403046
O32   O     O_R   0.662753 0.687900 0.338694 -0.499662
N7    N     N_R   0.297018 0.597518 0.938637 0.235442
O33   O     O_R   0.375002 0.659443 0.952147 -0.355966
O34   O     O_R   0.147074 0.594842 0.913290 -0.405606
C63   C     C_1   0.529073 0.356942 0.058258 0.079130
N8    N     N_1   0.579683 0.307150 0.080170 -0.062990
C64   C     C_1   0.039421 0.403352 0.869185 0.179091
N9    N     N_1   0.952119 0.383991 0.907612 -0.063777
C65   C     C_1   0.937814 0.814056 0.218335 0.379828
N10   N     N_1   0.899681 0.822197 0.160364 -0.036289

loop_
_geom_bond_atom_site_label_1
_geom_bond_atom_site_label_2
_geom_bond_distance
_ccdc_geom_bond_type
C58   H44   1.083457 S    
C56   C60   1.399346 A    
C49   C50   1.404495 A    
N5    O30   1.299984 A    
C7    H15   1.106970 S    
C19   C21   1.390409 A    
C40   C41   1.405956 A    
C43   H50   1.082591 S    
P8    O23   1.544207 D    
O6    P6    1.755516 S    
O19   C13   1.407287 S    
C51   C52   1.402570 A    
H1    C10   1.091048 S    
C57   C60   1.390783 A    
N1    O25   1.301036 A    
C58   C59   1.407992 A    
C15   H31   1.110497 S    
P4    O12   1.519472 D    
Ba1   Ba2   4.581371 S    
C5    H8    1.109236 S    
O16   Ba2   2.915011 S    
C3    C65   1.470617 S    
P3    O11   1.771196 S    
C16   H34   1.111048 S    
P1    Ba1   3.388563 S    
C63   N8    1.156733 T    
C2    C3    1.543444 S    
C55   C64   1.445203 S    
O14   P8    1.732191 S    
C18   H41   1.077556 S    
C13   H26   1.109306 S    
C51   C59   1.493104 S    
C8    H16   1.096338 S    
C7    H13   1.109833 S    
O2    Ba2   2.815058 S    
C52   H47   1.083362 S    
C35   C36   1.431828 A    
C15   C16   1.518620 S    
C30   C38   1.418447 A    
C10   H20   1.100950 S    
C13   H27   1.110694 S    
P1    O1    1.519095 D    
C4    C5    1.522839 S    
C12   H23   1.112116 S    
C41   C42   1.393216 A    
N1    O26   1.299002 A    
C18   C32   1.390018 A    
P2    O20   1.555274 S    
C9    H19   1.102630 S    
P2    C44   1.844581 S    
C26   C27   1.402378 A    
C11   O22   1.408487 S    
C55   C56   1.413521 A    
P7    O22   1.775670 S    
P2    O10   1.757927 S    
C61   N3    1.145566 T    
C6    H12   1.109831 S    
C1    H2    1.109782 S    
C39   H38   1.080910 S    
P7    C57   1.835733 S    
C26   H36   1.081869 S    
P3    C48   1.843993 S    
C9    H18   1.109021 S    
O5    C6    1.402536 S    
Ba1   O16   2.776880 S    
C50   N7    1.430680 S    
C3    H5    1.101131 S    
Ba1   O20   2.915858 S    
N6    O32   1.290794 A    
C37   H43   1.079572 S    
C47   H48   1.083039 S    
C25   C26   1.411407 A    
P1    C42   1.877463 S    
O6    C10   1.406642 S    
O7    Ba1   2.819848 S    
C14   H30   1.110055 S    
C33   C34   1.403766 A    
N7    O34   1.299678 A    
P4    O13   1.576322 S    
C23   C28   1.430122 A    
N7    O33   1.301050 A    
Ba2   O20   2.776088 S    
C49   H45   1.082686 S    
C46   C54   1.488230 S    
P1    O5    1.749940 S    
C46   C47   1.409965 A    
N2    O27   1.302236 A    
C14   H29   1.110682 S    
C22   C23   1.428609 A    
C43   C48   1.392184 A    
O11   C2    1.414293 S    
P5    O17   1.746046 S    
P2    Ba1   3.381623 S    
C20   C24   1.417164 A    
C29   C36   1.419757 A    
C11   C12   1.533873 S    
P1    O2    1.576352 S    
C11   C61   1.448838 S    
C19   H40   1.079405 S    
O2    Ba1   2.914279 S    
C8    N1    1.460974 S    
P4    C27   1.915864 S    
C24   C35   1.416818 A    
C30   C31   1.424760 A    
C15   H32   1.107016 S    
C55   C59   1.417284 A    
P5    O18   1.546405 D    
C27   C28   1.436854 A    
O13   Ba2   2.915125 S    
C6    C7    1.522249 S    
C1    C10   1.520526 S    
C21   C62   1.442935 S    
C1    H3    1.106939 S    
C44   C45   1.404862 A    
O14   Ba2   2.768923 S    
C9    H17   1.110859 S    
C16   H35   1.110625 S    
P2    O7    1.514194 D    
O12   Ba2   2.842610 S    
H33   C16   1.110536 S    
P3    O8    1.777255 S    
O3    P6    1.751392 S    
C64   N9    1.157287 T    
C34   H42   1.078428 S    
P7    O21   1.568470 D    
C36   C37   1.413173 A    
C50   C51   1.413545 A    
C13   C14   1.520020 S    
C43   C44   1.395975 A    
O8    Ba1   2.740895 S    
C52   C53   1.405505 A    
C15   O24   1.401704 S    
C53   C63   1.441352 S    
P5    C56   1.846354 S    
C65   N10   1.157158 T    
C4    O15   1.399142 S    
P6    C40   1.870317 S    
C17   C18   1.416230 A    
C2    N6    1.455822 S    
O4    P6    1.549714 D    
C6    H11   1.103130 S    
C31   C42   1.420647 A    
P8    O24   1.750262 S    
N2    O28   1.300396 A    
C14   H28   1.109860 S    
C17   C20   1.427589 A    
C57   C58   1.404101 A    
Ba2   O21   2.819997 S    
P8    C25   1.868925 S    
C34   C35   1.409229 A    
C5    H9    1.107280 S    
Ba1   O13   2.814457 S    
O1    Ba1   2.842100 S    
O17   Ba2   2.741554 S    
C2    H4    1.111836 S    
C38   C40   1.416323 A    
C53   C54   1.413195 A    
C45   C46   1.410744 A    
C45   H46   1.083219 S    
C3    H25   1.111539 S    
C38   C39   1.402811 A    
C12   H24   1.111278 S    
C8    C9    1.528644 S    
C21   C22   1.428054 A    
N6    O31   1.302493 A    
C49   C54   1.401406 A    
P5    O19   1.747430 S    
C23   C24   1.437696 A    
C37   C39   1.394820 A    
C7    H14   1.102728 S    
O10   C8    1.395213 S    
C4    H7    1.101128 S    
C33   N5    1.435797 S    
C60   H49   1.082213 S    
C12   H22   1.111282 S    
C17   C29   1.414800 A    
O16   P7    1.770298 S    
C28   C33   1.413131 A    
C4    H6    1.094215 S    
P4    Ba2   3.389169 S    
C19   C20   1.399871 A    
C1    H21   1.110444 S    
C5    H10   1.110165 S    
C32   H37   1.080130 S    
C29   C30   1.431332 A    
P3    O9    1.545140 D    
N5    O29   1.301183 A    
C31   C32   1.398134 A    
C11   N2    1.460612 S    
C62   N4    1.157362 T    
C41   H39   1.082353 S    
O3    Ba1   2.769590 S    
P4    O15   1.755166 S    
C47   C48   1.404266 A    
C22   C25   1.430263 A    
