data_mof_unit_65804.cif
_audit_creation_date              2012-12-10T19:57:54-0500
_audit_creation_method            fapswitch 2.2
_symmetry_space_group_name_H-M    P1
_symmetry_Int_Tables_number       1
_space_group_crystal_system       triclinic
_cell_length_a                    38.875595
_cell_length_b                    32.108605
_cell_length_c                    21.744436
_cell_angle_alpha                 90.000278
_cell_angle_beta                  124.365543
_cell_angle_gamma                 89.996277
_cell_volume                      22404.6953452

loop_
_atom_site_label
_atom_site_type_symbol
_atom_type_description
_atom_site_fract_x
_atom_site_fract_y
_atom_site_fract_z
_atom_type_partial_charge
C1    C     C_R   0.419318 0.499999 0.419199 0.885905
C2    C     C_R   0.706623 0.500428 0.705164 -0.023105
C3    C     C_2   0.001936 0.987252 0.185865 -0.494983
C4    C     C_2   0.527328 0.469730 0.744151 0.410285
C5    C     C_2   0.472666 0.469746 0.255844 0.410635
C6    C     C_2   0.027184 0.969526 0.744030 0.412397
C7    C     C_2   0.972830 0.969517 0.255983 0.412565
C8    C     C_2   0.510659 0.502299 0.696000 -0.347235
C9    C     C_2   0.489358 0.502301 0.304016 -0.346845
C10   C     C_2   0.010865 0.002259 0.696186 -0.348719
C11   C     C_2   0.989125 0.002258 0.303805 -0.348417
C12   C     C_R   0.228056 0.481852 0.181214 -0.256089
C13   C     C_R   0.793374 0.000727 0.294486 -0.023026
C14   C     C_R   0.771956 0.486933 0.822327 -0.256601
C15   C     C_R   0.728072 0.978495 0.184404 -0.256673
C16   C     C_R   0.271944 0.981944 0.818875 -0.256782
C17   C     C_R   0.206607 0.500205 0.208486 -0.026766
C18   C     C_R   0.793392 0.499990 0.791454 -0.027060
C19   C     C_R   0.706608 0.000359 0.208392 -0.026263
C20   C     C_R   0.293392 0.000212 0.791534 -0.026264
C21   C     C_R   0.228386 0.518420 0.279676 0.421875
C22   C     C_R   0.771598 0.512817 0.716685 0.422252
C23   C     C_R   0.728371 0.022150 0.276303 0.424733
C24   C     C_R   0.206625 0.000608 0.705353 -0.022723
C25   C     C_R   0.271612 0.018339 0.720271 0.425136
C26   C     C_3   0.562621 0.417479 0.895988 -0.267744
C27   C     C_3   0.437357 0.417504 0.103997 -0.267621
C28   C     C_3   0.061514 0.916688 0.894909 -0.240556
C29   C     C_3   0.938524 0.916678 0.105112 -0.240545
C30   C     C_3   0.933100 0.695142 0.035053 -0.238886
C31   C     C_3   0.066940 0.695133 0.965012 -0.238179
C32   C     C_3   0.422097 0.195803 0.005713 -0.244648
C33   C     C_3   0.577905 0.195857 0.994298 -0.243657
C34   C     C_3   0.492998 0.698946 0.849585 -0.269228
C35   C     C_R   0.271395 0.481803 0.224460 -0.263318
C36   C     C_3   0.506988 0.698942 0.150403 -0.269774
C37   C     C_3   0.002035 0.198923 0.858377 -0.268278
C38   C     C_3   0.997949 0.198924 0.141608 -0.268722
C39   C     C_1   0.966858 0.293733 0.863255 0.263762
C40   C     C_1   0.033124 0.293725 0.136731 0.263887
C41   C     C_1   0.460478 0.793729 0.861820 0.262876
C42   C     C_1   0.539507 0.793722 0.138170 0.262859
C43   C     C_3   0.580824 0.437842 0.748546 -0.247716
C44   C     C_3   0.419136 0.437924 0.251418 -0.248267
C45   C     C_3   0.080343 0.937023 0.748186 -0.242388
C46   C     C_R   0.728619 0.486881 0.779079 -0.263794
C47   C     C_3   0.919707 0.936959 0.251859 -0.242596
C48   C     C_1   0.505847 0.543121 0.719620 0.145546
C49   C     C_1   0.494207 0.543117 0.280429 0.144606
C50   C     C_1   0.006546 0.043151 0.720252 0.146225
C51   C     C_1   0.993413 0.043154 0.279711 0.145674
C52   C     C_3   0.202656 0.507724 0.349367 -0.238577
C53   C     C_3   0.797371 0.492269 0.650636 -0.237704
C54   C     C_3   0.702657 0.018623 0.347178 -0.240204
C55   C     C_3   0.297344 0.007466 0.650624 -0.240548
C56   C     C_3   0.298610 0.580814 0.383932 -0.246866
C57   C     C_R   0.771410 0.978447 0.227651 -0.261974
C58   C     C_3   0.701295 0.570886 0.598520 -0.246818
C59   C     C_3   0.798539 0.086707 0.370150 -0.239512
C60   C     C_3   0.201378 0.080666 0.615764 -0.240085
C61   C     C_3   0.425718 0.310388 0.008591 -0.275086
C62   C     C_3   0.574324 0.310451 0.991666 -0.275131
C63   C     C_3   0.932934 0.809709 0.028880 -0.291500
C64   C     C_3   0.067089 0.809707 0.971149 -0.291376
C65   C     C_R   0.228606 0.981892 0.775624 -0.262219
C66   C     C_1   0.162146 0.500069 0.163168 0.035539
C67   C     C_1   0.837853 0.499964 0.836808 0.035460
C68   C     C_1   0.662147 0.000144 0.163125 0.037672
C69   C     C_R   0.580682 0.499996 0.580803 0.885820
C70   C     C_1   0.337853 0.000075 0.836846 0.037767
C71   C     C_1   0.337822 0.500181 0.338260 0.033575
C72   C     C_1   0.662177 0.500104 0.661650 0.033496
C73   C     C_1   0.837822 0.000229 0.338181 0.034098
C74   C     C_1   0.162178 0.000176 0.661740 0.034123
C75   C     C_1   0.375105 0.500019 0.375148 -0.181717
C76   C     C_1   0.624895 0.499996 0.624815 -0.181773
C77   C     C_1   0.875104 0.000030 0.375117 -0.180222
C78   C     C_1   0.124895 0.000013 0.624852 -0.180257
C79   C     C_1   0.124854 0.500002 0.125389 -0.175671
C80   C     C_R   0.919318 0.000000 0.419198 0.884755
C81   C     C_1   0.875145 0.499961 0.874605 -0.175595
C82   C     C_1   0.624855 0.000033 0.125379 -0.173739
C83   C     C_1   0.375145 0.000006 0.874615 -0.173633
C84   C     C_R   0.500001 0.419340 0.000003 0.851588
C85   C     C_R   0.000001 0.919344 0.000000 0.856378
C86   C     C_R   0.499742 0.496473 0.880794 0.987656
C87   C     C_R   0.500259 0.496470 0.119205 0.987573
C88   C     C_R   0.999735 0.996504 0.880783 0.989125
C89   C     C_R   0.000265 0.996507 0.119218 0.989029
C90   C     C_R   0.499998 0.580647 0.999998 0.903437
C91   C     C_R   0.080682 0.999997 0.580804 0.884855
C92   C     C_R   0.999999 0.080646 0.999998 0.905850
C93   C     C_R   0.502477 0.500238 0.621899 0.947412
C94   C     C_R   0.497528 0.500239 0.378106 0.947293
C95   C     C_R   0.002545 0.000232 0.621964 0.946236
C96   C     C_R   0.997453 0.000232 0.378034 0.946220
C97   C     C_R   1.000000 0.419451 1.000000 0.899471
C98   C     C_R   0.500000 0.919450 1.000000 0.900642
C99   C     C_R   0.080629 0.499973 0.080753 0.898792
C100  C     C_R   0.919371 0.499977 0.919246 0.898181
C101  C     C_R   0.580629 0.999973 0.080753 0.903782
C102  C     C_R   0.272138 0.519950 0.322015 0.426909
C103  C     C_R   0.419371 0.999975 0.919247 0.903408
C104  C     C_R   0.000001 0.580655 0.000001 0.892776
C105  C     C_R   0.500001 0.080650 0.000001 0.903696
C106  C     C_R   0.985769 0.728156 0.037824 0.391719
C107  C     C_R   0.014265 0.728154 0.962221 0.391538
C108  C     C_R   0.463022 0.228122 0.976230 0.391664
C109  C     C_R   0.537002 0.228119 0.023884 0.391630
C110  C     C_R   0.000016 0.706592 0.000021 -0.271730
C111  C     C_R   0.500011 0.206559 0.000043 -0.269993
C112  C     C_R   0.537029 0.271741 0.023482 0.399177
C113  C     C_R   0.727844 0.514462 0.673963 0.426765
C114  C     C_R   0.463000 0.271745 0.976678 0.399210
C115  C     C_R   0.014708 0.771787 0.962801 0.400573
C116  C     C_R   0.985322 0.771790 0.037238 0.400606
C117  C     C_R   0.500013 0.293451 0.000077 -0.264951
C118  C     C_R   0.000013 0.793474 0.000017 -0.260886
C119  C     C_1   0.000012 0.662078 0.000014 0.139890
C120  C     C_1   0.500009 0.162057 0.000021 0.139728
C121  C     C_1   0.500009 0.337940 0.000051 0.127110
C122  C     C_1   0.000009 0.837956 0.000010 0.127468
C123  C     C_1   0.500005 0.375197 0.000026 -0.209376
C124  C     C_R   0.772122 0.023567 0.318401 0.424787
C125  C     C_1   0.000005 0.875209 0.000005 -0.213707
C126  C     C_2   0.530302 0.471092 0.814898 0.476347
C127  C     C_2   0.469694 0.471104 0.185099 0.476384
C128  C     C_2   0.030102 0.970852 0.814736 0.472279
C129  C     C_2   0.969909 0.970846 0.185274 0.472267
C130  C     C_1   0.000007 0.624823 0.000008 -0.177415
C131  C     C_1   0.500005 0.124808 0.000008 -0.178752
C132  C     C_R   0.984168 0.271642 0.932862 -0.123638
C133  C     C_R   0.015813 0.271638 0.067121 -0.123674
C134  C     C_R   0.481013 0.771642 0.932073 -0.123190
C135  C     C_R   0.227860 0.019864 0.677915 0.424958
C136  C     C_R   0.518973 0.771639 0.067916 -0.123190
C137  C     C_R   0.999992 0.293396 0.999993 -0.093425
C138  C     C_R   0.499993 0.793397 0.999995 -0.093517
C139  C     C_R   0.517901 0.727992 0.067699 0.431623
C140  C     C_R   0.482083 0.727995 0.932288 0.431594
C141  C     C_R   0.014700 0.227991 0.066707 0.431481
C142  C     C_R   0.985281 0.227994 0.933273 0.431428
C143  C     C_R   0.499992 0.706473 0.999993 -0.123856
C144  C     C_R   0.999991 0.206472 0.999989 -0.123597
C145  C     C_1   0.999994 0.338059 0.999995 0.018137
C146  C     C_R   0.293375 0.500610 0.294650 -0.023310
C147  C     C_1   0.499996 0.838060 0.999996 0.018135
C148  C     C_1   0.499993 0.662007 0.999993 0.094675
C149  C     C_1   0.999993 0.162005 0.999990 0.094485
C150  C     C_1   0.499995 0.624776 0.999995 -0.159856
C151  C     C_1   0.999995 0.124775 0.999993 -0.160671
C152  C     C_1   0.999997 0.375304 0.999997 -0.175658
C153  C     C_1   0.499998 0.875305 0.999997 -0.176542
C154  C     C_2   0.498100 0.487098 0.814206 -0.498762
C155  C     C_2   0.501901 0.487090 0.185793 -0.498642
C156  C     C_2   0.998067 0.987246 0.814139 -0.495185
H1    H     H_    0.468539 0.492809 0.761376 0.136688
H2    H     H_    0.788778 0.476710 0.879799 0.178167
H3    H     H_    0.711274 0.961413 0.132335 0.177191
H4    H     H_    0.288754 0.967664 0.873576 0.177256
H5    H     H_    0.557838 0.395951 0.851709 0.180675
H6    H     H_    0.536733 0.414088 0.903547 0.145718
H7    H     H_    0.591809 0.408013 0.948919 0.180094
H8    H     H_    0.442121 0.395976 0.148262 0.180642
H9    H     H_    0.463252 0.414097 0.096460 0.145718
H10   H     H_    0.408172 0.408054 0.051052 0.180146
H11   H     H_    0.056533 0.895276 0.850346 0.192057
H12   H     H_    0.531466 0.492784 0.238622 0.136697
H13   H     H_    0.035490 0.913619 0.902167 0.153644
H14   H     H_    0.090494 0.906771 0.947780 0.169574
H15   H     H_    0.943566 0.895265 0.149719 0.192058
H16   H     H_    0.964518 0.913638 0.097767 0.153713
H17   H     H_    0.909531 0.906739 0.052286 0.169555
H18   H     H_    0.925582 0.677322 0.984986 0.138434
H19   H     H_    0.912503 0.722773 0.018070 0.157651
H20   H     H_    0.926203 0.674605 0.067823 0.189791
H21   H     H_    0.074447 0.677296 0.015059 0.138912
H22   H     H_    0.087538 0.722761 0.982028 0.157531
H23   H     H_    0.968602 0.993330 0.761346 0.136582
H24   H     H_    0.073847 0.674608 0.932239 0.189860
H25   H     H_    0.418132 0.223848 0.030984 0.157103
H26   H     H_    0.449034 0.177036 0.049368 0.143660
H27   H     H_    0.393742 0.176408 0.982630 0.189359
H28   H     H_    0.581601 0.223936 0.968743 0.156466
H29   H     H_    0.551079 0.176896 0.950866 0.143839
H30   H     H_    0.606397 0.176675 0.017399 0.189633
H31   H     H_    0.519262 0.679569 0.893385 0.158015
H32   H     H_    0.505042 0.728653 0.842254 0.155690
H33   H     H_    0.477864 0.681501 0.796365 0.203713
H34   H     H_    0.031397 0.993346 0.238655 0.136704
H35   H     H_    0.480725 0.679568 0.106604 0.158152
H36   H     H_    0.494943 0.728649 0.157735 0.155791
H37   H     H_    0.522124 0.681494 0.203624 0.203475
H38   H     H_    0.027088 0.179538 0.904486 0.157488
H39   H     H_    0.015268 0.228621 0.853974 0.155999
H40   H     H_    0.989347 0.181478 0.805720 0.204698
H41   H     H_    0.972877 0.179572 0.095470 0.157544
H42   H     H_    0.984743 0.228627 0.146073 0.156077
H43   H     H_    0.010631 0.181448 0.194235 0.204558
H44   H     H_    0.602429 0.440940 0.810063 0.183618
H45   H     H_    0.287791 0.467208 0.203130 0.172719
H46   H     H_    0.584687 0.464751 0.720678 0.138956
H47   H     H_    0.589835 0.409360 0.732022 0.182863
H48   H     H_    0.397536 0.441047 0.189904 0.183810
H49   H     H_    0.415300 0.464839 0.279311 0.139040
H50   H     H_    0.410093 0.409454 0.267911 0.182495
H51   H     H_    0.101952 0.939932 0.809736 0.181422
H52   H     H_    0.084515 0.963854 0.720570 0.137156
H53   H     H_    0.089063 0.908416 0.731453 0.185159
H54   H     H_    0.898094 0.939860 0.190309 0.181559
H55   H     H_    0.915511 0.963778 0.279466 0.137279
H56   H     H_    0.712235 0.476395 0.803287 0.172942
H57   H     H_    0.911016 0.908338 0.268604 0.184890
H58   H     H_    0.233521 0.498015 0.398957 0.185957
H59   H     H_    0.184614 0.479989 0.315794 0.147584
H60   H     H_    0.185098 0.522436 0.369844 0.192450
H61   H     H_    0.766527 0.480720 0.603470 0.185790
H62   H     H_    0.815428 0.466491 0.690387 0.147011
H63   H     H_    0.814941 0.502821 0.627292 0.192449
H64   H     H_    0.733532 0.010413 0.398265 0.185281
H65   H     H_    0.684680 0.989873 0.318267 0.146626
H66   H     H_    0.685052 0.036057 0.364970 0.192003
H67   H     H_    0.787817 0.961137 0.208929 0.172691
H68   H     H_    0.266481 0.997779 0.601014 0.185349
H69   H     H_    0.315329 0.979727 0.684269 0.146695
H70   H     H_    0.314958 0.022083 0.630183 0.191759
H71   H     H_    0.267842 0.596746 0.350682 0.184686
H72   H     H_    0.316306 0.586036 0.358421 0.146242
H73   H     H_    0.316616 0.595289 0.440038 0.193827
H74   H     H_    0.732041 0.586897 0.628097 0.185511
H75   H     H_    0.683584 0.580553 0.622303 0.146493
H76   H     H_    0.683276 0.581202 0.539554 0.193847
H77   H     H_    0.767755 0.102350 0.334302 0.187737
H78   H     H_    0.212211 0.967364 0.797008 0.172535
H79   H     H_    0.816233 0.088676 0.344054 0.146138
H80   H     H_    0.816527 0.103942 0.423654 0.193839
H81   H     H_    0.232143 0.096603 0.648984 0.187958
H82   H     H_    0.183666 0.085955 0.641226 0.146758
H83   H     H_    0.183384 0.095082 0.559606 0.193772
H84   H     H_    0.435985 0.343299 0.016435 0.162726
H85   H     H_    0.445272 0.293334 0.062469 0.120656
H86   H     H_    0.393290 0.310359 0.993524 0.187069
H87   H     H_    0.564307 0.343435 0.984239 0.163039
H88   H     H_    0.554572 0.293602 0.937614 0.120513
H89   H     H_    0.211246 0.467505 0.126572 0.177958
H90   H     H_    0.606714 0.310203 0.006546 0.187058
H91   H     H_    0.912398 0.790748 0.977704 0.130095
H92   H     H_    0.935186 0.841825 0.012741 0.163026
H93   H     H_    0.917486 0.811749 0.058826 0.185124
H94   H     H_    0.087628 0.790750 0.022333 0.130184
H95   H     H_    0.064830 0.841825 0.987275 0.163018
H96   H     H_    0.082538 0.811744 0.941203 0.185128
N1    N     N_1   0.953030 0.311388 0.807629 -0.198775
N2    N     N_1   0.046952 0.311377 0.192357 -0.198416
N3    N     N_1   0.444073 0.811378 0.805675 -0.201306
N4    N     N_1   0.555913 0.811368 0.194316 -0.201077
N5    N     N_1   0.502049 0.575577 0.738275 -0.188290
N6    N     N_1   0.498034 0.575568 0.261801 -0.189008
N7    N     N_1   0.003141 0.075664 0.739264 -0.186032
N8    N     N_1   0.996793 0.075669 0.260676 -0.186570
O1    O     O_R   0.439010 0.534430 0.439020 -0.615982
O2    O     O_R   0.939020 0.499970 0.990130 -0.618433
O3    O     O_R   0.560980 0.999970 0.009870 -0.618481
O4    O     O_R   0.439020 0.999970 0.990130 -0.618922
O5    O     O_R   0.000010 0.561020 0.051000 -0.608207
O6    O     O_R   0.999990 0.561020 0.949000 -0.608007
O7    O     O_R   0.500010 0.061020 0.051000 -0.614492
O8    O     O_R   0.499990 0.061020 0.949000 -0.614232
O9    O     O_R   0.439010 0.465570 0.438980 -0.619416
O10   O     O_R   0.560990 0.465570 0.561020 -0.618588
O11   O     O_R   0.939010 0.965570 0.438980 -0.619077
O12   O     O_R   0.560990 0.534430 0.560980 -0.616852
O13   O     O_R   0.060990 0.965570 0.561020 -0.618436
O14   O     O_R   0.500010 0.534430 0.590460 -0.622743
O15   O     O_R   0.499990 0.534430 0.409540 -0.623218
O16   O     O_R   0.000010 0.034430 0.590460 -0.622428
O17   O     O_R   0.999990 0.034430 0.409540 -0.622792
O18   O     O_R   0.500010 0.465570 0.590420 -0.567059
O19   O     O_R   0.499990 0.465570 0.409580 -0.566797
O20   O     O_R   0.000010 0.965570 0.590420 -0.565732
O21   O     O_R   0.999990 0.965570 0.409580 -0.565540
O22   O     O_R   0.534430 0.439010 0.034350 -0.617949
O23   O     O_R   0.939010 0.034430 0.439020 -0.615221
O24   O     O_R   0.465570 0.439010 0.965650 -0.617959
O25   O     O_R   0.034430 0.939010 0.034350 -0.623818
O26   O     O_R   0.965570 0.939010 0.965650 -0.623892
O27   O     O_R   0.534420 0.500000 0.943920 -0.566130
O28   O     O_R   0.465580 0.500000 0.056080 -0.566107
O29   O     O_R   0.034420 0.000000 0.943920 -0.567209
O30   O     O_R   0.965580 0.000000 0.056080 -0.567226
O31   O     O_R   0.465560 0.500000 0.875080 -0.627832
O32   O     O_R   0.534440 0.500000 0.124920 -0.627842
O33   O     O_R   0.965560 0.000000 0.875080 -0.628004
O34   O     O_R   0.060990 0.034430 0.560980 -0.615941
O35   O     O_R   0.034440 0.000000 0.124920 -0.627934
O36   O     O_R   0.534430 0.560990 0.034430 -0.611902
O37   O     O_R   0.465570 0.560990 0.965570 -0.611785
O38   O     O_R   0.034430 0.060990 0.034430 -0.612304
O39   O     O_R   0.965570 0.060990 0.965570 -0.612280
O40   O     O_R   1.000000 0.439050 0.051090 -0.613298
O41   O     O_R   0.000000 0.439050 0.948910 -0.613403
O42   O     O_R   0.500000 0.939050 0.051090 -0.613875
O43   O     O_R   0.500000 0.939050 0.948910 -0.613988
O44   O     O_3   0.566965 0.459054 0.880452 -0.587316
O45   O     O_R   0.060990 0.500040 0.112010 -0.608949
O46   O     O_3   0.433026 0.459082 0.119542 -0.587267
O47   O     O_3   0.066520 0.958223 0.880175 -0.595392
O48   O     O_3   0.933496 0.958207 0.119841 -0.595386
O49   O     O_3   0.975451 0.706766 0.080559 -0.545156
O50   O     O_3   0.024589 0.706762 0.919495 -0.545305
O51   O     O_3   0.425992 0.206717 0.947073 -0.546855
O52   O     O_3   0.574029 0.206714 0.052982 -0.546558
O53   O     O_3   0.463129 0.706259 0.865794 -0.586405
O54   O     O_3   0.536856 0.706253 0.134193 -0.586573
O55   O     O_3   0.969381 0.206259 0.867474 -0.586362
O56   O     O_R   0.939010 0.500040 0.887990 -0.607639
O57   O     O_3   0.030602 0.206251 0.132504 -0.586437
O58   O     O_3   0.539149 0.433492 0.726171 -0.594182
O59   O     O_3   0.460807 0.433524 0.273794 -0.594048
O60   O     O_3   0.038610 0.933146 0.725696 -0.589360
O61   O     O_3   0.961444 0.933123 0.274348 -0.589295
O62   O     O_3   0.206992 0.537057 0.305935 -0.596837
O63   O     O_3   0.792977 0.526250 0.686736 -0.596078
O64   O     O_3   0.706961 0.044218 0.299235 -0.592992
O65   O     O_3   0.293006 0.036886 0.693938 -0.593090
O66   O     O_3   0.294064 0.537992 0.391964 -0.594671
O67   O     O_R   0.560990 0.000040 0.112010 -0.610017
O68   O     O_3   0.705904 0.527263 0.600458 -0.595197
O69   O     O_3   0.794033 0.045082 0.385109 -0.595925
O70   O     O_3   0.205934 0.037824 0.607896 -0.596392
O71   O     O_3   0.425741 0.292466 0.949207 -0.542190
O72   O     O_3   0.574294 0.292455 0.050994 -0.542084
O73   O     O_3   0.973140 0.792597 0.077807 -0.547041
O74   O     O_3   0.026887 0.792593 0.922227 -0.547100
O75   O     O_R   0.439010 0.000040 0.887990 -0.609034
O76   O     O_R   0.060980 0.499970 0.009870 -0.617903
Zn1   Zn    Zn3+2 0.500000 0.545980 0.500000 0.978473
Zn2   Zn    Zn3+2 0.999990 0.500050 0.931820 0.989403
Zn3   Zn    Zn3+2 0.500010 0.000050 0.068180 0.979842
Zn4   Zn    Zn3+2 0.499990 0.000050 0.931820 0.980861
Zn5   Zn    Zn3+2 0.000000 0.045980 0.500000 0.982047
Zn6   Zn    Zn3+2 0.500000 0.454020 0.500000 1.015649
Zn7   Zn    Zn3+2 1.000000 0.954020 0.500000 1.023734
Zn8   Zn    Zn3+2 0.545980 0.500000 0.045940 1.006183
Zn9   Zn    Zn3+2 0.454020 0.500000 0.954060 1.006207
Zn10  Zn    Zn3+2 0.045980 1.000000 0.045940 0.998215
Zn11  Zn    Zn3+2 0.954020 0.000000 0.954060 0.998074
Zn12  Zn    Zn3+2 0.000010 0.500050 0.068180 0.988058

loop_
_geom_bond_atom_site_label_1
_geom_bond_atom_site_label_2
_ccdc_geom_bond_type
C23   O64   S    
C54   O64   S    
C101  O67   A    
C133  C137  A    
C36   H35   S    
C20   C70   S    
C105  C131  S    
C105  O8    A    
C66   C79   T    
C55   O65   S    
C14   H2    S    
C55   H70   S    
C79   C99   S    
C107  O50   S    
C12   H89   S    
C26   H7    S    
O21   Zn7   S    
C119  C130  T    
C52   O62   S    
C42   C136  S    
O23   Zn5   S    
C41   C134  S    
C64   O74   S    
C22   C113  A    
O9    Zn6   S    
O35   Zn10  S    
C40   N2    T    
O3    Zn4   S    
C142  O55   S    
C30   H20   S    
C31   O50   S    
C61   H85   S    
C56   H72   S    
O34   Zn5   S    
C65   H78   S    
C141  C144  A    
C94   O15   A    
C13   C124  A    
C35   H45   S    
C31   H22   S    
C108  O51   S    
O7    Zn3   S    
C132  C137  A    
C52   H59   S    
C17   C21   A    
C95   O16   A    
C43   O58   S    
C19   C23   A    
C139  O54   S    
C99   O76   A    
C16   C20   A    
C115  C118  A    
C87   O32   A    
C19   C68   S    
C37   O55   S    
C61   O71   S    
C24   C65   A    
C27   H9    S    
C64   H94   S    
C126  C154  D    
C28   H14   S    
C13   C73   S    
C36   O54   S    
C107  C110  A    
C142  C144  A    
C44   O59   S    
C4    O58   S    
C5    O59   S    
O11   Zn7   S    
C57   H67   S    
C6    O60   S    
C3    C129  D    
C59   H79   S    
C8    C93   S    
O26   Zn11  S    
C34   O53   S    
C106  O49   S    
C39   N1    T    
C63   H91   S    
C26   H5    S    
C108  C111  A    
C31   H24   S    
C86   C154  S    
C62   O72   S    
C112  C117  A    
C140  O53   S    
C44   H49   S    
C97   C152  S    
C116  C118  A    
C56   H73   S    
C99   O45   A    
C147  C153  T    
O39   Zn11  S    
C121  C123  T    
C58   H76   S    
C128  C156  D    
C80   O23   A    
O22   Zn8   S    
C73   C77   T    
C16   C65   A    
C114  C117  A    
C30   H18   S    
C55   H68   S    
C51   N8    T    
C47   H55   S    
C7    O61   S    
C116  O73   S    
C140  C143  A    
C90   C150  S    
C62   H87   S    
O30   Zn11  S    
C83   C103  S    
C37   H39   S    
C148  C150  T    
C149  C151  T    
C21   O62   S    
C1    O9    A    
O14   Zn1   S    
O8    Zn4   S    
C69   C76   S    
C88   O33   A    
C118  C122  S    
C129  O48   S    
C69   O10   A    
C64   H96   S    
C139  C143  A    
C38   H42   S    
C33   H30   S    
C58   O68   S    
C59   H77   S    
C97   O40   A    
C33   H28   S    
C25   C135  A    
C60   O70   S    
C53   H61   S    
C143  C148  S    
C85   O26   A    
C92   O39   A    
C32   H25   S    
C9    C49   S    
C104  O5    A    
C54   H65   S    
C127  O46   S    
C45   H53   S    
C5    C9    D    
C58   H74   S    
O16   Zn5   S    
C92   C151  S    
C52   H58   S    
C29   H15   S    
C12   C35   A    
C21   C102  A    
C67   C81   T    
C45   H52   S    
C24   C135  A    
C86   O31   A    
C18   C22   A    
C110  C119  S    
C105  O7    A    
C41   N3    T    
C91   O34   A    
C96   O21   A    
C27   O46   S    
C4    C126  S    
C38   O57   S    
C68   C82   T    
O36   Zn8   S    
C122  C125  T    
C6    C128  S    
O29   Zn10  S    
C69   O12   A    
C10   C95   S    
O2    Zn12  S    
C103  O75   A    
C34   H31   S    
C30   O49   S    
C145  C152  T    
C126  O44   S    
C44   H48   S    
C104  C130  S    
C60   H81   S    
C9    C94   S    
C11   C96   S    
C53   H63   S    
O37   Zn9   S    
C120  C131  T    
C86   O27   A    
C32   H27   S    
C14   C46   A    
C84   C123  S    
C15   C19   A    
C17   C66   S    
C96   O17   A    
C88   C156  S    
C137  C145  S    
C113  O68   S    
C56   O66   S    
O75   Zn4   S    
C62   H90   S    
C25   O65   S    
C20   C25   A    
C52   H60   S    
C63   O73   S    
C108  C114  A    
O41   Zn2   S    
C12   C17   A    
C103  O4    A    
C43   H44   S    
C95   O20   A    
O40   Zn12  S    
C72   C76   T    
C36   H36   S    
C136  C139  A    
C2    C72   S    
C100  O56   A    
O67   Zn3   S    
C48   N5    T    
C88   O29   A    
C87   O28   A    
O10   Zn6   S    
C154  H1    S    
O76   Zn2   S    
C3    H34   S    
C127  C155  D    
O33   Zn11  S    
C84   O22   A    
C26   H6    S    
C2    C46   A    
C106  C116  A    
C29   O48   S    
C8    C48   S    
C15   H3    S    
C155  H12   S    
C5    C127  S    
C43   H46   S    
C44   H50   S    
O6    Zn2   S    
C60   H83   S    
C98   O43   A    
C93   O18   A    
O31   Zn9   S    
C63   H93   S    
C135  O70   S    
C10   C50   S    
C30   H19   S    
C77   C80   S    
C61   H86   S    
C59   O69   S    
C56   H71   S    
O13   Zn7   S    
C61   H84   S    
C6    C10   D    
C62   H88   S    
C81   C100  S    
C133  C141  A    
C3    C89   S    
C80   O11   A    
C37   H38   S    
C109  C111  A    
C55   H69   S    
C47   H57   S    
C109  O52   S    
C156  H23   S    
C47   O61   S    
O20   Zn7   S    
C7    C129  S    
C27   H10   S    
C28   H13   S    
C13   C57   A    
C74   C78   T    
C92   O38   A    
C38   H43   S    
C33   H29   S    
C35   C146  A    
C50   N7    T    
O4    Zn3   S    
C14   C18   A    
C85   C125  S    
C59   H80   S    
C4    C8    D    
O32   Zn8   S    
C7    C11   D    
C63   H92   S    
C84   O24   A    
C85   O25   A    
C31   H21   S    
C32   H26   S    
C104  O6    A    
C60   H82   S    
C134  C140  A    
C2    C113  A    
C54   H66   S    
C39   C132  S    
C141  O57   S    
C117  C121  S    
C114  O71   S    
C58   H75   S    
C28   H11   S    
C94   O19   A    
C36   H37   S    
O19   Zn6   S    
O24   Zn9   S    
C124  O69   S    
C45   O60   S    
O18   Zn6   S    
C98   C153  S    
C45   H51   S    
C128  O47   S    
C15   C57   A    
O56   Zn2   S    
O5    Zn12  S    
O25   Zn10  S    
C132  C142  A    
C53   O63   S    
O17   Zn5   S    
C22   O63   S    
C1    C75   S    
C37   H40   S    
C91   O13   A    
C136  C138  A    
C109  C112  A    
C89   O35   A    
C90   O36   A    
C18   C67   S    
C111  C120  S    
O38   Zn10  S    
C144  C149  S    
C70   C83   T    
C27   H8    S    
C64   H95   S    
O1    Zn1   S    
C49   N6    T    
O28   Zn9   S    
C42   N4    T    
C138  C147  S    
C38   H41   S    
O43   Zn4   S    
C34   H32   S    
C107  C115  A    
C1    O1    A    
C90   O37   A    
C100  O2    A    
C101  O3    A    
C43   H47   S    
C28   O47   S    
C87   C155  S    
C97   O41   A    
O45   Zn12  S    
C106  C110  A    
C115  O74   S    
C53   H62   S    
O27   Zn8   S    
C34   H33   S    
C29   H17   S    
C134  C138  A    
C98   O42   A    
C54   H64   S    
C23   C124  A    
C78   C91   S    
C40   C133  S    
C32   O51   S    
C26   O44   S    
C33   O52   S    
C93   O14   A    
C102  C146  A    
C71   C75   T    
C24   C74   S    
C46   H56   S    
O12   Zn1   S    
C82   C101  S    
C102  O66   S    
C29   H16   S    
C11   C51   S    
C112  O72   S    
O42   Zn3   S    
C89   O30   A    
C71   C146  S    
C16   H4    S    
C47   H54   S    
O15   Zn1   S    
