data_mof_unit_57510.cif
_audit_creation_date              2012-12-10T16:42:33-0500
_audit_creation_method            fapswitch 2.2
_symmetry_space_group_name_H-M    P1
_symmetry_Int_Tables_number       1
_space_group_crystal_system       triclinic
_cell_length_a                    7.578643
_cell_length_b                    8.696815
_cell_length_c                    11.013689
_cell_angle_alpha                 87.898462
_cell_angle_beta                  71.887578
_cell_angle_gamma                 103.438948
_cell_volume                      666.376268297

loop_
_atom_site_label
_atom_site_type_symbol
_atom_type_description
_atom_site_fract_x
_atom_site_fract_y
_atom_site_fract_z
_atom_type_partial_charge
C1    C     C_R   0.451666 0.199767 0.503998 0.872974
C2    C     C_R   0.548334 0.800233 0.496002 0.872974
C3    C     C_R   0.421170 0.488668 0.742801 0.798120
C4    C     C_R   0.578829 0.511332 0.257199 0.798122
C5    C     C_2   0.373212 0.467202 0.881915 -0.162627
C6    C     C_2   0.626787 0.532799 0.118085 -0.162627
C7    C     C_2   0.513731 0.516795 0.931802 -0.204939
C8    C     C_2   0.486268 0.483208 0.068198 -0.204937
C9    C     C_2   0.425640 0.031129 0.505646 -0.360172
C10   C     C_2   0.574360 0.968871 0.494354 -0.360172
Cu1   Cu    Cu3+1 0.688910 0.517800 0.485820 0.952607
Cu2   Cu    Cu3+1 0.311090 0.482200 0.514180 0.952607
H1    H     H_    0.345671 0.415813 0.130858 0.179080
H2    H     H_    0.654327 0.584188 0.869142 0.179081
H3    H     H_    0.283155 0.957950 0.516067 0.181092
H4    H     H_    0.716845 0.042050 0.483933 0.181092
N1    N     N_2   0.027170 0.455360 0.535550 -0.061063
N2    N     N_2   0.972830 0.544640 0.464450 -0.061064
O1    O     O_R   0.622710 0.286400 0.490790 -0.584620
O2    O     O_R   0.377290 0.713600 0.509210 -0.584620
O3    O     O_R   0.303660 0.256330 0.514730 -0.584612
O4    O     O_R   0.696340 0.743670 0.485270 -0.584612
O5    O     O_R   0.600900 0.509520 0.671740 -0.605227
O6    O     O_R   0.399100 0.490480 0.328260 -0.605227
O7    O     O_R   0.281840 0.479450 0.695690 -0.577136
O8    O     O_R   0.718160 0.520550 0.304310 -0.577137
C11   C     C_1   0.820598 0.617484 0.039887 0.265455
N3    N     N_1   0.975039 0.685506 0.977605 -0.291902
C12   C     C_1   0.179404 0.382521 0.960112 0.265461
N4    N     N_1   0.024966 0.314503 0.022392 -0.291905
C13   C     C_3   0.895982 0.377256 0.658997 -0.338419
H5    H     H_    0.963109 0.295092 0.697359 0.163696
H6    H     H_    0.872210 0.466015 0.727854 0.175111
H7    H     H_    0.762144 0.301173 0.652311 0.182581
C14   C     C_3   0.104018 0.622746 0.341003 -0.338419
H8    H     H_    0.036889 0.704907 0.302641 0.163697
H9    H     H_    0.237853 0.698831 0.347691 0.182579
H10   H     H_    0.127793 0.533987 0.272147 0.175111

loop_
_geom_bond_atom_site_label_1
_geom_bond_atom_site_label_2
_ccdc_geom_bond_type
Cu2   N1    S    
C2    O4    A    
C4    O8    A    
Cu1   Cu2   S    
C13   H6    S    
Cu1   N2    S    
C1    O3    A    
C12   N4    T    
C9    C10   D    
Cu2   O6    S    
Cu1   O4    S    
C3    O5    A    
C6    C11   S    
Cu2   O7    S    
Cu2   O2    S    
N1    N2    D    
C9    H3    S    
C13   H7    S    
C7    C8    S    
C10   H4    S    
Cu1   O1    S    
C8    H1    S    
N1    C13   S    
Cu1   O5    S    
C14   H9    S    
C5    C12   S    
C4    O6    A    
C1    O1    A    
C2    O2    A    
C2    C10   S    
C3    O7    A    
C14   H10   S    
C1    C9    S    
C4    C6    S    
N2    C14   S    
C11   N3    T    
C5    C7    D    
C6    C8    D    
Cu1   O8    S    
Cu2   O3    S    
C7    H2    S    
C13   H5    S    
C3    C5    S    
C14   H8    S    
