data_mof_unit_9718.cif
_audit_creation_date              2012-12-11T16:16:53-0500
_audit_creation_method            fapswitch 2.2
_symmetry_space_group_name_H-M    P1
_symmetry_Int_Tables_number       1
_space_group_crystal_system       triclinic
_cell_length_a                    13.493718
_cell_length_b                    13.482592
_cell_length_c                    28.525477
_cell_angle_alpha                 89.07859
_cell_angle_beta                  90.137797
_cell_angle_gamma                 120.040109
_cell_volume                      4491.87335361

loop_
_atom_site_label
_atom_site_type_symbol
_atom_type_description
_atom_site_fract_x
_atom_site_fract_y
_atom_site_fract_z
_atom_type_partial_charge
C1    C     C_R   0.437490 0.549727 0.316555 0.534697
C2    C     C_R   0.550434 0.439923 0.683757 0.522046
C3    C     C_3   0.333375 0.097778 0.572865 -0.000347
C4    C     C_3   0.249280 0.079909 0.612366 -0.275535
C5    C     C_3   0.252826 0.191519 0.623839 -0.458327
C6    C     C_3   0.165573 0.431579 0.919254 0.013021
C7    C     C_3   0.149624 0.370096 0.872832 -0.267267
C8    C     C_3   0.246546 0.441635 0.838278 -0.486005
C9    C     C_3   0.784306 0.633481 0.561393 0.023500
C10   C     C_3   0.897195 0.724462 0.582342 -0.227283
C11   C     C_3   0.881545 0.797504 0.618573 -0.410009
C12   C     C_3   0.194521 0.721328 0.577918 0.030689
C13   C     C_R   0.561907 0.111882 0.816202 0.535134
C14   C     C_3   0.190807 0.773011 0.624470 -0.363148
C15   C     C_3   0.739928 0.042959 0.944080 0.001971
C16   C     C_3   0.866568 0.107782 0.931774 -0.345430
C17   C     C_3   0.285086 0.496769 0.577100 -0.004981
C18   C     C_3   0.227262 0.448751 0.624414 -0.393174
C19   C     C_3   0.952922 0.704415 0.948872 0.014177
C20   C     C_3   0.899997 0.772763 0.967282 -0.375339
C21   C     C_3   0.634517 0.889211 0.562352 0.000277
C22   C     C_3   0.667457 0.891247 0.613575 -0.374013
C23   C     C_3   0.309921 0.247021 0.948039 -0.004927
C24   C     C_R   0.888576 0.451271 0.684032 0.528398
C25   C     C_3   0.264209 0.122247 0.935791 -0.349153
C26   C     C_3   0.719974 0.212191 0.063890 0.011081
C27   C     C_3   0.763161 0.238182 0.114004 -0.395707
C28   C     C_3   0.988670 0.691753 0.425973 -0.006044
C29   C     C_3   0.028144 0.767749 0.381825 -0.349221
C30   C     C_3   0.472008 0.277627 0.069246 0.001898
C31   C     C_3   0.432702 0.212293 0.115723 -0.396029
C32   C     C_3   0.712454 0.121196 0.418495 -0.019770
C33   C     C_3   0.781422 0.111429 0.378563 -0.362504
C34   C     C_3   0.802625 0.540756 0.064836 0.005711
C35   C     C_1   0.071799 0.526567 0.363213 -0.000297
C36   C     C_3   0.781595 0.564138 0.114758 -0.400306
C37   C     C_3   0.285371 0.308040 0.445735 -0.001240
C38   C     C_3   0.197860 0.262767 0.406507 -0.364842
C39   C     C_1   0.463222 0.935083 0.137913 -0.011802
C40   C     C_1   0.469961 0.535774 0.362780 -0.022435
C41   C     C_1   0.065642 0.530045 0.138297 -0.010342
C42   C     C_1   0.456167 0.927881 0.363161 -0.002816
C43   C     C_1   0.469171 0.540664 0.137140 -0.017386
C44   C     C_1   0.527661 0.062699 0.861592 -0.010678
C45   C     C_R   0.112689 0.562681 0.183752 0.533710
C46   C     C_1   0.938560 0.471712 0.638828 -0.019026
C47   C     C_1   0.536620 0.469163 0.861937 -0.005985
C48   C     C_1   0.525804 0.056439 0.639753 -0.034836
C49   C     C_1   0.930475 0.459745 0.862619 -0.005847
C50   C     C_1   0.535427 0.485473 0.640103 -0.049015
C51   C     C_R   0.978648 0.399428 0.478705 0.230882
C52   C     C_R   0.380852 0.924718 0.020176 0.241242
C53   C     C_R   0.614684 0.600811 0.474964 0.239654
C54   C     C_R   0.054241 0.436322 0.022372 0.240976
C55   C     C_R   0.381533 0.976180 0.478820 0.243938
C56   C     C_R   0.448096 0.885156 0.316922 0.531359
C57   C     C_R   0.543913 0.621811 0.017743 0.244407
C58   C     C_R   0.390486 0.937029 0.971251 0.228800
C59   C     C_R   0.936343 0.399773 0.523856 0.201685
C60   C     C_R   0.551411 0.611343 0.969281 0.232399
C61   C     C_R   0.395839 0.998378 0.527734 0.202028
C62   C     C_R   0.038434 0.429423 0.973681 0.229665
C63   C     C_R   0.621036 0.604676 0.524448 0.222797
C64   C     C_R   0.055530 0.605769 0.525878 0.224565
C65   C     C_R   0.597708 0.059466 0.978522 0.243458
C66   C     C_R   0.413785 0.481857 0.530339 0.230622
C67   C     C_R   0.437784 0.551220 0.183489 0.532558
C68   C     C_R   0.939571 0.539458 0.979267 0.231893
C69   C     C_R   0.578968 0.003053 0.523579 0.245101
C70   C     C_R   0.460745 0.403106 0.979781 0.233454
C71   C     C_R   0.587510 0.049708 0.027300 0.233083
C72   C     C_R   0.055921 0.605776 0.476633 0.251947
C73   C     C_R   0.454240 0.414464 0.028174 0.235437
C74   C     C_R   0.576030 0.007954 0.474323 0.206566
C75   C     C_R   0.955486 0.545739 0.027910 0.233878
C76   C     C_R   0.406758 0.475547 0.481462 0.242791
C77   C     C_R   0.029578 0.503487 0.453723 -0.029818
C78   C     C_R   0.113206 0.561395 0.316633 0.531248
C79   C     C_R   0.479403 0.981863 0.047897 -0.036055
C80   C     C_R   0.506278 0.534592 0.453645 -0.061319
C81   C     C_R   0.014147 0.495840 0.049055 -0.035257
C82   C     C_R   0.472716 0.982789 0.452545 -0.051348
C83   C     C_R   0.495727 0.523413 0.046964 -0.038830
C84   C     C_R   0.498508 0.007908 0.950831 -0.043921
C85   C     C_R   0.990400 0.499749 0.549450 -0.060424
C86   C     C_R   0.512196 0.501618 0.950638 -0.047370
C87   C     C_R   0.492044 0.004750 0.550087 -0.054065
C88   C     C_R   0.979070 0.479427 0.952409 -0.046492
C89   C     C_R   0.449893 0.888158 0.183746 0.532901
C90   C     C_R   0.521022 0.541719 0.551988 -0.056126
C91   C     C_1   0.968025 0.489112 0.598645 -0.015924
C92   C     C_1   0.509374 0.032755 0.901795 0.007557
C93   C     C_1   0.528359 0.517554 0.601107 -0.019434
C94   C     C_1   0.955920 0.468083 0.903206 0.018320
C95   C     C_1   0.507123 0.024593 0.599827 -0.005747
C96   C     C_1   0.526439 0.487970 0.901973 0.011617
C97   C     C_1   0.471134 0.961230 0.097308 0.018409
C98   C     C_1   0.049640 0.508258 0.404203 0.032137
C99   C     C_1   0.484753 0.533215 0.096343 0.012078
C100  C     C_R   0.550469 0.436924 0.816416 0.538560
C101  C     C_1   0.459651 0.954048 0.403533 0.027194
C102  C     C_1   0.038155 0.510968 0.098074 0.026261
C103  C     C_1   0.490605 0.532231 0.403637 -0.013556
C104  C     C_3   0.946966 0.210926 0.489392 0.037376
C105  C     C_3   0.027983 0.237394 0.531626 -0.231875
C106  C     C_3   0.965104 0.155573 0.572790 -0.462394
C107  C     C_3   0.214041 0.904264 0.049627 0.018889
C108  C     C_3   0.151576 0.860101 0.096549 -0.231375
C109  C     C_3   0.068114 0.903021 0.105111 -0.486918
C110  C     C_3   0.731636 0.728683 0.414862 -0.004325
C111  C     C_R   0.561456 0.110905 0.684121 0.524678
C112  C     C_3   0.719765 0.828342 0.433013 -0.218611
C113  C     C_3   0.821881 0.904789 0.463159 -0.421801
C114  C     C_3   0.045483 0.273227 0.052669 0.034475
C115  C     C_3   0.057455 0.246231 0.104000 -0.278085
C116  C     C_3   0.176094 0.264292 0.114376 -0.359514
C117  C     C_3   0.232358 0.007809 0.459379 0.071099
C118  C     C_3   0.120447 0.949080 0.487569 -0.198431
C119  C     C_3   0.085427 0.031670 0.505097 -0.530425
C120  C     C_3   0.684825 0.778282 0.054833 0.008201
C121  C     C_3   0.690039 0.849593 0.096777 -0.240595
C122  C     C_R   0.886746 0.448770 0.816499 0.534095
C123  C     C_3   0.809043 0.910751 0.118191 -0.485168
C124  C     C_3   0.275024 0.773862 0.930264 0.035605
C125  C     C_3   0.274238 0.766683 0.876701 -0.266404
C126  C     C_3   0.175679 0.775046 0.854594 -0.408540
C127  C     C_3   0.742959 0.304397 0.518336 0.020483
C128  C     C_3   0.668349 0.321505 0.553212 -0.252321
C129  C     C_3   0.570291 0.323976 0.527685 -0.508005
C130  C     C_3   0.543457 0.725978 0.909638 0.012759
C131  C     C_3   0.608420 0.766402 0.862904 -0.261490
C132  C     C_3   0.540208 0.788339 0.825664 -0.486269
Cr1   Cr    Cr6+3 0.505050 0.756260 0.250000 1.004278
Cr2   Cr    Cr6+3 0.251210 0.494950 0.250000 1.012523
Cr3   Cr    Cr6+3 0.243740 0.748790 0.250000 1.010195
Cr4   Cr    Cr6+3 0.756260 0.505050 0.750000 1.009179
Cr5   Cr    Cr6+3 0.494950 0.251210 0.750000 1.006474
Cr6   Cr    Cr6+3 0.748790 0.243740 0.750000 1.018949
H1    H     H_    0.951851 0.145332 0.468616 0.113775
H2    H     H_    0.103748 0.764992 0.097170 0.232729
H3    H     H_    0.962102 0.717451 0.910312 0.141302
H4    H     H_    0.040410 0.740868 0.963964 0.146618
H5    H     H_    0.890373 0.763238 0.005946 0.163249
H6    H     H_    0.955806 0.864964 0.958144 0.078780
H7    H     H_    0.814901 0.741927 0.951248 0.208786
H8    H     H_    0.679654 0.855035 0.541705 0.184403
H9    H     H_    0.540882 0.826507 0.559192 0.098712
H10   H     H_    0.612444 0.909407 0.636420 0.152498
H11   H     H_    0.655360 0.806205 0.624119 0.117874
H12   H     H_    0.758129 0.957796 0.618949 0.155003
H13   H     H_    0.215298 0.889340 0.125304 0.167687
H14   H     H_    0.303729 0.292720 0.916424 0.129309
H15   H     H_    0.255094 0.249801 0.976624 0.160023
H16   H     H_    0.267852 0.074187 0.967063 0.168008
H17   H     H_    0.173899 0.083278 0.924180 0.082156
H18   H     H_    0.316292 0.116025 0.907112 0.188537
H19   H     H_    0.650850 0.233758 0.060069 0.095655
H20   H     H_    0.790338 0.268320 0.039299 0.162110
H21   H     H_    0.831495 0.216580 0.119687 0.150670
H22   H     H_    0.797840 0.330347 0.121133 0.095119
H23   H     H_    0.691765 0.186557 0.138903 0.150135
H24   H     H_    0.114040 0.998092 0.104977 0.133542
H25   H     H_    0.936041 0.713665 0.448579 0.165556
H26   H     H_    0.928786 0.602772 0.414579 0.108830
H27   H     H_    0.959941 0.732264 0.354896 0.092146
H28   H     H_    0.047579 0.855991 0.389226 0.108361
H29   H     H_    0.106364 0.772190 0.367257 0.219503
H30   H     H_    0.561967 0.348056 0.073850 0.101310
H31   H     H_    0.469439 0.218515 0.041923 0.170024
H32   H     H_    0.344122 0.139094 0.112778 0.144491
H33   H     H_    0.490511 0.179373 0.125900 0.098051
H34   H     H_    0.434737 0.270165 0.143459 0.158173
H35   H     H_    0.025973 0.870782 0.139788 0.149515
H36   H     H_    0.769242 0.198656 0.438198 0.164736
H37   H     H_    0.646440 0.137522 0.402898 0.104522
H38   H     H_    0.820422 0.191331 0.356856 0.111845
H39   H     H_    0.850830 0.098279 0.392608 0.156321
H40   H     H_    0.724702 0.038311 0.356071 0.156901
H41   H     H_    0.767941 0.446742 0.061995 0.100795
H42   H     H_    0.754253 0.565322 0.040262 0.162419
H43   H     H_    0.825421 0.535243 0.139842 0.153284
H44   H     H_    0.815504 0.657238 0.119232 0.150693
H45   H     H_    0.688496 0.517162 0.122701 0.095342
H46   H     H_    0.001326 0.871215 0.077589 0.155125
H47   H     H_    0.254829 0.247057 0.475733 0.129239
H48   H     H_    0.365066 0.312695 0.432129 0.105643
H49   H     H_    0.183064 0.178087 0.395219 0.063903
H50   H     H_    0.115711 0.253334 0.418518 0.198431
H51   H     H_    0.229570 0.323112 0.376046 0.188715
H52   H     H_    0.678132 0.690520 0.383894 0.121494
H53   H     H_    0.819204 0.764884 0.400186 0.129849
H54   H     H_    0.717177 0.878901 0.402470 0.158027
H55   H     H_    0.638868 0.797727 0.453042 0.180890
H56   H     H_    0.837539 0.853165 0.489566 0.212862
H57   H     H_    0.856225 0.169319 0.500448 0.235448
H58   H     H_    0.805841 0.966381 0.481877 0.193087
H59   H     H_    0.898617 0.952041 0.440377 0.107918
H60   H     H_    0.072506 0.225424 0.029496 0.152196
H61   H     H_    0.952665 0.239923 0.045917 0.123927
H62   H     H_    0.040390 0.301384 0.127214 0.169257
H63   H     H_    0.993067 0.155760 0.112243 0.105554
H64   H     H_    0.192600 0.206631 0.092565 0.168123
H65   H     H_    0.181262 0.244170 0.151885 0.131758
H66   H     H_    0.242273 0.354701 0.107014 0.234810
H67   H     H_    0.213028 0.023779 0.423138 0.112262
H68   H     H_    0.103452 0.231941 0.521115 0.175374
H69   H     H_    0.294223 0.093845 0.472825 0.087513
H70   H     H_    0.050709 0.889459 0.465216 0.151512
H71   H     H_    0.125937 0.899138 0.517481 0.271786
H72   H     H_    0.150813 0.095202 0.528105 0.158340
H73   H     H_    0.005680 0.983730 0.525867 0.140578
H74   H     H_    0.072079 0.075603 0.474790 0.131301
H75   H     H_    0.747315 0.835014 0.027644 0.151355
H76   H     H_    0.709968 0.714999 0.066997 0.106627
H77   H     H_    0.666521 0.913891 0.085389 0.229128
H78   H     H_    0.627230 0.793199 0.123886 0.193684
H79   H     H_    0.064187 0.325435 0.544158 0.187958
H80   H     H_    0.829355 0.847215 0.133854 0.137726
H81   H     H_    0.811995 0.968391 0.146205 0.157680
H82   H     H_    0.873922 0.962541 0.090933 0.139670
H83   H     H_    0.190943 0.706840 0.944378 0.142531
H84   H     H_    0.339114 0.751733 0.944188 0.101911
H85   H     H_    0.355632 0.836293 0.862111 0.158493
H86   H     H_    0.267752 0.684701 0.866549 0.095416
H87   H     H_    0.093128 0.699377 0.865016 0.139900
H88   H     H_    0.183278 0.776423 0.815809 0.131780
H89   H     H_    0.177194 0.854550 0.865434 0.181375
H90   H     H_    0.903759 0.177563 0.588758 0.222359
H91   H     H_    0.690973 0.219502 0.503195 0.149812
H92   H     H_    0.765258 0.367378 0.488538 0.095854
H93   H     H_    0.634008 0.251395 0.579780 0.178633
H94   H     H_    0.720687 0.402452 0.571850 0.151705
H95   H     H_    0.604316 0.396581 0.502204 0.154232
H96   H     H_    0.514407 0.333466 0.553346 0.149385
H97   H     H_    0.518841 0.243587 0.508151 0.120295
H98   H     H_    0.527616 0.793907 0.922788 0.141587
H99   H     H_    0.458374 0.648027 0.903871 0.102479
H100  H     H_    0.691398 0.846377 0.868149 0.160499
H101  H     H_    0.026355 0.162228 0.600139 0.122813
H102  H     H_    0.627767 0.700794 0.849961 0.174655
H103  H     H_    0.454680 0.711072 0.821147 0.138379
H104  H     H_    0.586912 0.809798 0.791665 0.153824
H105  H     H_    0.530153 0.861792 0.835737 0.142803
H106  H     H_    0.328809 0.152963 0.544881 0.125052
H107  H     H_    0.420413 0.146492 0.587532 0.136723
H108  H     H_    0.160633 0.015745 0.602165 0.166252
H109  H     H_    0.271892 0.046979 0.644189 0.161932
H110  H     H_    0.218933 0.218841 0.594048 0.185075
H111  H     H_    0.341898 0.259905 0.630074 0.200336
H112  H     H_    0.916479 0.065679 0.561065 0.150213
H113  H     H_    0.199991 0.179475 0.655491 0.137251
H114  H     H_    0.243998 0.442593 0.936834 0.142251
H115  H     H_    0.178629 0.518591 0.911709 0.105978
H116  H     H_    0.145298 0.286649 0.879534 0.154079
H117  H     H_    0.067337 0.351903 0.856705 0.172222
H118  H     H_    0.243217 0.518979 0.826889 0.136213
H119  H     H_    0.237668 0.390257 0.806881 0.159093
H120  H     H_    0.330517 0.468282 0.854630 0.141113
H121  H     H_    0.803806 0.591835 0.532197 0.142281
H122  H     H_    0.737205 0.569580 0.589557 0.131399
H123  H     H_    0.150557 0.883350 0.021191 0.162517
H124  H     H_    0.938850 0.681048 0.599835 0.173189
H125  H     H_    0.953510 0.780935 0.553786 0.179495
H126  H     H_    0.856022 0.854944 0.600843 0.166620
H127  H     H_    0.963928 0.851615 0.636705 0.112352
H128  H     H_    0.815819 0.742448 0.645056 0.166138
H129  H     H_    0.276366 0.778806 0.559609 0.182498
H130  H     H_    0.194624 0.640795 0.586125 0.079559
H131  H     H_    0.175055 0.845208 0.618653 0.193048
H132  H     H_    0.120584 0.707662 0.646848 0.129360
H133  H     H_    0.273223 0.804034 0.643114 0.099238
H134  H     H_    0.267730 0.999610 0.051279 0.105824
H135  H     H_    0.691975 0.997298 0.912351 0.130748
H136  H     H_    0.726427 0.978976 0.972300 0.160736
H137  H     H_    0.917031 0.148313 0.963647 0.181344
H138  H     H_    0.892671 0.047562 0.918061 0.077996
H139  H     H_    0.884286 0.174715 0.904618 0.193917
H140  H     H_    0.224756 0.505405 0.553194 0.143885
H141  H     H_    0.358995 0.584488 0.583199 0.108645
H142  H     H_    0.286884 0.438655 0.648268 0.162157
H143  H     H_    0.203029 0.507953 0.640612 0.093826
H144  H     H_    0.149021 0.364229 0.620269 0.151363
O1    O     O_R   0.530190 0.870330 0.301660 -0.521942
O2    O     O_R   0.870330 0.530190 0.698340 -0.526578
O3    O     O_R   0.469810 0.340140 0.801660 -0.511160
O4    O     O_R   0.659860 0.129670 0.698340 -0.505572
O5    O     O_R   0.494300 0.651190 0.297490 -0.498603
O6    O     O_R   0.156890 0.505700 0.202510 -0.496186
O7    O     O_R   0.348810 0.843110 0.297490 -0.493111
O8    O     O_R   0.494300 0.651190 0.202510 -0.500975
O9    O     O_R   0.156890 0.505700 0.297490 -0.491878
O10   O     O_R   0.348810 0.843110 0.202510 -0.497173
O11   O     O_R   0.651190 0.494300 0.797490 -0.491475
O12   O     O_R   0.340140 0.469810 0.198340 -0.517073
O13   O     O_R   0.505700 0.156890 0.702510 -0.502536
O14   O     O_R   0.843110 0.348810 0.797490 -0.495171
O15   O     O_R   0.651190 0.494300 0.702510 -0.497279
O16   O     O_R   0.505700 0.156890 0.797490 -0.490357
O17   O     O_R   0.843110 0.348810 0.702510 -0.486606
O18   O     O_3   0.333333 0.666667 0.250000 -0.239081
O19   O     O_3   0.666667 0.333333 0.750000 -0.241234
O20   O     O_3   0.975489 0.304728 0.458248 -0.591099
O21   O     O_3   0.276935 0.848427 0.040766 -0.546113
O22   O     O_3   0.717599 0.646940 0.450089 -0.576600
O23   O     O_R   0.129670 0.659860 0.301660 -0.525942
O24   O     O_3   0.116631 0.392195 0.043576 -0.535408
O25   O     O_3   0.276241 0.932579 0.456959 -0.496042
O26   O     O_3   0.573584 0.727574 0.035823 -0.542672
O27   O     O_3   0.293656 0.882736 0.943707 -0.571469
O28   O     O_3   0.837450 0.307328 0.541442 -0.566019
O29   O     O_3   0.613525 0.710256 0.942360 -0.576029
O30   O     O_3   0.306570 0.989906 0.554735 -0.568379
O31   O     O_3   0.070031 0.362679 0.948427 -0.576615
O32   O     O_3   0.721914 0.685031 0.545100 -0.572455
O33   O     O_3   0.102892 0.708314 0.549334 -0.555637
O34   O     O_R   0.530190 0.870330 0.198340 -0.516837
O35   O     O_3   0.705523 0.121153 0.958399 -0.534065
O36   O     O_3   0.315507 0.420364 0.557033 -0.563992
O37   O     O_3   0.878937 0.586197 0.958524 -0.539900
O38   O     O_3   0.669715 0.002105 0.545806 -0.547219
O39   O     O_3   0.425269 0.295829 0.961784 -0.543760
O40   O     O_3   0.684606 0.096553 0.054767 -0.564412
O41   O     O_3   0.085572 0.705434 0.451383 -0.491098
O42   O     O_3   0.397269 0.318230 0.056808 -0.565448
O43   O     O_3   0.669106 0.022183 0.448197 -0.571604
O44   O     O_3   0.920886 0.607762 0.054649 -0.562777
O45   O     O_R   0.340140 0.469810 0.301660 -0.516332
O46   O     O_3   0.300559 0.414271 0.460655 -0.514563
O47   O     O_R   0.129670 0.659860 0.198340 -0.515317
O48   O     O_R   0.870330 0.530190 0.801660 -0.510629
O49   O     O_R   0.469810 0.340140 0.698340 -0.523644
O50   O     O_R   0.659860 0.129670 0.801660 -0.512550

loop_
_geom_bond_atom_site_label_1
_geom_bond_atom_site_label_2
_ccdc_geom_bond_type
C123  H82   S    
C22   H12   S    
C17   O36   S    
C20   H6    S    
C19   C20   S    
C114  C115  S    
C68   C75   A    
C119  H74   S    
C129  H97   S    
C43   C99   T    
C109  H35   S    
C31   H34   S    
C127  H91   S    
C108  C109  S    
Cr5   O49   S    
C56   O7    A    
C37   H47   S    
Cr2   O6    S    
C57   C83   A    
C17   H140  S    
C44   C92   T    
C81   C102  S    
C23   O39   S    
C107  H134  S    
Cr3   O47   S    
C21   C22   S    
C34   H41   S    
C126  H88   S    
C16   H137  S    
C104  C105  S    
C116  H66   S    
C80   C103  S    
Cr5   O13   S    
Cr2   O9    S    
C60   C86   A    
Cr4   O19   S    
C46   C91   T    
Cr1   O1    S    
C62   C88   A    
C8    H118  S    
C10   H124  S    
C114  O24   S    
C29   H28   S    
C30   H31   S    
C37   C38   S    
C108  H13   S    
C89   O10   A    
C66   C76   A    
C124  O27   S    
C107  H123  S    
Cr2   O18   S    
Cr3   O7    S    
C1    O45   A    
C52   C58   A    
C109  H46   S    
C132  H104  S    
C123  H80   S    
C124  H84   S    
C105  H79   S    
C106  H101  S    
C23   H15   S    
Cr2   O45   S    
C64   C85   A    
C90   C93   S    
C45   O47   A    
C125  H86   S    
C119  H72   S    
C25   H16   S    
C12   O33   S    
C79   C97   S    
C53   O22   S    
C4    C5    S    
C6    C7    S    
C31   H32   S    
C35   C78   S    
C24   C46   S    
C21   H8    S    
C106  H112  S    
Cr6   O19   S    
Cr4   O48   S    
C130  C131  S    
C32   C33   S    
C6    O31   S    
C38   H50   S    
C115  H63   S    
C104  H57   S    
C26   H20   S    
C8    H120  S    
Cr4   O2    S    
C121  C123  S    
C28   O41   S    
C9    H122  S    
C41   C45   S    
C36   H43   S    
Cr1   O34   S    
C55   O25   S    
C73   C83   A    
C54   C81   A    
C5    H110  S    
C3    O30   S    
C128  C129  S    
C71   C79   A    
C14   H131  S    
C105  H68   S    
C45   O6    A    
C56   O1    A    
C121  H77   S    
C27   H21   S    
C115  C116  S    
C41   C102  T    
C15   H135  S    
C61   C87   A    
C87   C95   S    
C107  C108  S    
C52   C79   A    
C9    C10   S    
C74   O43   S    
C25   H18   S    
C52   O21   S    
C11   H127  S    
C32   H37   S    
C88   C94   S    
C111  O13   A    
C33   H39   S    
C53   C80   A    
C37   O46   S    
C65   C84   A    
C120  H75   S    
C30   O42   S    
C6    H115  S    
Cr2   O12   S    
C4    H109  S    
C131  H102  S    
C17   C18   S    
C36   H45   S    
C11   H126  S    
C70   O39   S    
C7    H116  S    
C113  H58   S    
C64   O33   S    
C122  O14   A    
C2    O15   A    
C3    C4    S    
C42   C101  T    
Cr4   O15   S    
C76   O46   S    
C123  H81   S    
C76   C80   A    
C19   O37   S    
C78   O23   A    
C119  H73   S    
C129  H96   S    
C117  C118  S    
C27   H23   S    
C40   C103  T    
C53   C63   A    
C18   H143  S    
C31   H33   S    
C55   C61   A    
C67   O12   A    
C130  H98   S    
C11   H128  S    
C39   C89   S    
C34   C36   S    
C3    H106  S    
C13   C44   S    
C110  C112  S    
C10   C11   S    
C128  H94   S    
C114  H60   S    
C84   C92   S    
C28   H25   S    
C23   H14   S    
C130  H99   S    
C34   H42   S    
C126  H89   S    
C13   O50   A    
C16   H138  S    
C122  O48   A    
C78   O9    A    
C66   C90   A    
C120  C121  S    
C28   H26   S    
C26   C27   S    
C118  H71   S    
C28   C29   S    
C117  H67   S    
C109  H24   S    
C30   C31   S    
C39   C97   T    
C131  H100  S    
C110  H53   S    
C10   H125  S    
C113  H56   S    
C29   H27   S    
C33   H38   S    
C42   C56   S    
C21   O38   S    
C47   C96   T    
Cr5   O19   S    
C32   O43   S    
C35   C98   T    
Cr3   O10   S    
C69   C87   A    
C72   O41   S    
C22   H11   S    
C83   C99   S    
C20   H5    S    
C74   C82   A    
C65   O35   S    
C125  H85   S    
C85   C91   S    
C5    H111  S    
C7    C8    S    
C19   H3    S    
C24   O17   A    
C61   O30   S    
C54   C62   A    
C32   H36   S    
C127  H92   S    
C2    O49   A    
C57   O26   S    
C51   C77   A    
C16   H139  S    
C112  H54   S    
C37   H48   S    
C38   H51   S    
C70   C73   A    
C4    H108  S    
C17   H141  S    
C86   C96   S    
C18   H142  S    
C128  H93   S    
C9    H121  S    
C125  C126  S    
C106  H90   S    
C126  H87   S    
C36   H44   S    
C127  C128  S    
C1    O5    A    
C116  H65   S    
C73   O42   S    
C127  O28   S    
Cr6   O4    S    
C7    H117  S    
C14   H133  S    
C12   H130  S    
C117  H69   S    
C59   O28   S    
C14   H132  S    
C105  C106  S    
C104  H1    S    
Cr1   O8    S    
C29   H29   S    
C30   H30   S    
C111  O4    A    
Cr6   O50   S    
C62   O31   S    
C13   O16   A    
C110  H52   S    
Cr4   O11   S    
C26   O40   S    
C132  H103  S    
C124  H83   S    
C75   O44   S    
C20   H7    S    
C3    H107  S    
Cr6   O17   S    
C59   C85   A    
C38   H49   S    
C48   C95   T    
C110  O22   S    
C25   H17   S    
C5    H113  S    
C60   O29   S    
C15   O35   S    
C67   O8    A    
C21   H9    S    
C69   O38   S    
C120  H76   S    
C15   C16   S    
C26   H19   S    
C8    H119  S    
C118  C119  S    
C1    C40   S    
Cr1   O18   S    
C117  O25   S    
Cr1   O5    S    
C49   C94   T    
C2    C50   S    
C23   C25   S    
Cr5   O16   S    
C58   O27   S    
C112  C113  S    
C130  O29   S    
C121  H78   S    
C24   O2    A    
C69   C74   A    
Cr6   O14   S    
C108  H2    S    
C75   C81   A    
C27   H22   S    
C65   C71   A    
C100  O3    A    
C47   C100  S    
C129  H95   S    
C15   H136  S    
C118  H70   S    
C72   C77   A    
C58   C84   A    
C132  H105  S    
C18   H144  S    
Cr5   O3    S    
C120  O26   S    
C77   C98   S    
C55   C82   A    
C107  O21   S    
C66   O36   S    
C43   C67   S    
C12   C14   S    
C114  H61   S    
C68   C88   A    
C51   C59   A    
C70   C86   A    
Cr3   O23   S    
C9    O32   S    
C71   O40   S    
C104  O20   S    
C68   O37   S    
C33   H40   S    
C54   O24   S    
C22   H10   S    
C100  O11   A    
C51   O20   S    
C116  H64   S    
C50   C93   T    
C19   H4    S    
C115  H62   S    
C34   O44   S    
C6    H114  S    
C63   O32   S    
C12   H129  S    
Cr3   O18   S    
C49   C122  S    
C63   C90   A    
C82   C101  S    
C64   C72   A    
C89   O34   A    
C112  H55   S    
C57   C60   A    
C48   C111  S    
C113  H59   S    
C131  C132  S    
C124  C125  S    
