data_mof_unit_21150.cif
_audit_creation_date              2012-12-10T19:07:02-0500
_audit_creation_method            fapswitch 2.2
_symmetry_space_group_name_H-M    P1
_symmetry_Int_Tables_number       1
_space_group_crystal_system       triclinic
_cell_length_a                    27.805202
_cell_length_b                    10.820943
_cell_length_c                    9.529385
_cell_angle_alpha                 90.001855
_cell_angle_beta                  90.087653
_cell_angle_gamma                 90.180849
_cell_volume                      2867.16948147

loop_
_atom_site_label
_atom_site_type_symbol
_atom_type_description
_atom_site_fract_x
_atom_site_fract_y
_atom_site_fract_z
_atom_type_partial_charge
C1    C     C_R   0.500898 0.262293 0.499963 0.877721
C2    C     C_R   0.278951 0.500017 0.370878 -0.099324
C3    C     C_R   0.253533 0.503316 0.497533 0.353914
C4    C     C_R   0.101703 0.506142 0.491925 -0.043618
C5    C     C_R   0.127118 0.400382 0.448919 -0.021628
C6    C     C_R   0.101770 0.295930 0.404535 -0.143925
C7    C     C_R   0.127577 0.610874 0.537303 -0.021423
C8    C     C_R   0.354463 0.500803 0.499280 -0.034626
C9    C     C_R   0.645310 0.492778 0.500318 -0.090826
C10   C     C_R   0.974053 0.404327 0.433224 0.041813
C11   C     C_R   0.974351 0.611975 0.541241 0.041282
C12   C     C_R   0.407436 0.500072 0.499853 0.807481
C13   C     C_R   0.948947 0.508197 0.487084 0.072528
C14   C     C_R   0.946956 0.306517 0.373563 -0.200512
C15   C     C_R   0.897036 0.308122 0.372823 -0.137356
C16   C     C_R   0.872043 0.407352 0.430787 -0.035475
C17   C     C_R   0.897792 0.508037 0.487256 -0.043137
C18   C     C_R   0.872247 0.608312 0.544354 -0.027647
C19   C     C_R   0.821744 0.605159 0.545882 0.562111
C20   C     C_R   0.821588 0.408295 0.433520 0.602545
C21   C     C_R   0.722855 0.425566 0.595513 0.392159
C22   C     C_R   0.671758 0.419984 0.597682 -0.135295
C23   C     C_R   0.501012 0.737710 0.499970 0.802203
C24   C     C_R   0.669687 0.566892 0.402861 -0.257271
C25   C     C_R   0.719550 0.572066 0.402062 -0.181985
C26   C     C_R   0.746080 0.502458 0.497808 0.335137
C27   C     C_R   0.025110 0.401652 0.440078 0.042228
C28   C     C_R   0.050552 0.507100 0.489691 0.068948
C29   C     C_R   0.025485 0.613392 0.537307 0.042035
C30   C     C_R   0.051860 0.296179 0.400395 -0.204764
C31   C     C_R   0.102663 0.716321 0.579314 -0.143293
C32   C     C_R   0.947462 0.710560 0.598972 -0.202547
C33   C     C_R   0.897510 0.708557 0.600209 -0.138788
C34   C     C_R   0.592421 0.496876 0.500213 0.868687
C35   C     C_R   0.052716 0.717921 0.579146 -0.205024
C36   C     C_R   0.506838 0.063748 0.625800 0.008058
C37   C     C_R   0.505826 0.129330 0.499733 -0.047064
C38   C     C_R   0.511967 0.064514 0.373122 -0.187979
C39   C     C_R   0.512075 0.935643 0.373164 -0.173932
C40   C     C_R   0.506045 0.870728 0.499836 -0.085751
C41   C     C_R   0.507069 0.936257 0.625909 -0.106103
C42   C     C_3   0.474790 0.928053 0.752102 0.169952
C43   C     C_3   0.474564 0.069459 0.752249 0.672870
C44   C     C_R   0.524927 0.588385 0.073773 0.281708
C45   C     C_R   0.177592 0.401174 0.452355 0.536096
C46   C     C_R   0.471636 0.420728 0.074351 -0.063441
C47   C     C_R   0.471544 0.420965 0.925323 -0.029888
C48   C     C_R   0.524989 0.588199 0.926319 0.331942
C49   C     C_3   0.577800 0.611798 0.920576 -0.487965
C50   C     C_3   0.577756 0.612110 0.079752 -0.521107
C51   C     C_R   0.178070 0.608050 0.538439 0.536045
C52   C     C_R   0.278587 0.505301 0.625126 -0.099590
C53   C     C_R   0.328747 0.503947 0.626155 -0.204312
C54   C     C_R   0.329076 0.498820 0.371577 -0.209246
Cu1   Cu    Cu3+1 0.500000 0.499980 0.640670 1.002159
Cu2   Cu    Cu3+1 0.500000 0.500020 0.359330 0.959746
H1    H     H_    0.347880 0.496376 0.272178 0.160017
H2    H     H_    0.259127 0.507435 0.723437 0.143244
H3    H     H_    0.121720 0.798743 0.612714 0.189448
H4    H     H_    0.963809 0.790278 0.647097 0.141382
H5    H     H_    0.649967 0.623313 0.328738 0.164742
H6    H     H_    0.878727 0.786270 0.646031 0.189948
H7    H     H_    0.737793 0.630121 0.326265 0.166324
H8    H     H_    0.036658 0.803933 0.610515 0.140339
H9    H     H_    0.514286 0.112610 0.273659 0.180883
H10   H     H_    0.514459 0.887550 0.273718 0.177605
H11   H     H_    0.439353 0.884709 0.728643 0.139752
H12   H     H_    0.259783 0.498706 0.271878 0.142975
H13   H     H_    0.449460 0.354870 0.130239 0.153015
H14   H     H_    0.449163 0.355658 0.869175 0.187756
H15   H     H_    0.598265 0.533098 0.875881 0.215401
H16   H     H_    0.586425 0.703472 0.874312 0.202702
H17   H     H_    0.598243 0.533557 0.124970 0.226029
H18   H     H_    0.586272 0.704084 0.125608 0.198050
H19   H     H_    0.120452 0.212786 0.372813 0.189190
H20   H     H_    0.878063 0.230495 0.326638 0.188951
H21   H     H_    0.963125 0.227505 0.324122 0.140877
H22   H     H_    0.035409 0.210653 0.367965 0.140322
H23   H     H_    0.347320 0.505461 0.726121 0.159924
N1    N     N_R   0.201948 0.504144 0.496399 -0.468631
N2    N     N_R   0.797608 0.505723 0.491763 -0.443276
N3    N     N_R   0.500300 0.500930 0.147930 -0.199414
N4    N     N_R   0.500310 0.500890 0.852020 -0.204531
O1    O     O_R   0.500000 0.319640 0.618810 -0.530245
O2    O     O_2   0.796613 0.312568 0.378733 -0.521132
O3    O     O_2   0.203132 0.708600 0.580151 -0.532143
O4    O     O_2   0.796940 0.700057 0.601974 -0.530824
O5    O     O_R   0.500010 0.319680 0.381230 -0.602902
O6    O     O_R   0.430260 0.500000 0.618780 -0.587244
O7    O     O_R   0.430270 0.500040 0.381190 -0.588231
O8    O     O_R   0.499990 0.680320 0.618770 -0.565218
O9    O     O_R   0.500000 0.680360 0.381190 -0.588208
O10   O     O_R   0.569730 0.499960 0.618810 -0.568362
O11   O     O_R   0.569740 0.500000 0.381220 -0.592771
O12   O     O_2   0.202171 0.299614 0.412853 -0.531085
O13   O     O_3   0.497091 0.875580 0.870821 -0.713786
H24   H     H_    0.531923 0.896085 0.869345 0.325081
O14   O     O_3   0.429349 0.119487 0.720752 -0.749222
H25   H     H_    0.409223 0.106434 0.805396 0.334122
O15   O     O_3   0.495571 0.124830 0.871731 -0.717662
H26   H     H_    0.531070 0.116833 0.865673 0.321991
C55   C     C_2   0.646852 0.338112 0.699738 0.345547
H27   H     H_    0.659632 0.331887 0.807142 0.074353
O16   O     O_2   0.612718 0.274231 0.663789 -0.541851
O17   O     O_3   0.751693 0.356840 0.684354 -0.711946
H28   H     H_    0.733186 0.287293 0.724485 0.324188

loop_
_geom_bond_atom_site_label_1
_geom_bond_atom_site_label_2
_ccdc_geom_bond_type
C10   C27   A    
C21   C26   A    
C24   H5    S    
C41   C42   S    
C43   O14   S    
Cu1   O10   S    
C6    H19   S    
C1    O1    A    
Cu2   O11   S    
C42   O13   S    
C12   O7    A    
C28   C29   A    
C53   H23   S    
C2    H12   S    
C50   H18   S    
C5    C6    A    
C9    C22   A    
Cu2   O5    S    
C42   H11   S    
C23   C40   S    
C18   C19   A    
C25   H7    S    
C14   H21   S    
C31   H3    S    
C51   N1    A    
C46   H13   S    
Cu1   O8    S    
C46   N3    A    
C33   H6    S    
C49   H16   S    
C34   O10   A    
C35   H8    S    
C47   N4    A    
C16   C20   A    
C1    O5    A    
Cu2   O7    S    
C15   H20   S    
C21   C22   A    
O13   H24   S    
C27   C30   A    
C36   C41   A    
C4    C7    A    
C3    N1    S    
C51   O3    S    
C4    C28   A    
C7    C31   A    
C12   O6    A    
C24   C25   A    
C10   C14   A    
C50   H17   S    
C8    C54   A    
C39   C40   A    
C16   C17   A    
C25   C26   A    
C5    C45   A    
C47   H14   S    
C37   C38   A    
C38   H9    S    
C8    C12   S    
C20   O2    S    
Cu1   Cu2   S    
C17   C18   A    
C43   O15   S    
C55   O16   D    
C52   H2    S    
C40   C41   A    
C6    C30   A    
C11   C32   A    
O14   H25   S    
C26   N2    S    
C2    C54   A    
C9    C34   S    
C39   H10   S    
C31   C35   A    
C42   C43   S    
C32   H4    S    
Cu1   N4    S    
C45   O12   S    
C52   C53   A    
C44   C50   S    
C46   C47   A    
C48   C49   S    
C14   C15   A    
C34   O11   A    
C4    C5    A    
C10   C13   A    
C8    C53   A    
C3    C52   A    
C9    C24   A    
Cu2   N3    S    
C1    C37   S    
O17   H28   S    
C29   C35   A    
C44   N3    A    
C22   C55   S    
C48   N4    A    
C13   C17   A    
C32   C33   A    
C2    C3    A    
C19   O4    S    
C7    C51   A    
Cu1   O6    S    
C19   N2    A    
C11   C13   A    
C38   C39   A    
O15   H26   S    
C45   N1    A    
C23   O8    A    
C55   H27   S    
C18   C33   A    
C30   H22   S    
C44   C48   A    
Cu2   O9    S    
C11   C29   A    
C36   C37   A    
C49   C50   S    
C49   H15   S    
C27   C28   A    
C23   O9    A    
C36   C43   S    
Cu1   O1    S    
C20   N2    A    
C21   O17   S    
C15   C16   A    
C54   H1    S    
