data_mof_unit_12527.cif
_audit_creation_date              2012-12-11T15:46:40-0500
_audit_creation_method            fapswitch 2.2
_symmetry_space_group_name_H-M    P1
_symmetry_Int_Tables_number       1
_space_group_crystal_system       triclinic
_cell_length_a                    11.541342
_cell_length_b                    11.554503
_cell_length_c                    19.506629
_cell_angle_alpha                 90.49678
_cell_angle_beta                  89.525355
_cell_angle_gamma                 59.596091
_cell_volume                      2243.23719237

loop_
_atom_site_label
_atom_site_type_symbol
_atom_type_description
_atom_site_fract_x
_atom_site_fract_y
_atom_site_fract_z
_atom_type_partial_charge
C1    C     C_R   0.641462 0.119065 0.598500 0.555425
C2    C     C_1   0.661964 0.160371 0.664685 0.004947
C3    C     C_R   0.705393 0.566755 0.205837 0.011146
C4    C     C_R   0.612451 0.745812 0.598529 0.544679
C5    C     C_R   0.590136 0.590941 0.241225 -0.001866
C6    C     C_R   0.571714 0.627289 0.308762 0.011473
C7    C     C_R   0.793622 0.598067 0.313106 -0.166436
C8    C     C_R   0.813250 0.558163 0.243570 -0.163084
C9    C     C_3   0.444628 0.679863 0.225005 -0.261267
C10   C     C_3   0.423341 0.718827 0.299889 -0.229659
C11   C     C_R   0.666005 0.647087 0.343514 0.018761
C12   C     C_1   0.641032 0.703385 0.667817 0.006868
C13   C     C_R   0.120547 0.204130 0.197076 0.026166
C14   C     C_R   0.154129 0.288037 0.230895 -0.024649
C15   C     C_R   0.181217 0.273813 0.298951 -0.002587
C16   C     C_R   0.239975 0.145969 0.597922 0.555708
C17   C     C_R   0.118768 0.103563 0.307960 0.015083
C18   C     C_R   0.094074 0.115753 0.236546 0.043304
C19   C     C_3   0.261643 0.319009 0.214162 -0.273332
C20   C     C_3   0.293481 0.302149 0.289679 -0.241351
C21   C     C_R   0.174578 0.175461 0.337392 -0.020418
C22   C     C_R   0.656888 0.188350 0.190178 0.011089
C23   C     C_1   0.127552 0.198094 0.859394 0.003980
C24   C     C_R   0.694773 0.060557 0.213329 0.001329
C25   C     C_R   0.694710 0.037796 0.282059 0.009108
C26   C     C_R   0.594273 0.272346 0.307720 -0.165287
C27   C     C_R   0.591786 0.296125 0.237253 -0.165536
C28   C     C_R   0.644982 0.111314 0.401869 0.560248
C29   C     C_3   0.807201 0.921185 0.198439 -0.273250
C30   C     C_3   0.808189 0.897287 0.275234 -0.269381
C31   C     C_R   0.657978 0.139768 0.331087 0.029362
C32   C     C_R   0.082674 0.230571 0.928807 0.540650
C33   C     C_R   0.684039 0.604507 0.929560 0.548907
C34   C     C_1   0.170349 0.170895 0.727578 -0.030070
C35   C     C_R   0.741264 0.230922 0.922794 0.557162
C36   C     C_R   0.078400 0.237283 0.126606 0.558096
C37   C     C_R   0.711420 0.546085 0.132241 0.566438
C38   C     C_R   0.704653 0.210345 0.125460 0.553796
C39   C     C_R   0.619613 0.733537 0.404046 0.535688
C40   C     C_R   0.242253 0.142260 0.402456 0.566553
C41   C     C_1   0.671133 0.646208 0.860125 0.003537
C42   C     C_1   0.654903 0.683051 0.728269 -0.029573
C43   C     C_1   0.664074 0.666170 0.799596 -0.030673
C44   C     C_2   0.083280 0.020735 0.351602 0.572046
C45   C     C_1   0.150224 0.182002 0.798876 -0.031244
C46   C     C_1   0.193706 0.161993 0.667124 0.008283
C47   C     C_1   0.715265 0.217765 0.852153 0.001868
C48   C     C_1   0.678019 0.184979 0.722861 -0.027376
C49   C     C_1   0.697068 0.205044 0.792441 -0.029530
Cr1   Cr    Cr6+3 0.404720 0.198220 0.499960 1.027994
Cr2   Cr    Cr6+3 0.698290 0.897110 0.500380 1.039429
Cr3   Cr    Cr6+3 0.396970 0.904720 0.499610 1.059770
Cr4   Cr    Cr6+3 0.926290 0.152010 0.028150 1.033667
Cr5   Cr    Cr6+3 0.921440 0.451830 0.027490 1.020293
Cr6   Cr    Cr6+3 0.626370 0.446880 0.028730 1.018997
H1    H     H_    0.872028 0.604133 0.340116 0.128847
H2    H     H_    0.900274 0.881438 0.300900 0.174935
H3    H     H_    0.907428 0.532040 0.218397 0.146756
H4    H     H_    0.394499 0.623632 0.209053 0.134929
H5    H     H_    0.425672 0.764926 0.191459 0.162591
H6    H     H_    0.389426 0.826768 0.308466 0.173668
H7    H     H_    0.364226 0.681745 0.327620 0.170256
H8    H     H_    0.220048 0.423944 0.196813 0.146620
H9    H     H_    0.091582 0.844271 0.366222 0.329632
H10   H     H_    0.107616 0.940426 0.207363 0.256924
H11   H     H_    0.950518 0.065442 0.231683 0.249586
H12   H     H_    0.343159 0.240705 0.181113 0.143041
H13   H     H_    0.392475 0.212557 0.300351 0.157265
H14   H     H_    0.272767 0.396699 0.315899 0.146212
H15   H     H_    0.548774 0.356440 0.343533 0.129717
H16   H     H_    0.548671 0.397381 0.220052 0.139150
H17   H     H_    0.900748 0.914923 0.179103 0.169829
H18   H     H_    0.773490 0.862172 0.167908 0.151060
H19   H     H_    0.775327 0.825561 0.288262 0.149953
N1    N     N_3   0.038256 0.043099 0.204807 -0.575421
O1    O     O_R   0.267750 0.231960 0.575440 -0.504967
O2    O     O_R   0.596230 0.579400 0.952760 -0.506822
O3    O     O_R   0.639160 0.321170 0.958690 -0.488093
O4    O     O_R   0.527290 0.186640 0.570530 -0.494081
O5    O     O_R   0.821370 0.124220 0.104400 -0.496517
O6    O     O_R   0.037020 0.167050 0.097880 -0.462315
O7    O     O_R   0.056310 0.349620 0.102920 -0.530893
O8    O     O_R   0.797790 0.564880 0.097980 -0.504142
O9    O     O_R   0.596000 0.584270 0.104310 -0.518031
O10   O     O_R   0.638950 0.325690 0.099180 -0.520008
O11   O     O_3   0.824700 0.350240 0.028120 -0.299562
O12   O     O_R   0.685950 0.784660 0.430010 -0.509847
O13   O     O_R   0.728110 0.003450 0.576380 -0.495954
O14   O     O_R   0.682980 0.789190 0.570500 -0.495061
O15   O     O_R   0.499300 0.771880 0.575540 -0.503888
O16   O     O_R   0.285350 0.030870 0.569740 -0.483195
O17   O     O_R   0.270960 0.227070 0.423890 -0.522187
O18   O     O_R   0.530270 0.182120 0.430040 -0.515627
O19   O     O_R   0.731320 0.998570 0.424830 -0.497654
O20   O     O_2   0.026423 0.065462 0.406894 -0.503917
O21   O     O_R   0.115878 0.891872 0.330439 -0.761606
O22   O     O_R   0.502510 0.767000 0.423980 -0.518507
O23   O     O_R   0.288320 0.026340 0.429250 -0.476387
O24   O     O_3   0.499990 0.000020 0.499980 -0.264640
O25   O     O_R   0.821590 0.119350 0.952850 -0.498399
O26   O     O_R   0.037230 0.162540 0.957390 -0.509571
O27   O     O_R   0.056530 0.344750 0.951370 -0.500250
O28   O     O_R   0.798000 0.560370 0.957490 -0.488704

loop_
_geom_bond_atom_site_label_1
_geom_bond_atom_site_label_2
_ccdc_geom_bond_type
C25   C31   A    
C18   N1    S    
C23   C45   T    
Cr3   O15   S    
C19   C20   S    
C39   O12   A    
C35   C47   S    
Cr1   O4    S    
C7    C8    A    
C47   C49   T    
C7    C11   A    
Cr1   O24   S    
C13   C18   A    
C28   O19   A    
C40   O23   A    
C5    C6    A    
Cr6   O2    S    
C39   O22   A    
C29   H18   S    
C22   C38   S    
C30   H2    S    
Cr3   O22   S    
Cr4   O6    S    
C1    C2    S    
C36   O7    A    
C30   H19   S    
C24   C29   S    
C12   C42   T    
C8    H3    S    
C19   H8    S    
C37   O9    A    
C19   H12   S    
Cr4   O11   S    
C34   C46   T    
C4    C12   S    
C9    C10   S    
C29   H17   S    
C1    O13   A    
C26   C31   A    
C16   O1    A    
C13   C14   A    
C41   C43   T    
C10   H7    S    
C7    H1    S    
Cr5   O8    S    
Cr5   O27   S    
C4    O15   A    
Cr4   O25   S    
Cr2   O24   S    
C15   C20   S    
C38   O10   A    
Cr5   O28   S    
Cr4   O5    S    
C24   C25   A    
H9    O21   S    
C13   C36   S    
C3    C8    A    
C16   C46   S    
C6    C11   A    
Cr5   O11   S    
Cr6   O3    S    
C2    C48   T    
C17   C21   A    
C28   O18   A    
C9    H4    S    
Cr6   O10   S    
C5    C9    S    
C29   C30   S    
C44   O21   S    
Cr1   O1    S    
C14   C15   A    
C36   O6    A    
C17   C18   A    
C26   C27   A    
C34   C45   S    
C40   O17   A    
C11   C39   S    
Cr1   O17   S    
C48   C49   S    
C22   C27   A    
C26   H15   S    
C32   O27   A    
C20   H14   S    
C10   H6    S    
C42   C43   S    
Cr2   O12   S    
C35   O25   A    
Cr5   O7    S    
C27   H16   S    
C4    O14   A    
C25   C30   S    
C35   O3    A    
C33   O28   A    
C14   C19   S    
C20   H13   S    
C28   C31   S    
C3    C5    A    
Cr2   O13   S    
C6    C10   S    
Cr1   O18   S    
Cr3   O24   S    
Cr4   O26   S    
H10   N1    S    
C9    H5    S    
C33   C41   S    
C23   C32   S    
Cr6   O11   S    
C17   C44   S    
C44   O20   D    
Cr2   O14   S    
C33   O2    A    
C21   C40   S    
C38   O5    A    
C1    O4    A    
H11   N1    S    
Cr3   O23   S    
C22   C24   A    
Cr2   O19   S    
C15   C21   A    
C3    C37   S    
C16   O16   A    
C32   O26   A    
C37   O8    A    
Cr3   O16   S    
Cr6   O9    S    
