data_mof_unit_46692.cif
_audit_creation_date              2013-03-05T16:43:17-0500
_audit_creation_method            fapswitch 2.2
_symmetry_space_group_name_H-M    P1
_symmetry_Int_Tables_number       1
_space_group_crystal_system       triclinic
_cell_length_a                    15.739542
_cell_length_b                    10.70064
_cell_length_c                    9.900004
_cell_angle_alpha                 89.998281
_cell_angle_beta                  91.6971
_cell_angle_gamma                 90.414875
_cell_volume                      1666.61497955

loop_
_atom_site_label
_atom_site_type_symbol
_atom_site_description
_atom_site_fract_x
_atom_site_fract_y
_atom_site_fract_z
_atom_type_partial_charge
O1    O     O_R   0.500010 0.316790 0.614690 -0.618131
O2    O     O_R   0.500000 0.316760 0.385350 -0.612501
C1    C     C_R   0.497754 0.260205 0.500165 0.917975
O3    O     O_R   0.377150 0.500020 0.614720 -0.588699
O4    O     O_R   0.377140 0.499990 0.385380 -0.626988
C2    C     C_R   0.338309 0.499887 0.498322 0.894616
Zn1   Zn    Zn3+2 0.500010 0.500020 0.653130 1.069222
Zn2   Zn    Zn3+2 0.499990 0.499980 0.346870 1.003510
O5    O     O_R   0.500000 0.683240 0.614650 -0.591304
O6    O     O_R   0.499990 0.683210 0.385310 -0.625333
O7    O     O_R   0.622860 0.500010 0.614620 -0.538890
O8    O     O_R   0.622850 0.499980 0.385280 -0.625002
C3    C     C_R   0.498609 0.739860 0.499896 0.881418
C4    C     C_R   0.661623 0.499601 0.501862 0.938585
C5    C     C_3   0.052973 0.547539 0.630944 -0.389917
C6    C     C_3   0.050939 0.347892 0.494220 0.045815
C7    C     C_3   0.950737 0.341057 0.510030 0.077468
H1    H     H_    0.930585 0.518872 0.725691 0.228248
H2    H     H_    0.075599 0.491776 0.719687 0.256584
H3    H     H_    0.083202 0.301190 0.581669 0.184260
C8    C     C_1   0.750381 0.493800 0.506442 -0.012211
C9    C     C_3   0.082525 0.487029 0.498204 0.116374
C10   C     C_3   0.955063 0.554995 0.628800 -0.438873
C11   C     C_3   0.917089 0.480922 0.505415 0.084908
C12   C     C_3   0.946618 0.549074 0.375867 -0.339235
C13   C     C_3   0.043839 0.563316 0.379052 -0.361615
C14   C     C_1   0.825555 0.487531 0.508188 0.051266
C15   C     C_1   0.174014 0.492692 0.495231 0.001711
C16   C     C_1   0.249329 0.496663 0.495010 -0.047263
H4    H     H_    0.061056 0.663864 0.391988 0.202135
H5    H     H_    0.069234 0.535117 0.280633 0.215572
H6    H     H_    0.917740 0.643688 0.368580 0.192554
H7    H     H_    0.080361 0.643284 0.643152 0.219495
H8    H     H_    0.935707 0.654781 0.621893 0.225384
H9    H     H_    0.925904 0.498217 0.282857 0.252993
C17   C     C_R   0.500073 0.063682 0.622928 0.011143
C18   C     C_R   0.487235 0.128525 0.501870 -0.106429
C19   C     C_R   0.461317 0.064470 0.383917 -0.109026
H10   H     H_    0.445169 0.113598 0.291105 0.188461
C20   C     C_R   0.461913 0.935084 0.383410 -0.156613
H11   H     H_    0.445874 0.885803 0.290416 0.189348
C21   C     C_R   0.488766 0.871474 0.500685 -0.076826
C22   C     C_R   0.501904 0.936055 0.621285 0.049228
C23   C     C_3   0.573903 0.927870 0.722762 -0.449263
C24   C     C_3   0.571557 0.070150 0.727630 0.462615
H12   H     H_    0.554042 0.881562 0.817409 0.242918
H13   H     H_    0.632157 0.888439 0.679036 0.240090
C25   C     C_R   0.426910 0.477079 0.067463 0.119615
N1    N     N_R   0.499430 0.499140 0.142800 -0.136297
C26   C     C_R   0.570760 0.531146 0.076189 -0.122699
H14   H     H_    0.627936 0.556129 0.133451 0.190014
C27   C     C_R   0.571286 0.531525 0.932976 0.358699
N2    N     N_R   0.499430 0.499180 0.857150 -0.182839
C28   C     C_R   0.426237 0.480441 0.925030 0.119387
C29   C     C_3   0.369897 0.367701 0.913177 0.066109
C30   C     C_3   0.374413 0.359990 0.067918 -0.389333
H15   H     H_    0.400570 0.289693 0.859973 0.175850
H16   H     H_    0.411508 0.278085 0.105076 0.178790
N3    N     N_R   0.544711 0.116492 0.859597 0.190718
O9    O     O_R   0.600672 0.162311 0.945786 -0.307265
O10   O     O_R   0.470507 0.084392 0.903543 -0.431399
N4    N     N_R   0.648555 0.131992 0.677951 0.210460
O11   O     O_R   0.687118 0.086686 0.574386 -0.350143
O12   O     O_R   0.670327 0.242824 0.721229 -0.275169
N5    N     N_R   0.648041 0.566924 0.869815 0.230955
O13   O     O_R   0.651734 0.673171 0.806708 -0.411432
O14   O     O_R   0.718444 0.510129 0.902886 -0.331757
N6    N     N_R   0.284953 0.395492 0.856325 0.238161
O15   O     O_R   0.231864 0.304164 0.831131 -0.339083
O16   O     O_R   0.261097 0.509842 0.832234 -0.352171
C31   C     C_2   0.291995 0.376376 0.138936 1.086525
O17   O     O_2   0.265160 0.291623 0.208928 -0.561816
O18   O     O_R   0.247171 0.488287 0.126616 -0.742392
H17   H     H_    0.193097 0.487004 0.179245 0.344112
N7    N     N_R   0.080087 0.282213 0.373285 0.250836
O19   O     O_R   0.131543 0.188155 0.387542 -0.291188
O20   O     O_R   0.052711 0.312267 0.252329 -0.324507
C32   C     C_2   0.927133 0.282195 0.645646 0.891596
O21   O     O_2   0.853487 0.250204 0.662967 -0.482744
O22   O     O_R   0.987414 0.266695 0.751044 -0.786494
H18   H     H_    0.962332 0.227984 0.834564 0.395311
N8    N     N_R   0.911432 0.260343 0.403110 0.256742
O23   O     O_R   0.853669 0.301183 0.317609 -0.332271
O24   O     O_R   0.929367 0.141689 0.401189 -0.282660

loop_
_geom_bond_atom_site_label_1
_geom_bond_atom_site_label_2
_geom_bond_distance
_ccdc_geom_bond_type
C29   C30   1.533724 S    
C6    N7    1.474817 S    
O18   H17   1.011000 S    
C11   C14   1.444023 S    
N7    O19   1.301486 A    
C29   N6    1.467619 S    
N2    C28   1.364361 A    
C27   N2    1.380761 A    
C25   C28   1.410277 A    
N4    O11   1.302235 A    
C4    C8    1.398231 S    
C15   C16   1.185944 T    
O4    C2    1.290054 A    
O7    C4    1.287934 A    
C32   O22   1.400048 S    
C24   N4    1.473839 S    
Zn1   O5    1.997229 S    
C7    N8    1.484128 S    
N1    C26   1.360476 A    
O5    C3    1.287198 A    
N4    O12   1.301150 A    
C5    H2    1.113219 S    
C5    C9    1.550197 S    
C24   N3    1.472108 S    
C6    C7    1.590658 S    
N5    O14   1.301034 A    
C17   C18   1.395086 A    
C26   C27   1.418090 A    
C10   C11   1.558061 S    
C23   H13   1.111412 S    
C6    H3    1.111180 S    
C10   H8    1.114047 S    
C12   H6    1.114233 S    
C5    C10   1.543226 S    
C8    C14   1.185198 T    
C13   H5    1.106794 S    
C9    C15   1.442009 S    
O3    Zn1   1.959712 S    
C3    C21   1.418017 S    
C23   H12   1.111904 S    
N3    O10   1.302155 A    
C7    C11   1.591406 S    
H1    C10   1.112495 S    
C11   C12   1.556615 S    
O3    C2    1.288366 A    
C31   O18   1.397783 S    
C32   O21   1.223212 D    
N6    O15   1.300514 A    
C12   C13   1.536076 S    
O1    C1    1.284803 A    
Zn1   O7    1.981877 S    
C22   C23   1.495039 S    
C18   C19   1.402713 A    
Zn2   O8    1.959712 S    
C30   C31   1.505035 S    
C26   H14   1.081212 S    
C17   C24   1.508290 S    
N7    O20   1.301705 A    
C12   H9    1.109056 S    
N6    O16   1.302476 A    
C20   H11   1.083385 S    
O8    C4    1.289521 A    
N8    O23   1.301618 A    
N8    O24   1.302938 A    
C29   H15   1.108255 S    
C21   C22   1.388946 A    
Zn1   N2    2.020109 S    
C23   C24   1.524001 S    
C25   C30   1.495929 S    
C28   C29   1.494608 S    
C25   N1    1.364017 A    
C6    C9    1.566367 S    
O1    Zn1   1.997280 S    
O2    Zn2   1.997229 S    
O22   H18   1.013934 S    
O6    C3    1.287047 A    
O4    Zn2   1.981876 S    
C13   H4    1.114086 S    
O2    C1    1.289007 A    
C31   O17   1.221800 D    
C19   C20   1.384626 A    
C19   H10   1.083187 S    
C20   C21   1.401772 A    
C7    C32   1.537338 S    
C30   H16   1.113115 S    
N3    O9    1.301351 A    
C2    C16   1.400086 S    
C1    C18   1.417715 S    
Zn2   O6    1.997280 S    
N5    O13   1.299013 A    
C9    C13   1.547002 S    
C17   C22   1.366313 A    
Zn2   N1    2.020072 S    
C5    H7    1.113836 S    
C27   N5    1.425498 S    
