data_mof_unit_39559.cif
_audit_creation_date              2012-12-10T17:48:47-0500
_audit_creation_method            fapswitch 2.2
_symmetry_space_group_name_H-M    P1
_symmetry_Int_Tables_number       1
_space_group_crystal_system       triclinic
_cell_length_a                    10.759362
_cell_length_b                    14.692646
_cell_length_c                    14.749944
_cell_angle_alpha                 64.91864
_cell_angle_beta                  104.305673
_cell_angle_gamma                 103.109727
_cell_volume                      2026.47863449

loop_
_atom_site_label
_atom_site_type_symbol
_atom_type_description
_atom_site_fract_x
_atom_site_fract_y
_atom_site_fract_z
_atom_type_partial_charge
C1    C     C_R   0.479900 0.119796 0.312145 0.782554
C2    C     C_3   0.877883 0.998562 0.502462 -0.002555
C3    C     C_3   0.925406 0.895526 0.580109 -0.136211
C4    C     C_3   0.965138 0.090105 0.523995 -0.373697
C5    C     C_R   0.459071 0.187614 0.204278 -0.065445
C6    C     C_R   0.515171 0.812775 0.794602 -0.036967
C7    C     C_R   0.393802 0.215680 0.026474 -0.207462
C8    C     C_R   0.417974 0.149417 0.127818 -0.199981
C9    C     C_R   0.474481 0.292282 0.178473 -0.267512
C10   C     C_R   0.445551 0.360339 0.077344 0.087441
C11   C     C_R   0.408104 0.320615 0.000658 0.167930
C12   C     C_R   0.259416 0.001569 0.497440 0.796805
C13   C     C_R   0.456912 0.466778 0.050296 0.066894
C14   C     C_R   0.445711 0.532907 0.945963 0.063404
C15   C     C_R   0.405145 0.490086 0.871758 -0.236786
C16   C     C_R   0.385663 0.385892 0.898995 -0.244039
C17   C     C_R   0.477400 0.509184 0.123861 -0.217958
C18   C     C_R   0.497702 0.613446 0.096718 -0.229793
C19   C     C_R   0.500589 0.679132 0.995902 0.162869
C20   C     C_R   0.474749 0.639634 0.919506 0.083172
C21   C     C_R   0.530251 0.784181 0.970714 -0.213663
C22   C     C_R   0.537507 0.850707 0.870562 -0.191717
C23   C     C_R   0.518215 0.880300 0.687726 0.809617
C24   C     C_R   0.484090 0.708237 0.819550 -0.265840
C25   C     C_R   0.709199 0.279844 0.675524 -0.278031
C26   C     C_R   0.679265 0.200746 0.642236 0.046968
C27   C     C_R   0.519724 0.285944 0.508193 0.039356
C28   C     C_R   0.546716 0.370200 0.537176 -0.092766
C29   C     C_R   0.642540 0.364616 0.624272 0.055602
C30   C     C_R   0.481702 0.458348 0.483854 0.077608
C31   C     C_R   0.513364 0.539355 0.519010 0.039097
C32   C     C_R   0.607082 0.528691 0.607383 -0.329570
C33   C     C_R   0.669275 0.442502 0.660431 0.491429
C34   C     C_R   0.740232 0.998455 0.502550 0.806261
C35   C     C_R   0.387026 0.468670 0.395951 -0.237174
C36   C     C_R   0.325106 0.554376 0.344324 -0.167072
C37   C     C_R   0.355094 0.634447 0.377031 0.051348
C38   C     C_R   0.450005 0.628439 0.464649 -0.051229
C39   C     C_R   0.292709 0.721621 0.321878 0.378974
C40   C     C_R   0.323128 0.800654 0.356026 -0.049112
C41   C     C_R   0.478069 0.713133 0.492951 -0.027844
C42   C     C_3   0.035472 0.022621 0.386304 0.917786
C43   C     C_3   0.890376 0.012019 0.394451 -0.434043
C44   C     C_3   0.070434 0.899865 0.579532 -0.484113
C45   C     C_3   0.108355 0.086396 0.529784 -0.406577
C46   C     C_3   0.120898 0.001425 0.496602 0.009659
Cu1   Cu    Cu3+1 0.465900 0.918260 0.475680 0.930535
Cu2   Cu    Cu3+1 0.534100 0.081740 0.524320 0.932102
H1    H     H_    0.950337 0.092909 0.594497 0.172035
H2    H     H_    0.130204 0.893572 0.654699 0.180118
H3    H     H_    0.355081 0.356330 0.839738 0.145537
H4    H     H_    0.473262 0.681701 0.760019 0.148168
H5    H     H_    0.560649 0.931469 0.852692 0.151331
H6    H     H_    0.513932 0.642759 0.155524 0.145763
H7    H     H_    0.363771 0.184891 0.968170 0.129288
H8    H     H_    0.404652 0.068590 0.146235 0.149390
H9    H     H_    0.511638 0.319244 0.238717 0.156002
H10   H     H_    0.384170 0.534845 0.791508 0.150107
H11   H     H_    0.475231 0.463736 0.203235 0.141243
H12   H     H_    0.548947 0.814771 0.028733 0.129768
H13   H     H_    0.551301 0.716902 0.556127 0.133126
H14   H     H_    0.275309 0.867621 0.314771 0.167296
H15   H     H_    0.253557 0.557921 0.277169 0.189784
H16   H     H_    0.783174 0.273707 0.741914 0.182954
H17   H     H_    0.729178 0.134817 0.682868 0.126451
H18   H     H_    0.445302 0.281708 0.445719 0.120046
H19   H     H_    0.847915 0.081150 0.337465 0.172180
H20   H     H_    0.635103 0.586170 0.638207 0.139066
H21   H     H_    0.358449 0.411818 0.364076 0.128204
H22   H     H_    0.828303 0.950263 0.373359 0.153014
H23   H     H_    0.085426 0.832336 0.570465 0.173602
H24   H     H_    0.871443 0.837597 0.549660 0.129597
H25   H     H_    0.160977 0.072371 0.608565 0.170211
H26   H     H_    0.153339 0.162151 0.481034 0.212666
H27   H     H_    0.937755 0.162360 0.461572 0.199807
N1    N     N_R   0.585360 0.204570 0.560800 -0.175151
N2    N     N_R   0.414550 0.795430 0.439160 -0.205804
O1    O     O_R   0.455060 0.022100 0.338110 -0.586424
O2    O     O_R   0.512640 0.160150 0.379180 -0.588531
O3    O     O_R   0.288900 0.930980 0.479450 -0.572383
O4    O     O_R   0.346480 0.069030 0.520520 -0.592510
O5    O     O_R   0.487360 0.839850 0.620820 -0.590726
O6    O     O_R   0.544940 0.977900 0.661890 -0.589758
O7    O     O_R   0.653520 0.930970 0.479480 -0.589823
O8    O     O_R   0.711100 0.069020 0.520550 -0.584688
O9    O     O_3   0.052837 0.962197 0.335813 -0.610708
C47   C     C_3   0.017320 0.855913 0.380426 -0.365475
H28   H     H_    0.938751 0.830086 0.424957 0.139451
H29   H     H_    0.102981 0.818387 0.427242 0.200330
H30   H     H_    0.982781 0.827833 0.318328 0.209305
C48   C     C_R   0.897046 0.857332 0.687993 0.137818
C49   C     C_R   0.812871 0.766136 0.724957 -0.149978
C50   C     C_R   0.793210 0.724351 0.825660 -0.121931
C51   C     C_R   0.853880 0.774312 0.890362 -0.086958
C52   C     C_R   0.937322 0.864778 0.855179 -0.162720
C53   C     C_R   0.960359 0.905391 0.755301 -0.147553
H31   H     H_    0.764375 0.725790 0.676529 0.109615
H32   H     H_    0.730856 0.652975 0.853561 0.132927
H33   H     H_    0.837394 0.742298 0.968060 0.141250
H34   H     H_    0.986489 0.902438 0.906037 0.128173
H35   H     H_    0.031297 0.971947 0.732953 0.121366
O10   O     O_3   0.067677 0.128213 0.325587 -0.635369
C54   C     C_3   0.147326 0.148457 0.254382 -0.233610
H36   H     H_    0.089073 0.133563 0.187318 0.197246
H37   H     H_    0.228379 0.103112 0.288327 0.167578
H38   H     H_    0.189062 0.229813 0.228049 0.164992
O11   O     O_3   0.763244 0.437335 0.745122 -0.582694
C55   C     C_3   0.702013 0.416371 0.827496 -0.323876
H39   H     H_    0.629913 0.346285 0.841392 0.159808
H40   H     H_    0.655388 0.481682 0.815683 0.163851
H41   H     H_    0.776625 0.403394 0.897063 0.199465
O12   O     O_3   0.197620 0.727528 0.237797 -0.584574
C56   C     C_3   0.251302 0.790053 0.149530 -0.348807
H42   H     H_    0.335995 0.760284 0.146493 0.158465
H43   H     H_    0.279224 0.869746 0.143879 0.152519
H44   H     H_    0.176909 0.790670 0.082152 0.198879

loop_
_geom_bond_atom_site_label_1
_geom_bond_atom_site_label_2
_ccdc_geom_bond_type
C24   H4    S    
C47   H28   S    
C50   C51   A    
C23   O5    A    
Cu2   N1    S    
C52   C53   A    
C33   O11   S    
C16   H3    S    
C7    H7    S    
C8    H8    S    
C7    C8    A    
C45   C46   S    
Cu2   O4    S    
C7    C11   A    
C23   O6    A    
C30   C35   A    
C1    C5    S    
Cu2   O2    S    
C3    C48   S    
C36   C37   A    
C19   C21   A    
C18   C19   A    
C41   N2    A    
C30   C31   A    
C15   C16   A    
C6    C22   A    
C29   C33   A    
C40   H14   S    
C55   H39   S    
C44   H23   S    
C45   H25   S    
C38   C41   A    
C42   C46   S    
Cu1   O5    S    
C20   C24   A    
C4    H27   S    
C54   H36   S    
C48   C53   A    
C19   C20   A    
C26   N1    A    
O11   C55   S    
C42   O9    S    
C41   H13   S    
C36   H15   S    
C9    C10   A    
C32   H20   S    
C56   H44   S    
C2    C34   S    
C21   C22   A    
C1    O1    A    
O10   C54   S    
C34   O7    A    
Cu1   O3    S    
C42   O10   S    
O12   C56   S    
C44   C46   S    
C49   H31   S    
C22   H5    S    
C4    C45   S    
C25   C29   A    
C3    C44   S    
C14   C20   A    
C53   H35   S    
C21   H12   S    
C12   C46   S    
C48   C49   A    
C52   H34   S    
C25   C26   A    
C45   H26   S    
C34   O8    A    
C2    C4    S    
C5    C9    A    
C37   C38   A    
C11   C16   A    
Cu1   Cu2   S    
C14   C15   A    
C2    C43   S    
C6    C24   A    
C17   C18   A    
C54   H37   S    
C55   H41   S    
Cu1   O7    S    
C17   H11   S    
C39   O12   S    
C43   H22   S    
C47   H29   S    
C1    O2    A    
C15   H10   S    
C42   C43   S    
Cu1   N2    S    
C27   N1    A    
C39   C40   A    
C56   H42   S    
C44   H2    S    
C28   C29   A    
O9    C47   S    
C26   H17   S    
Cu2   O8    S    
C31   C32   A    
C10   C13   A    
C5    C8    A    
C31   C38   A    
Cu2   O6    S    
C13   C17   A    
C4    H1    S    
C32   C33   A    
C28   C30   A    
C2    C3    S    
C37   C39   A    
C27   H18   S    
C51   H33   S    
C6    C23   S    
C12   O3    A    
C49   C50   A    
C55   H40   S    
C12   O4    A    
C3    H24   S    
C54   H38   S    
C9    H9    S    
C51   C52   A    
C10   C11   A    
C18   H6    S    
C35   H21   S    
C43   H19   S    
C47   H30   S    
C27   C28   A    
C40   N2    A    
C35   C36   A    
Cu1   O1    S    
C13   C14   A    
C50   H32   S    
C25   H16   S    
C56   H43   S    
