data_mof_unit_12216.cif
_audit_creation_date              2012-12-10T17:44:31-0500
_audit_creation_method            fapswitch 2.2
_symmetry_space_group_name_H-M    P1
_symmetry_Int_Tables_number       1
_space_group_crystal_system       triclinic
_cell_length_a                    9.967545
_cell_length_b                    10.706112
_cell_length_c                    15.520522
_cell_angle_alpha                 93.495841
_cell_angle_beta                  68.108008
_cell_angle_gamma                 90.793038
_cell_volume                      1533.88619815

loop_
_atom_site_label
_atom_site_type_symbol
_atom_type_description
_atom_site_fract_x
_atom_site_fract_y
_atom_site_fract_z
_atom_type_partial_charge
C1    C     C_R   0.502751 0.739158 0.496118 0.870129
C2    C     C_R   0.432751 0.431227 0.900649 0.076294
C3    C     C_R   0.297674 0.375047 0.946698 0.129200
C4    C     C_R   0.540859 0.431710 0.938997 -0.026626
C5    C     C_R   0.502243 0.400620 0.032149 0.033695
C6    C     C_R   0.370773 0.335682 0.075368 0.491828
C7    C     C_R   0.269681 0.324294 0.032068 -0.365011
C8    C     C_R   0.686871 0.459962 0.886868 -0.184374
C9    C     C_R   0.787735 0.470404 0.928925 -0.172353
C10   C     C_R   0.743122 0.463980 0.024945 -0.002436
C11   C     C_R   0.597543 0.436429 0.078182 -0.002414
C12   C     C_R   0.409442 0.497988 0.675494 0.873574
C13   C     C_R   0.840854 0.490385 0.068618 -0.242995
C14   C     C_R   0.796073 0.492613 0.165048 0.371208
C15   C     C_R   0.547271 0.462699 0.175218 0.482639
C16   C     C_R   0.420251 0.856952 0.357326 -0.175605
C17   C     C_R   0.373518 0.916446 0.296017 -0.158479
C18   C     C_R   0.374732 0.045757 0.295631 -0.115058
C19   C     C_R   0.420894 0.117007 0.357129 -0.171224
C20   C     C_R   0.461400 0.058872 0.423445 0.089631
C21   C     C_R   0.462204 0.927446 0.423168 0.104498
C22   C     C_R   0.508424 0.871139 0.487684 -0.108184
C23   C     C_R   0.501449 0.260522 0.496241 0.851431
C24   C     C_R   0.557749 0.942004 0.547872 -0.202776
C25   C     C_R   0.555504 0.069592 0.548778 -0.200544
C26   C     C_R   0.504974 0.127693 0.488881 -0.091094
C27   C     C_R   0.794567 0.663148 0.636790 0.493514
C28   C     C_R   0.835971 0.726725 0.704930 -0.289565
C29   C     C_R   0.975197 0.721284 0.700792 -0.265834
C30   C     C_R   0.075773 0.651115 0.629642 -0.122096
C31   C     C_R   0.038637 0.576026 0.564555 0.071460
C32   C     C_R   0.893481 0.578653 0.565773 0.019663
C33   C     C_R   0.961906 0.424090 0.439302 0.492110
C34   C     C_R   0.590855 0.497088 0.323441 0.887192
C35   C     C_R   0.105641 0.425503 0.439168 -0.193011
C36   C     C_R   0.356821 0.473716 0.773953 -0.067755
C37   C     C_R   0.646818 0.483344 0.220220 -0.316352
C38   C     C_R   0.194174 0.367299 0.905114 -0.182583
C39   C     C_R   0.224589 0.414846 0.818119 -0.215050
C40   C     C_R   0.455091 0.487989 0.818148 -0.235304
H1    H     H_    0.168737 0.276112 0.065355 0.154025
H2    H     H_    0.953029 0.509215 0.027820 0.182031
H3    H     H_    0.593624 0.899128 0.596778 0.184266
H4    H     H_    0.424611 0.756091 0.351364 0.164131
H5    H     H_    0.337862 0.862812 0.247439 0.130098
H6    H     H_    0.341189 0.090359 0.246564 0.179946
H7    H     H_    0.425848 0.217043 0.350854 0.168534
H8    H     H_    0.590142 0.123467 0.598151 0.160763
H9    H     H_    0.760728 0.787419 0.759465 0.148244
H10   H     H_    0.006767 0.775494 0.751285 0.170755
H11   H     H_    0.182664 0.658960 0.627805 0.217876
H12   H     H_    0.188004 0.364610 0.389782 0.180112
H13   H     H_    0.898941 0.491188 0.887039 0.144573
H14   H     H_    0.092115 0.320867 0.938368 0.143128
H15   H     H_    0.148100 0.401021 0.783970 0.158239
H16   H     H_    0.551286 0.541627 0.785691 0.157321
H17   H     H_    0.726802 0.469748 0.812693 0.146950
N1    N     N_R   0.856800 0.501200 0.500850 -0.111958
N2    N     N_R   0.142390 0.501280 0.500880 -0.125951
O1    O     O_R   0.385310 0.683220 0.500000 -0.656446
O2    O     O_R   0.614640 0.683250 0.500010 -0.531210
O3    O     O_R   0.319840 0.499980 0.632240 -0.647282
O4    O     O_R   0.549160 0.500000 0.632250 -0.563528
O5    O     O_R   0.385360 0.316750 0.499990 -0.627491
O6    O     O_R   0.614690 0.316780 0.500000 -0.571774
O7    O     O_R   0.450840 0.500000 0.367750 -0.568074
O8    O     O_R   0.680160 0.500020 0.367760 -0.563612
Zn1   Zn    Zn3+2 0.346880 0.499980 0.499990 0.946501
Zn2   Zn    Zn3+2 0.653120 0.500020 0.500010 1.041127
O9    O     O_3   0.925237 0.344201 0.378772 -0.756042
H18   H     H_    0.011986 0.294790 0.339004 0.307826
O10   O     O_3   0.661701 0.693221 0.637858 -0.745307
H19   H     H_    0.603682 0.742465 0.695902 0.288896
O11   O     O_3   0.400508 0.480690 0.225436 -0.551272
C41   C     C_3   0.356791 0.597759 0.206991 -0.268470
H20   H     H_    0.323004 0.587927 0.146421 0.173895
H21   H     H_    0.442479 0.670002 0.194219 0.120111
H22   H     H_    0.261549 0.631627 0.268235 0.196057
O12   O     O_3   0.899650 0.512259 0.202829 -0.737144
H23   H     H_    0.895299 0.439279 0.239892 0.374682
O13   O     O_3   0.347531 0.276189 0.156015 -0.761100
H24   H     H_    0.248455 0.241476 0.178897 0.315229

loop_
_geom_bond_atom_site_label_1
_geom_bond_atom_site_label_2
_ccdc_geom_bond_type
O7    Zn1   S    
C30   H11   S    
C33   N1    A    
C34   C37   S    
C19   C20   A    
C32   N1    A    
C4    C8    A    
C34   O7    A    
O13   H24   S    
C16   C21   A    
O5    Zn1   S    
C28   C29   A    
C17   H5    S    
C5    C11   A    
C3    C7    A    
C5    C6    A    
C8    H17   S    
C19   H7    S    
C35   N2    A    
C18   C19   A    
C23   C26   S    
C31   N2    A    
C15   C37   A    
C11   C15   A    
C39   H15   S    
O4    Zn2   S    
C3    C38   A    
C8    C9    A    
C40   H16   S    
O9    H18   S    
C12   C36   S    
C9    C10   A    
C16   H4    S    
C1    C22   S    
C6    O13   S    
C21   C22   A    
C18   H6    S    
C13   H2    S    
C29   H10   S    
C38   C39   A    
O11   C41   S    
C36   C40   A    
C24   C25   A    
C1    O1    A    
C12   O4    A    
C16   C17   A    
C25   C26   A    
O8    Zn2   S    
C2    C4    A    
C41   H20   S    
C29   C30   A    
N2    Zn1   S    
C12   O3    A    
C28   H9    S    
C31   C32   A    
C38   H14   S    
C17   C18   A    
C14   O12   S    
C41   H21   S    
C25   H8    S    
C33   O9    S    
C23   O5    A    
C22   C24   A    
C9    H13   S    
C35   H12   S    
O2    Zn2   S    
C27   C32   A    
C36   C39   A    
O10   H19   S    
C10   C13   A    
C1    O2    A    
C34   O8    A    
N1    Zn2   S    
C6    C7    A    
O3    Zn1   S    
C23   O6    A    
C2    C3    A    
C14   C37   A    
C30   C31   A    
C20   C26   A    
O6    Zn2   S    
C33   C35   A    
C7    H1    S    
C41   H22   S    
C10   C11   A    
O12   H23   S    
C2    C40   A    
C4    C5    A    
C15   O11   S    
C20   C21   A    
O1    Zn1   S    
C27   C28   A    
C24   H3    S    
C13   C14   A    
C27   O10   S    
