data_mof_unit_63181.cif
_audit_creation_date              2012-12-10T18:33:16-0500
_audit_creation_method            fapswitch 2.2
_symmetry_space_group_name_H-M    P1
_symmetry_Int_Tables_number       1
_space_group_crystal_system       triclinic
_cell_length_a                    38.744739
_cell_length_b                    45.115589
_cell_length_c                    29.713081
_cell_angle_alpha                 89.999956
_cell_angle_beta                  130.706126
_cell_angle_gamma                 89.999989
_cell_volume                      39372.5261844

loop_
_atom_site_label
_atom_site_type_symbol
_atom_type_description
_atom_site_fract_x
_atom_site_fract_y
_atom_site_fract_z
_atom_type_partial_charge
C1    C     C_R   0.790637 0.790591 0.081167 0.919973
C2    C     C_R   0.209362 0.790591 0.918833 0.919999
C3    C     C_R   0.290638 0.290591 0.081167 0.920086
C4    C     C_R   0.709362 0.290591 0.918833 0.919992
C5    C     C_R   0.644864 0.750033 0.999995 -0.032961
C6    C     C_R   0.355136 0.750033 0.000005 -0.032973
C7    C     C_R   0.144864 0.250033 0.999996 -0.033007
C8    C     C_R   0.855136 0.250033 0.000005 -0.032981
C9    C     C_R   0.465091 0.750089 0.999956 0.286532
C10   C     C_R   0.534908 0.750089 0.000042 0.286526
C11   C     C_R   0.965091 0.250090 0.999956 0.286502
C12   C     C_R   0.034909 0.250090 0.000044 0.286521
C13   C     C_3   0.898234 0.841955 0.267666 -0.374650
C14   C     C_3   0.101890 0.841912 0.732248 -0.374633
C15   C     C_3   0.397708 0.341781 0.268022 -0.374589
C16   C     C_3   0.601829 0.341933 0.732291 -0.374667
C17   C     C_3   0.863888 0.881268 0.188982 -0.462810
C18   C     C_3   0.135907 0.881210 0.810903 -0.462824
C19   C     C_3   0.364745 0.381020 0.189470 -0.462874
C20   C     C_3   0.636009 0.381239 0.810961 -0.462818
C21   C     C_3   0.887858 0.905625 0.237258 -0.409578
C22   C     C_3   0.111939 0.905567 0.762630 -0.409547
C23   C     C_3   0.388714 0.405381 0.237737 -0.409438
C24   C     C_3   0.612040 0.405596 0.762686 -0.409558
C25   C     C_1   0.937199 0.937144 0.374778 -0.156546
C26   C     C_1   0.062802 0.937145 0.625224 -0.156524
C27   C     C_1   0.437193 0.437149 0.374768 -0.156530
C28   C     C_1   0.562802 0.437145 0.625224 -0.156613
C29   C     C_3   0.852944 0.854052 0.209647 0.266050
C30   C     C_3   0.147063 0.854056 0.790362 0.266043
C31   C     C_3   0.352912 0.354072 0.209607 0.266059
C32   C     C_3   0.647060 0.354054 0.790358 0.266082
C33   C     C_3   0.923113 0.866382 0.315804 -0.413119
C34   C     C_3   0.077007 0.866339 0.684106 -0.413115
C35   C     C_3   0.422601 0.366201 0.316175 -0.413220
C36   C     C_3   0.576948 0.366361 0.684151 -0.413232
C37   C     C_3   0.894322 0.895216 0.292057 0.223098
C38   C     C_3   0.105686 0.895221 0.707954 0.223080
C39   C     C_3   0.394288 0.395238 0.292012 0.223100
C40   C     C_3   0.605682 0.395219 0.707949 0.223166
C41   C     C_3   0.846260 0.888835 0.271711 -0.210676
C42   C     C_3   0.153844 0.888951 0.728522 -0.210699
C43   C     C_3   0.345829 0.389324 0.270731 -0.210748
C44   C     C_3   0.653793 0.388894 0.728407 -0.210664
C45   C     C_R   0.682557 0.750002 0.999949 0.872512
C46   C     C_R   0.317443 0.750002 0.000051 0.872542
C47   C     C_R   0.182557 0.250002 0.999949 0.872645
C48   C     C_R   0.817443 0.250002 0.000051 0.872538
C49   C     C_3   0.821541 0.864309 0.222272 0.050434
C50   C     C_3   0.178562 0.864425 0.777961 0.050434
C51   C     C_3   0.321115 0.364796 0.221297 0.050434
C52   C     C_3   0.678511 0.364368 0.777846 0.050433
C53   C     C_1   0.918057 0.918278 0.337497 -0.082704
C54   C     C_1   0.081947 0.918281 0.662509 -0.082692
C55   C     C_1   0.418040 0.418290 0.337473 -0.082711
C56   C     C_1   0.581946 0.418280 0.662507 -0.082754
C57   C     C_1   0.830745 0.831403 0.163462 -0.038482
C58   C     C_1   0.169258 0.831405 0.836542 -0.038475
C59   C     C_1   0.330731 0.331411 0.163447 -0.038470
C60   C     C_1   0.669256 0.331404 0.836540 -0.038493
C61   C     C_1   0.812463 0.812773 0.125709 -0.153378
C62   C     C_1   0.187537 0.812773 0.874291 -0.153377
C63   C     C_1   0.312460 0.312774 0.125706 -0.153393
C64   C     C_1   0.687537 0.312773 0.874291 -0.153391
C65   C     C_R   0.848813 0.761184 0.951004 -0.193053
C66   C     C_R   0.151185 0.761188 0.048992 -0.193048
C67   C     C_R   0.348823 0.261204 0.951023 -0.193049
C68   C     C_R   0.651192 0.261176 0.049004 -0.193057
C69   C     C_R   0.884605 0.760926 0.950792 -0.161169
C70   C     C_R   0.115393 0.760930 0.049204 -0.161167
C71   C     C_R   0.384615 0.260947 0.950812 -0.161184
C72   C     C_R   0.615400 0.260917 0.049216 -0.161175
C73   C     C_R   0.927348 0.749933 0.999965 0.086656
C74   C     C_R   0.072652 0.749932 0.000036 0.086662
C75   C     C_R   0.427350 0.249934 0.999966 0.086676
C76   C     C_R   0.572653 0.249932 0.000037 0.086672
C77   C     C_R   0.933762 0.738956 0.049126 -0.160208
C78   C     C_R   0.066240 0.738951 0.950879 -0.160206
C79   C     C_R   0.433755 0.238937 0.049109 -0.160237
C80   C     C_R   0.566235 0.238963 0.950869 -0.160240
C81   C     C_R   0.897748 0.738733 0.048893 -0.192829
C82   C     C_R   0.102254 0.738729 0.951112 -0.192824
C83   C     C_R   0.397740 0.238715 0.048876 -0.192864
C84   C     C_R   0.602249 0.238740 0.951101 -0.192858
C85   C     C_R   0.855143 0.749968 0.999944 -0.032796
C86   C     C_R   0.144857 0.749968 0.000056 -0.032801
C87   C     C_R   0.355144 0.249969 0.999945 -0.032803
C88   C     C_R   0.644857 0.249968 0.000057 -0.032778
C89   C     C_R   0.709369 0.709388 0.918693 0.916167
C90   C     C_R   0.290631 0.709388 0.081307 0.916171
C91   C     C_R   0.209369 0.209388 0.918693 0.916183
C92   C     C_R   0.790631 0.209388 0.081307 0.916171
C93   C     C_R   0.034890 0.749922 0.000018 0.282928
C94   C     C_R   0.965111 0.749923 0.999983 0.282930
C95   C     C_R   0.534891 0.249922 0.000019 0.282917
C96   C     C_R   0.465112 0.249924 0.999984 0.282919
C97   C     C_3   0.638147 0.617465 0.813879 -0.390617
C98   C     C_3   0.361898 0.617477 0.186145 -0.390619
C99   C     C_3   0.138108 0.117475 0.813858 -0.390632
C100  C     C_3   0.861912 0.117481 0.186152 -0.390631
C101  C     C_3   0.598650 0.656855 0.734669 -0.389955
C102  C     C_3   0.401329 0.656867 0.265355 -0.389944
C103  C     C_3   0.098668 0.156865 0.734649 -0.389951
C104  C     C_3   0.901322 0.156870 0.265362 -0.389955
C105  C     C_3   0.574401 0.632544 0.686173 -0.393354
C106  C     C_3   0.425577 0.632556 0.313850 -0.393374
C107  C     C_3   0.074420 0.132554 0.686153 -0.393366
C108  C     C_3   0.925570 0.132560 0.313857 -0.393365
C109  C     C_1   0.562976 0.562796 0.625934 -0.176744
C110  C     C_1   0.437023 0.562796 0.374066 -0.176676
C111  C     C_1   0.062976 0.062796 0.625934 -0.176750
C112  C     C_1   0.937024 0.062796 0.374066 -0.176768
C113  C     C_3   0.645569 0.645548 0.791089 0.351036
C114  C     C_3   0.354431 0.645548 0.208911 0.351015
C115  C     C_3   0.145569 0.145548 0.791089 0.351053
C116  C     C_3   0.854431 0.145548 0.208911 0.351057
C117  C     C_3   0.613900 0.593155 0.765384 -0.392430
C118  C     C_3   0.386146 0.593166 0.234640 -0.392402
C119  C     C_3   0.113861 0.093165 0.765364 -0.392426
C120  C     C_3   0.886159 0.093170 0.234647 -0.392432
C121  C     C_3   0.604550 0.604423 0.709054 0.351143
C122  C     C_3   0.395450 0.604423 0.290946 0.351093
C123  C     C_3   0.104550 0.104423 0.709054 0.351156
C124  C     C_3   0.895450 0.104423 0.290946 0.351169
C125  C     C_3   0.650505 0.612792 0.725915 -0.388153
C126  C     C_3   0.349471 0.612769 0.274037 -0.388106
C127  C     C_3   0.150525 0.112772 0.725956 -0.388157
C128  C     C_3   0.849464 0.112762 0.274023 -0.388166
C129  C     C_3   0.674754 0.637103 0.774410 -0.392541
C130  C     C_3   0.325223 0.637080 0.225542 -0.392541
C131  C     C_3   0.174774 0.137083 0.774451 -0.392553
C132  C     C_3   0.825216 0.137073 0.225528 -0.392548
C133  C     C_R   0.817433 0.749985 0.999932 0.860715
C134  C     C_R   0.182567 0.749984 0.000068 0.860719
C135  C     C_R   0.317433 0.249985 0.999932 0.860721
C136  C     C_R   0.682567 0.249984 0.000068 0.860707
C137  C     C_1   0.581734 0.581558 0.663428 -0.119850
C138  C     C_1   0.418266 0.581558 0.336571 -0.119804
C139  C     C_1   0.081734 0.081558 0.663428 -0.119857
C140  C     C_1   0.918266 0.081558 0.336571 -0.119869
C141  C     C_1   0.668381 0.668412 0.836714 -0.118497
C142  C     C_1   0.331619 0.668413 0.163286 -0.118487
C143  C     C_1   0.168381 0.168413 0.836714 -0.118508
C144  C     C_1   0.831619 0.168413 0.163286 -0.118510
C145  C     C_1   0.687128 0.687174 0.874210 -0.183397
C146  C     C_1   0.312872 0.687174 0.125790 -0.183389
C147  C     C_1   0.187128 0.187174 0.874210 -0.183414
C148  C     C_1   0.812872 0.187174 0.125790 -0.183411
C149  C     C_R   0.040531 0.959468 0.580954 0.902905
C150  C     C_R   0.959469 0.959469 0.419045 0.902886
C151  C     C_R   0.540531 0.459469 0.580955 0.902818
C152  C     C_R   0.459469 0.459468 0.419046 0.902873
C153  C     C_R   0.459283 0.540579 0.418547 0.903816
C154  C     C_R   0.540717 0.540579 0.581453 0.903758
C155  C     C_R   0.959283 0.040579 0.418547 0.903755
C156  C     C_R   0.040717 0.040579 0.581453 0.903771
C157  C     C_R   0.615538 0.774496 0.977601 -0.180020
C158  C     C_R   0.384466 0.774494 0.022407 -0.179946
C159  C     C_R   0.115530 0.274493 0.977586 -0.179698
C160  C     C_R   0.884473 0.274491 0.022420 -0.179980
C161  C     C_R   0.579894 0.774632 0.978121 -0.150684
C162  C     C_R   0.420110 0.774630 0.021886 -0.150650
C163  C     C_R   0.079887 0.274630 0.978107 -0.150511
C164  C     C_R   0.920117 0.274628 0.021900 -0.150649
C165  C     C_R   0.572687 0.750083 0.000067 0.084807
C166  C     C_R   0.427312 0.750083 0.999931 0.084802
C167  C     C_R   0.072688 0.250084 0.000069 0.084782
C168  C     C_R   0.927312 0.250083 0.999931 0.084808
C169  C     C_R   0.601812 0.725514 0.022002 -0.154562
C170  C     C_R   0.398183 0.725516 0.977988 -0.154563
C171  C     C_R   0.101821 0.225519 0.022021 -0.154580
C172  C     C_R   0.898176 0.225520 0.977973 -0.154574
C173  C     C_R   0.637939 0.725601 0.022450 -0.185090
C174  C     C_R   0.362056 0.725603 0.977540 -0.185106
C175  C     C_R   0.137947 0.225605 0.022468 -0.185195
C176  C     C_R   0.862050 0.225606 0.977526 -0.185103
H1    H     H_    0.620441 0.793624 0.960277 0.156814
H2    H     H_    0.379567 0.793621 0.039739 0.156834
H3    H     H_    0.120426 0.293618 0.960248 0.156906
H4    H     H_    0.879580 0.293615 0.039764 0.156843
H5    H     H_    0.867212 0.926310 0.218749 0.172278
H6    H     H_    0.132500 0.926285 0.781206 0.172274
H7    H     H_    0.368433 0.426203 0.218949 0.172273
H8    H     H_    0.632644 0.426298 0.781229 0.172283
H9    H     H_    0.790503 0.874482 0.180878 0.134800
H10   H     H_    0.209507 0.874629 0.819416 0.134803
H11   H     H_    0.290470 0.375092 0.179651 0.134822
H12   H     H_    0.709503 0.374556 0.819271 0.134816
H13   H     H_    0.891652 0.822571 0.284255 0.208891
H14   H     H_    0.108626 0.822573 0.715746 0.208894
H15   H     H_    0.390481 0.322584 0.284241 0.208874
H16   H     H_    0.608488 0.322572 0.715745 0.208861
H17   H     H_    0.930098 0.858453 0.356476 0.162831
H18   H     H_    0.070173 0.858449 0.643512 0.162836
H19   H     H_    0.428949 0.358441 0.356512 0.162795
H20   H     H_    0.570038 0.358451 0.643518 0.162774
H21   H     H_    0.825788 0.909553 0.251073 0.154141
H22   H     H_    0.174222 0.909698 0.749220 0.154126
H23   H     H_    0.325754 0.410163 0.249843 0.154083
H24   H     H_    0.674218 0.409626 0.749075 0.154140
H25   H     H_    0.816103 0.769857 0.912689 0.154545
H26   H     H_    0.183893 0.769864 0.087304 0.154549
H27   H     H_    0.316121 0.269893 0.912722 0.154559
H28   H     H_    0.683904 0.269843 0.087324 0.154539
H29   H     H_    0.878991 0.769641 0.912509 0.148234
H30   H     H_    0.121005 0.769648 0.087484 0.148229
H31   H     H_    0.379009 0.269678 0.912543 0.148222
H32   H     H_    0.621016 0.269626 0.087505 0.148227
H33   H     H_    0.966429 0.730230 0.087418 0.148823
H34   H     H_    0.033574 0.730221 0.912590 0.148817
H35   H     H_    0.466415 0.230195 0.087386 0.148796
H36   H     H_    0.533565 0.230243 0.912572 0.148793
H37   H     H_    0.557675 0.793767 0.960713 0.151403
H38   H     H_    0.442332 0.793764 0.039302 0.151408
H39   H     H_    0.057661 0.293762 0.960685 0.151452
H40   H     H_    0.942345 0.293759 0.039327 0.151434
H41   H     H_    0.903342 0.730073 0.087200 0.155390
H42   H     H_    0.096661 0.730065 0.912808 0.155390
H43   H     H_    0.403328 0.230038 0.087168 0.155366
H44   H     H_    0.596652 0.230086 0.912789 0.155360
H45   H     H_    0.581315 0.586993 0.754365 0.170446
H46   H     H_    0.418748 0.587021 0.245693 0.170451
H47   H     H_    0.081261 0.087017 0.754316 0.170443
H48   H     H_    0.918767 0.087030 0.245710 0.170441
H49   H     H_    0.617214 0.622986 0.826164 0.169411
H50   H     H_    0.382849 0.623015 0.173894 0.169415
H51   H     H_    0.117160 0.123010 0.826114 0.169405
H52   H     H_    0.882867 0.123023 0.173911 0.169405
H53   H     H_    0.603108 0.677066 0.717427 0.170099
H54   H     H_    0.396837 0.677070 0.282580 0.170099
H55   H     H_    0.103154 0.177069 0.717421 0.170097
H56   H     H_    0.896821 0.177071 0.282582 0.170096
H57   H     H_    0.577020 0.663071 0.745556 0.170051
H58   H     H_    0.422974 0.663100 0.254501 0.170052
H59   H     H_    0.077024 0.163095 0.745507 0.170047
H60   H     H_    0.922973 0.163108 0.254518 0.170044
H61   H     H_    0.541119 0.627079 0.673756 0.170721
H62   H     H_    0.458876 0.627108 0.326302 0.170719
H63   H     H_    0.041123 0.127104 0.673706 0.170713
H64   H     H_    0.958874 0.127116 0.326319 0.170707
H65   H     H_    0.567207 0.641074 0.645626 0.167741
H66   H     H_    0.432739 0.641077 0.354381 0.167744
H67   H     H_    0.067253 0.141077 0.645620 0.167738
H68   H     H_    0.932722 0.141078 0.354383 0.167738
H69   H     H_    0.708707 0.628895 0.814324 0.171030
H70   H     H_    0.291284 0.628863 0.185611 0.171057
H71   H     H_    0.208714 0.128868 0.814379 0.171020
H72   H     H_    0.791282 0.128854 0.185592 0.171015
H73   H     H_    0.680556 0.656966 0.757869 0.169798
H74   H     H_    0.319388 0.656934 0.242066 0.169803
H75   H     H_    0.180604 0.156939 0.757925 0.169793
H76   H     H_    0.819371 0.156924 0.242046 0.169792
H77   H     H_    0.672806 0.592901 0.742525 0.171915
H78   H     H_    0.327186 0.592869 0.257410 0.171980
H79   H     H_    0.172813 0.092874 0.742580 0.171908
H80   H     H_    0.827183 0.092860 0.257391 0.171891
H81   H     H_    0.596995 0.706395 0.039430 0.148984
H82   H     H_    0.402996 0.706399 0.960552 0.148983
H83   H     H_    0.097010 0.206403 0.039463 0.148961
H84   H     H_    0.902984 0.206405 0.960526 0.148973
H85   H     H_    0.671454 0.608910 0.854490 0.170763
H86   H     H_    0.328608 0.608914 0.145518 0.170784
H87   H     H_    0.171401 0.108913 0.854483 0.170750
H88   H     H_    0.828627 0.108915 0.145520 0.170748
H89   H     H_    0.635554 0.572917 0.782690 0.169018
H90   H     H_    0.364508 0.572921 0.217317 0.169068
H91   H     H_    0.135501 0.072920 0.782684 0.169012
H92   H     H_    0.864526 0.072922 0.217319 0.168999
H93   H     H_    0.644655 0.620973 0.686070 0.170090
H94   H     H_    0.355289 0.620940 0.313865 0.170102
H95   H     H_    0.144703 0.120945 0.686125 0.170086
H96   H     H_    0.855272 0.120931 0.313846 0.170089
H97   H     H_    0.660135 0.706454 0.039753 0.154978
H98   H     H_    0.339857 0.706458 0.960231 0.154979
H99   H     H_    0.160150 0.206462 0.039784 0.154955
H100  H     H_    0.839844 0.206464 0.960205 0.154978
H101  H     H_    0.956780 0.870851 0.328607 0.186947
H102  H     H_    0.043268 0.870727 0.671144 0.186968
H103  H     H_    0.456568 0.370333 0.329653 0.186945
H104  H     H_    0.543244 0.370789 0.671268 0.186873
H105  H     H_    0.920649 0.834142 0.258938 0.170186
H106  H     H_    0.079410 0.834020 0.740817 0.170202
H107  H     H_    0.420391 0.333637 0.259958 0.170213
H108  H     H_    0.579381 0.334080 0.740939 0.170152
H109  H     H_    0.831999 0.890361 0.147043 0.174416
H110  H     H_    0.167708 0.890333 0.852907 0.174416
H111  H     H_    0.333228 0.390243 0.147266 0.174427
H112  H     H_    0.667854 0.390347 0.852932 0.174425
H113  H     H_    0.886280 0.874539 0.179564 0.189714
H114  H     H_    0.113443 0.874400 0.820159 0.189719
H115  H     H_    0.387432 0.373956 0.180723 0.189724
H116  H     H_    0.613580 0.374469 0.820296 0.189705
H117  H     H_    0.921459 0.910820 0.250375 0.188256
H118  H     H_    0.078264 0.910684 0.749353 0.188280
H119  H     H_    0.422622 0.410243 0.251523 0.188334
H120  H     H_    0.578402 0.410752 0.749489 0.188245
N1    N     N_R   0.517210 0.724176 0.000127 -0.176981
N2    N     N_R   0.482784 0.724176 0.999863 -0.176983
N3    N     N_R   0.017212 0.224177 0.000129 -0.177007
N4    N     N_R   0.982785 0.224176 0.999864 -0.176999
N5    N     N_R   0.482900 0.776004 0.000095 -0.167610
N6    N     N_R   0.517104 0.776004 0.999912 -0.167623
N7    N     N_R   0.982900 0.276004 0.000095 -0.167555
N8    N     N_R   0.017104 0.276004 0.999912 -0.167507
N9    N     N_R   0.008802 0.749863 0.051898 -0.176709
N10   N     N_R   0.991198 0.749869 0.948103 -0.176704
N11   N     N_R   0.508803 0.249850 0.051899 -0.176719
N12   N     N_R   0.491199 0.249882 0.948104 -0.176727
N13   N     N_R   0.043103 0.749974 0.051915 -0.176715
N14   N     N_R   0.956898 0.749980 0.948086 -0.176723
N15   N     N_R   0.543104 0.249961 0.051916 -0.176732
N16   N     N_R   0.456899 0.249995 0.948087 -0.176741
O1    O     O_R   0.798060 0.763370 0.096070 -0.606391
O2    O     O_R   0.201940 0.763370 0.903930 -0.606471
O3    O     O_R   0.298060 0.263370 0.096070 -0.606744
O4    O     O_R   0.701940 0.263370 0.903930 -0.606454
O5    O     O_R   0.001940 0.969340 0.561310 -0.619236
O6    O     O_R   0.998060 0.969340 0.438690 -0.619266
O7    O     O_R   0.501940 0.469340 0.561310 -0.619356
O8    O     O_R   0.498060 0.469340 0.438690 -0.619248
O9    O     O_R   0.497920 0.530770 0.438300 -0.619847
O10   O     O_R   0.502080 0.530770 0.561700 -0.619829
O11   O     O_R   0.997920 0.030770 0.438300 -0.619834
O12   O     O_R   0.002080 0.030770 0.561700 -0.619835
O13   O     O_R   0.440430 0.530760 0.438330 -0.616134
O14   O     O_R   0.559570 0.530760 0.561670 -0.616233
O15   O     O_R   0.940430 0.030760 0.438330 -0.616250
O16   O     O_R   0.059570 0.030760 0.561670 -0.616226
O17   O     O_R   0.763350 0.798040 0.026640 -0.619566
O18   O     O_R   0.236650 0.798040 0.973360 -0.619520
O19   O     O_R   0.263350 0.298040 0.026640 -0.619356
O20   O     O_R   0.736650 0.298040 0.973360 -0.619527
O21   O     O_R   0.716420 0.732650 0.034650 -0.618377
O22   O     O_R   0.283580 0.732650 0.965350 -0.618396
O23   O     O_R   0.216420 0.232650 0.034650 -0.618457
O24   O     O_R   0.783580 0.232650 0.965350 -0.618399
O25   O     O_R   0.681710 0.767330 0.965220 -0.624245
O26   O     O_R   0.318290 0.767330 0.034780 -0.624235
O27   O     O_R   0.181710 0.267330 0.965220 -0.624193
O28   O     O_R   0.818290 0.267330 0.034780 -0.624235
O29   O     O_R   0.736630 0.701940 0.973210 -0.617453
O30   O     O_R   0.263370 0.701940 0.026790 -0.617447
O31   O     O_R   0.236630 0.201940 0.973210 -0.617460
O32   O     O_R   0.763370 0.201940 0.026790 -0.617461
O33   O     O_R   0.701920 0.736610 0.903790 -0.617248
O34   O     O_R   0.298080 0.736610 0.096210 -0.617250
O35   O     O_R   0.201920 0.236610 0.903790 -0.617247
O36   O     O_R   0.798080 0.236610 0.096210 -0.617246
O37   O     O_R   0.818270 0.732650 0.034640 -0.624220
O38   O     O_R   0.181730 0.732650 0.965360 -0.624222
O39   O     O_R   0.318270 0.232650 0.034640 -0.624248
O40   O     O_R   0.681730 0.232650 0.965360 -0.624233
O41   O     O_R   0.783570 0.767330 0.965210 -0.624612
O42   O     O_R   0.216430 0.767330 0.034790 -0.624614
O43   O     O_R   0.283570 0.267330 0.965210 -0.624618
O44   O     O_R   0.716430 0.267330 0.034790 -0.624604
O45   O     O_R   0.059430 0.969340 0.561280 -0.601241
O46   O     O_R   0.940570 0.969340 0.438720 -0.601241
O47   O     O_R   0.559430 0.469340 0.561280 -0.601220
O48   O     O_R   0.440570 0.469340 0.438720 -0.601216
Zn1   Zn    Zn3+2 0.773170 0.726840 0.046290 0.971582
Zn2   Zn    Zn3+2 0.226830 0.726840 0.953710 0.971523
Zn3   Zn    Zn3+2 0.273170 0.226840 0.046290 0.971225
Zn4   Zn    Zn3+2 0.726830 0.226840 0.953710 0.971479
Zn5   Zn    Zn3+2 0.726820 0.773140 0.953570 0.959850
Zn6   Zn    Zn3+2 0.273180 0.773140 0.046430 0.959881
Zn7   Zn    Zn3+2 0.226820 0.273140 0.953570 0.960010
Zn8   Zn    Zn3+2 0.773180 0.273140 0.046430 0.959887
Zn9   Zn    Zn3+2 0.538320 0.500060 0.499790 0.982772
Zn10  Zn    Zn3+2 0.461680 0.500060 0.500210 0.982806
Zn11  Zn    Zn3+2 0.038320 0.000060 0.499790 0.982745
Zn12  Zn    Zn3+2 0.961680 0.000060 0.500210 0.982742
Br1   Br    Br    0.797978 0.830579 0.237252 -0.526208
Br2   Br    Br    0.202383 0.830787 0.763166 -0.526234
Br3   Br    Br    0.296481 0.331454 0.235505 -0.526358
Br4   Br    Br    0.702205 0.330684 0.762960 -0.526250
C177  C     C_2   0.848882 0.881720 0.323691 0.511123
H121  H     H_    0.867341 0.862370 0.351065 0.087992
O49   O     O_2   0.830243 0.897724 0.335378 -0.550952
C178  C     C_2   0.151422 0.881905 0.676680 0.511159
H122  H     H_    0.133080 0.862541 0.649278 0.088004
O50   O     O_2   0.170092 0.897980 0.665136 -0.550952
C179  C     C_2   0.347610 0.382504 0.322126 0.511262
H123  H     H_    0.365572 0.363100 0.349616 0.088010
O51   O     O_2   0.328841 0.398809 0.333205 -0.550939
C180  C     C_2   0.651271 0.381813 0.676496 0.511140
H124  H     H_    0.632871 0.362455 0.649108 0.087960
O52   O     O_2   0.669926 0.397852 0.664881 -0.550939

loop_
_geom_bond_atom_site_label_1
_geom_bond_atom_site_label_2
_ccdc_geom_bond_type
O1    Zn1   S    
C24   H8    S    
C101  C113  S    
C142  C146  T    
C97   H49   S    
C150  O46   A    
C4    O4    A    
C111  C139  T    
C129  H69   S    
N5    N6    A    
N10   N14   A    
O26   Zn6   S    
C25   C53   T    
C27   C55   T    
C98   C114  S    
C7    C159  A    
C22   C38   S    
C153  O13   A    
O33   Zn5   S    
C135  O39   A    
C20   H112  S    
O35   Zn7   S    
C32   C52   S    
C6    C158  A    
C104  C116  S    
O7    Zn10  S    
C86   C134  S    
C100  H88   S    
C112  C155  S    
C70   C74   A    
C2    O2    A    
O4    Zn4   S    
C141  C145  T    
C1    O17   A    
C34   H18   S    
C71   H31   S    
C34   H102  S    
C99   H87   S    
C114  C130  S    
C74   C93   S    
C107  H67   S    
C135  O43   A    
C108  C124  S    
C41   C49   S    
C156  O12   A    
C165  C169  A    
C129  H73   S    
C42   H22   S    
O36   Zn8   S    
C167  C171  A    
C6    C174  A    
C17   C21   S    
C134  O38   A    
C16   H108  S    
C19   C23   S    
C13   C33   S    
C102  C114  S    
C78   C82   A    
N7    N8    A    
C12   N8    A    
O5    Zn12  S    
C119  H47   S    
C42   C178  S    
C170  H82   S    
C109  C154  S    
C9    N2    A    
O39   Zn3   S    
O48   Zn10  S    
C102  H58   S    
C47   O27   A    
O31   Zn3   S    
O34   Zn6   S    
C179  H123  S    
C170  C174  A    
C15   H15   S    
O8    Zn9   S    
C59   C63   T    
C126  H94   S    
C26   C149  S    
C84   C88   A    
C162  H38   S    
C10   N6    A    
C45   O21   A    
C57   C61   T    
C18   H110  S    
C119  C123  S    
O19   Zn7   S    
C2    O18   A    
C60   C64   T    
O21   Zn1   S    
C158  H2    S    
C174  H98   S    
C133  O41   A    
C97   C117  S    
C127  C131  S    
C67   H27   S    
C99   C119  S    
C125  C129  S    
C46   O22   A    
C105  H61   S    
C103  C107  S    
C75   C79   A    
C161  C165  A    
C178  H122  S    
C27   C152  S    
C118  H46   S    
C112  C140  T    
C65   C85   A    
C91   C147  S    
C28   C56   T    
C72   H32   S    
C29   C49   S    
C180  O52   D    
C121  C125  S    
C18   H114  S    
C127  H79   S    
C52   Br4   S    
C9    C166  S    
O47   Zn9   S    
C92   O32   A    
O32   Zn4   S    
C155  O11   A    
C31   C59   S    
C123  C139  S    
C118  C122  S    
C121  C137  S    
O11   Zn11  S    
C160  H4    S    
C84   H44   S    
O37   Zn1   S    
C116  C144  S    
C149  O5    A    
C21   H5    S    
C78   H34   S    
N11   N15   A    
C80   H36   S    
C37   C53   S    
C44   C52   S    
O40   Zn4   S    
C19   H111  S    
C120  H48   S    
C127  H95   S    
C128  H96   S    
O29   Zn1   S    
C26   C54   T    
C24   H120  S    
C131  H75   S    
C98   C118  S    
C175  H99   S    
C103  H55   S    
C45   O25   A    
O13   Zn10  S    
O23   Zn3   S    
C20   H116  S    
C21   H117  S    
C41   H21   S    
C92   O36   A    
O2    Zn2   S    
C3    O3    A    
C36   H20   S    
C23   H7    S    
C83   H43   S    
C98   H86   S    
C123  C127  S    
C116  C132  S    
C47   O23   A    
O20   Zn8   S    
C81   H41   S    
C106  C122  S    
C126  H78   S    
C95   N15   A    
C156  O16   A    
C42   C50   S    
C44   H24   S    
C12   N3    A    
C91   O35   A    
C173  H97   S    
C44   C180  S    
C154  O10   A    
C102  H54   S    
C20   C32   S    
C41   C177  S    
C93   N13   A    
O38   Zn2   S    
C103  H59   S    
C18   C22   S    
C5    C173  A    
C76   C80   A    
C31   C51   S    
C66   C86   A    
C8    C176  A    
C15   C31   S    
C97   H85   S    
C16   C32   S    
C66   C70   A    
C69   H29   S    
C171  H83   S    
C22   H6    S    
C110  C153  S    
C16   C36   S    
C10   N1    A    
C13   H105  S    
N9    N13   A    
C128  H80   S    
C113  C141  S    
O27   Zn7   S    
C37   C41   S    
C177  O49   D    
O46   Zn12  S    
C66   H26   S    
C104  H60   S    
C49   H9    S    
C28   C151  S    
C89   O29   A    
N12   N16   A    
C43   C179  S    
C169  C173  A    
C91   O31   A    
C52   H12   S    
C2    C62   S    
C117  H89   S    
C48   O28   A    
C50   H10   S    
C58   C62   T    
C83   C87   A    
C93   N10   A    
C120  H92   S    
C92   C148  S    
C17   C29   S    
C100  C116  S    
C107  C123  S    
C80   C84   A    
C19   C31   S    
C12   C167  S    
C136  O44   A    
C164  H40   S    
C79   H35   S    
O16   Zn11  S    
O28   Zn8   S    
O25   Zn5   S    
C160  C164  A    
C13   C29   S    
C94   N14   A    
C96   N11   A    
C99   C115  S    
C68   H28   S    
C126  C130  S    
C105  H65   S    
C100  H52   S    
C73   C77   A    
C36   H104  S    
C162  C166  A    
C163  H39   S    
C39   C55   S    
C40   C56   S    
C69   C73   A    
O10   Zn10  S    
C35   H19   S    
C124  C128  S    
C48   O24   A    
C30   C50   S    
C33   H17   S    
C19   H115  S    
O9    Zn9   S    
C73   C94   S    
C106  H66   S    
C23   H119  S    
C134  O42   A    
C75   C96   S    
C4    O20   A    
C87   C135  S    
C90   O30   A    
C122  C138  S    
C132  H72   S    
C33   H101  S    
O24   Zn4   S    
C82   C86   A    
C5    C45   S    
C33   C37   S    
C7    C47   S    
C35   C39   S    
N3    N4    A    
C8    C48   S    
O18   Zn6   S    
C103  C115  S    
O41   Zn5   S    
C38   C54   S    
C164  C168  A    
C149  O45   A    
C151  O7    A    
C152  O8    A    
O17   Zn5   S    
C88   C136  S    
C35   H103  S    
C96   N16   A    
C29   C57   S    
C5    C157  A    
C101  H57   S    
C11   C168  S    
O45   Zn11  S    
C70   H30   S    
C32   C60   S    
C22   H118  S    
C157  C161  A    
C95   N12   A    
C104  C108  S    
C178  O50   D    
C155  O15   A    
C124  C140  S    
C159  H3    S    
C1    C61   S    
C51   Br3   S    
C3    C63   S    
C3    O19   A    
C4    C64   S    
O22   Zn2   S    
C180  H124  S    
O6    Zn11  S    
C79   C83   A    
C43   C51   S    
C15   H107  S    
C107  H63   S    
C65   C69   A    
O15   Zn12  S    
C67   C71   A    
C154  O14   A    
C151  O47   A    
C51   H11   S    
C168  C172  A    
C21   C37   S    
C106  H62   S    
C101  H53   S    
C85   C133  S    
C133  O37   A    
O42   Zn6   S    
C1    O1    A    
N1    N2    A    
C117  H45   S    
C144  C148  T    
C130  H70   S    
C11   N4    A    
C115  C131  S    
C14   H106  S    
C143  C147  T    
C113  C129  S    
C114  C142  S    
C38   C42   S    
C76   C95   S    
C104  H56   S    
C89   O33   A    
C13   H13   S    
C109  C137  T    
C117  C121  S    
C16   H16   S    
C50   Br2   S    
C108  H64   S    
C94   N9    A    
C7    C175  A    
C100  C120  S    
C77   C81   A    
C172  H84   S    
C111  C156  S    
C74   C78   A    
C136  O40   A    
C68   C72   A    
C89   C145  S    
O43   Zn7   S    
C118  H90   S    
C169  H81   S    
O30   Zn2   S    
C14   C30   S    
C176  H100  S    
C15   C35   S    
C81   C85   A    
C130  H74   S    
O14   Zn9   S    
C101  C105  S    
C115  C143  S    
C20   C24   S    
C36   C40   S    
C34   C38   S    
C39   C43   S    
C171  C175  A    
O3    Zn3   S    
C125  H93   S    
C25   C150  S    
C14   H14   S    
C122  C126  S    
C163  C167  A    
C179  O51   D    
C9    N5    A    
C17   H109  S    
C11   N7    A    
C82   H42   S    
C40   C44   S    
C119  H91   S    
C108  H68   S    
C105  C121  S    
C72   C76   A    
C157  H1    S    
C125  H77   S    
C177  H121  S    
C131  H71   S    
C18   C30   S    
C110  C138  T    
O12   Zn12  S    
C68   C88   A    
C159  C163  A    
C90   O34   A    
C97   C113  S    
C153  O9    A    
C132  H76   S    
C161  H37   S    
C128  C132  S    
C6    C46   S    
C46   O26   A    
C49   Br1   S    
C152  O48   A    
C14   C34   S    
O44   Zn8   S    
C77   H33   S    
C150  O6    A    
C67   C87   A    
C90   C146  S    
C71   C75   A    
C17   H113  S    
C10   C165  S    
C23   C39   S    
C30   C58   S    
C24   C40   S    
C166  C170  A    
C102  C106  S    
C99   H51   S    
C158  C162  A    
C172  C176  A    
C65   H25   S    
C43   H23   S    
C120  C124  S    
C98   H50   S    
C8    C160  A    
