data_mof_unit_12171.cif
_audit_creation_date              2013-03-05T16:07:57-0500
_audit_creation_method            fapswitch 2.2
_symmetry_space_group_name_H-M    P1
_symmetry_Int_Tables_number       1
_space_group_crystal_system       triclinic
_cell_length_a                    6.95675
_cell_length_b                    14.525417
_cell_length_c                    16.018411
_cell_angle_alpha                 90.274427
_cell_angle_beta                  90.005297
_cell_angle_gamma                 89.967153
_cell_volume                      1618.63670228

loop_
_atom_site_label
_atom_site_type_symbol
_atom_site_description
_atom_site_fract_x
_atom_site_fract_y
_atom_site_fract_z
_atom_type_partial_charge
O1    O     O_R   0.494380 0.415640 0.412830 -0.590200
O2    O     O_R   0.823960 0.405540 0.586560 -0.578466
O3    O     O_R   0.994270 0.584360 0.587170 -0.593536
C1    C     C_R   0.655215 0.383477 0.615211 0.943983
O4    O     O_R   0.824090 0.404620 0.413450 -0.583658
O5    O     O_R   0.994400 0.583430 0.412820 -0.600240
C2    C     C_R   0.655353 0.382503 0.384500 0.957425
O6    O     O_R   0.494250 0.416570 0.587180 -0.587612
O7    O     O_3   0.660800 0.558670 0.500000 -0.291947
V1    V     V_3+5 0.935650 0.489120 0.500000 1.196331
O8    O     O_R   0.324110 0.594460 0.413440 -0.592650
C3    C     C_R   0.155057 0.616148 0.384346 0.998252
O9    O     O_R   0.323980 0.595380 0.586550 -0.599909
C4    C     C_R   0.155201 0.617574 0.615547 0.901271
V2    V     V_3+5 0.435660 0.510880 0.500000 1.181591
O10   O     O_3   0.160640 0.441330 0.500000 -0.264109
C5    C     C_3   0.045796 0.645077 0.764221 -0.290666
H1    H     H_    0.898430 0.621325 0.747762 0.157815
H2    H     H_    0.127896 0.583665 0.785332 0.195066
C6    C     C_3   0.033012 0.716344 0.836741 -0.386581
H3    H     H_    0.108807 0.689014 0.892570 0.156205
H4    H     H_    0.879649 0.726456 0.854353 0.162403
H5    H     H_    0.879533 0.752877 0.641042 0.157339
H6    H     H_    0.861094 0.857684 0.747905 0.148945
C7    C     C_3   0.027382 0.773631 0.659852 -0.380919
C8    C     C_3   0.348377 0.720473 0.713129 -0.352509
C9    C     C_3   0.144719 0.687544 0.686384 0.086374
H7    H     H_    0.423417 0.752385 0.659134 0.149247
H8    H     H_    0.436442 0.660611 0.733498 0.163685
C10   C     C_3   0.123197 0.809669 0.810835 0.103229
C11   C     C_3   0.014810 0.844829 0.732433 -0.335061
C12   C     C_3   0.335967 0.791204 0.785223 -0.331920
H9    H     H_    0.418357 0.764820 0.839703 0.155203
H10   H     H_    0.405411 0.856572 0.765331 0.158574
H11   H     H_    0.095945 0.806213 0.604624 0.134732
H12   H     H_    0.077388 0.911506 0.711948 0.162126
C13   C     C_R   0.272878 0.815635 0.239793 0.158675
C14   C     C_R   0.118482 0.815675 0.183577 -0.221289
C15   C     C_R   0.966913 0.753850 0.199268 -0.153433
H13   H     H_    0.844502 0.751364 0.157830 0.143241
C16   C     C_R   0.977984 0.690055 0.265151 -0.098114
H14   H     H_    0.863183 0.640631 0.272621 0.143670
C17   C     C_R   0.141279 0.685891 0.317186 -0.221401
C18   C     C_R   0.284275 0.752245 0.304747 0.135388
C19   C     C_3   0.495009 0.739625 0.292797 -0.458224
C20   C     C_3   0.482730 0.809056 0.222371 -0.452954
H15   H     H_    0.530849 0.668909 0.271033 0.209005
H16   H     H_    0.579314 0.764789 0.347252 0.182192
H17   H     H_    0.512256 0.778856 0.159777 0.200577
H18   H     H_    0.559191 0.874548 0.236255 0.176750
C21   C     C_R   0.490892 0.315439 0.740353 0.017376
C22   C     C_R   0.647247 0.317364 0.685237 -0.242782
C23   C     C_R   0.798373 0.254921 0.699620 -0.052978
H19   H     H_    0.920725 0.253119 0.658128 0.136161
C24   C     C_R   0.786610 0.189537 0.763984 -0.166506
H20   H     H_    0.899702 0.139245 0.770433 0.192719
C25   C     C_R   0.623778 0.184436 0.815778 -0.132897
C26   C     C_R   0.478716 0.249816 0.803664 -0.030368
C27   C     C_3   0.270777 0.233617 0.787089 0.408882
C28   C     C_3   0.283004 0.306446 0.719811 0.464383
H21   H     H_    0.176397 0.251441 0.840779 0.117809
H22   H     H_    0.256062 0.281154 0.655247 0.055592
C29   C     C_R   0.501176 0.320117 0.253663 0.052648
C30   C     C_R   0.647844 0.316625 0.313549 -0.253205
C31   C     C_R   0.795305 0.251460 0.300456 -0.121017
H23   H     H_    0.914568 0.247291 0.343598 0.112296
C32   C     C_R   0.783663 0.186640 0.234738 -0.095485
H24   H     H_    0.894523 0.134644 0.229423 0.112411
C33   C     C_R   0.624990 0.185450 0.179739 -0.204861
C34   C     C_R   0.490761 0.256734 0.188268 0.016321
C35   C     C_3   0.276232 0.255181 0.190778 0.031002
C36   C     C_3   0.287931 0.324119 0.263136 0.563948
H25   H     H_    0.216832 0.187009 0.208550 0.015363
H26   H     H_    0.237784 0.296768 0.323986 -0.041363
O11   O     O_R   0.771490 0.080820 0.910070 -0.594044
O12   O     O_R   0.441590 0.092730 0.083780 -0.598440
O13   O     O_R   0.271350 0.913900 0.084390 -0.599737
C37   C     C_R   0.610658 0.114956 0.112694 0.959703
O14   O     O_R   0.441780 0.091820 0.910670 -0.560219
O15   O     O_R   0.271540 0.912980 0.910040 -0.594363
C38   C     C_R   0.610705 0.113770 0.881911 0.976500
O16   O     O_R   0.771300 0.081740 0.084420 -0.569617
O17   O     O_3   0.604960 0.938700 0.997240 -0.297963
V3    V     V_3+5 0.330090 0.008230 0.997220 1.208535
O18   O     O_R   0.941820 0.901930 0.910640 -0.604483
C39   C     C_R   0.111064 0.879674 0.881684 0.878679
O19   O     O_R   0.941630 0.902840 0.083750 -0.607667
C40   C     C_R   0.110461 0.880892 0.112617 0.923261
V4    V     V_3+5 0.830090 0.986410 0.997190 1.177534
O20   O     O_3   0.105080 0.055990 0.997200 -0.227187
F1    F     F_    0.240932 0.146538 0.753934 -0.742401
F2    F     F_    0.182615 0.385592 0.740644 -0.706096
N1    N     N_R   0.191111 0.293011 0.114621 0.295603
O21   O     O_R   0.262948 0.365817 0.079211 -0.317757
O22   O     O_R   0.048514 0.250427 0.078964 -0.369611
F3    F     F_    0.216504 0.410699 0.244673 -0.639573

loop_
_geom_bond_atom_site_label_1
_geom_bond_atom_site_label_2
_geom_bond_distance
_ccdc_geom_bond_type
C7    C11   1.554766 S    
O19   C40   1.302238 A    
C8    C12   1.544414 S    
N1    O21   1.302419 A    
C16   H14   1.081220 S    
O15   V3    2.003076 S    
O12   V3    2.003821 S    
C15   C16   1.409836 A    
C6    C10   1.552367 S    
O18   C39   1.305419 A    
C18   C19   1.489594 S    
C20   H17   1.111603 S    
C8    C9    1.555096 S    
O16   V4    2.004498 S    
C1    C22   1.481176 S    
O12   C37   1.304228 A    
C3    C17   1.484281 S    
O5    C3    1.298384 A    
C10   C11   1.553098 S    
V2    O10   2.164097 S    
C5    C6    1.554788 S    
C28   H22   1.111792 S    
C19   H15   1.111356 S    
O15   C39   1.298114 A    
O8    V2    2.003367 S    
O13   C40   1.299946 A    
C31   C32   1.411316 A    
C34   C35   1.493158 S    
O1    V2    2.002836 S    
C4    C9    1.521405 S    
C10   C39   1.522483 S    
O7    V1    2.162027 S    
C1    O6    1.299216 A    
C28   F2    1.384259 S    
C27   C28   1.516172 S    
N1    O22   1.300061 A    
O9    C4    1.302514 A    
C16   C17   1.410371 A    
C33   C37   1.483702 S    
V3    O20   1.711814 S    
C23   C24   1.407527 A    
C14   C15   1.408810 A    
O17   V4    1.713012 S    
C27   H21   1.111563 S    
C32   H24   1.082209 S    
C5    C9    1.554572 S    
C36   H26   1.110645 S    
V4    O20   2.164114 S    
C15   H13   1.080186 S    
O14   C38   1.302624 A    
O18   V4    2.003711 S    
O11   C38   1.298085 A    
O13   V3    2.003293 S    
C26   C27   1.489351 S    
C19   C20   1.519146 S    
C21   C22   1.401370 A    
C14   C40   1.484164 S    
C32   C33   1.412308 A    
C12   H10   1.113515 S    
O2    C1    1.301291 A    
C17   C18   1.400442 A    
C13   C14   1.401574 A    
C37   O16   1.297765 A    
O17   V3    2.162015 S    
C29   C34   1.393190 A    
C24   H20   1.078592 S    
C5    H1    1.113114 S    
C21   C26   1.397712 A    
C27   F1    1.385230 S    
C6    H3    1.112868 S    
O3    C4    1.300470 A    
C7    H11   1.112873 S    
C6    H4    1.113077 S    
O6    V2    2.002621 S    
O9    V2    2.003750 S    
C25   C38   1.481423 S    
O2    V1    2.004381 S    
C22   C23   1.407820 A    
O4    C2    1.301959 A    
C19   H16   1.111551 S    
O1    C2    1.299640 A    
O5    V1    2.003222 S    
O8    C3    1.304004 A    
C23   H19   1.080200 S    
C35   N1    1.465161 S    
C7    C9    1.553835 S    
C20   H18   1.111715 S    
C8    H7    1.113395 S    
C30   C31   1.410442 A    
C13   C18   1.394882 A    
C24   C25   1.406365 A    
O7    V2    1.713544 S    
H6    C11   1.113197 S    
C35   C36   1.530269 S    
O3    V1    2.002964 S    
V1    O10   1.711862 S    
C12   H9    1.113470 S    
C10   C12   1.558783 S    
C25   C26   1.399494 A    
O14   V3    2.004359 S    
C5    H2    1.112897 S    
H5    C7    1.113110 S    
C33   C34   1.400120 A    
C2    C30   1.483137 S    
O11   V4    2.002961 S    
C29   C30   1.401466 A    
C36   F3    1.385200 S    
O4    V1    2.003873 S    
C29   C36   1.492322 S    
C8    H8    1.113518 S    
C31   H23   1.081595 S    
C35   H25   1.111554 S    
O19   V4    2.003250 S    
C11   H12   1.112983 S    
C21   C28   1.488834 S    
C13   C20   1.489273 S    
