data_mof_unit_46365.cif
_audit_creation_date              2012-12-10T17:15:14-0500
_audit_creation_method            fapswitch 2.2
_symmetry_space_group_name_H-M    P1
_symmetry_Int_Tables_number       1
_space_group_crystal_system       triclinic
_cell_length_a                    15.852421
_cell_length_b                    12.981816
_cell_length_c                    11.769875
_cell_angle_alpha                 98.706619
_cell_angle_beta                  92.620034
_cell_angle_gamma                 91.956331
_cell_volume                      2389.67716677

loop_
_atom_site_label
_atom_site_type_symbol
_atom_type_description
_atom_site_fract_x
_atom_site_fract_y
_atom_site_fract_z
_atom_type_partial_charge
C1    C     C_R   0.496467 0.300260 0.479874 0.740287
C2    C     C_R   0.504278 0.699836 0.520104 0.742838
C3    C     C_R   0.396733 0.031345 0.433548 -0.098028
C4    C     C_R   0.600318 0.970957 0.572457 -0.087423
C5    C     C_R   0.407377 0.138251 0.433492 -0.063869
C6    C     C_R   0.588478 0.865112 0.578194 -0.066731
C7    C     C_R   0.553775 0.131843 0.509331 -0.026677
C8    C     C_R   0.449829 0.865516 0.475811 -0.048460
C9    C     C_R   0.539689 0.025286 0.517246 0.090165
C10   C     C_R   0.461892 0.973468 0.473878 0.076142
C11   C     C_R   0.407303 0.415659 0.031523 -0.085903
C12   C     C_R   0.568040 0.614559 0.972160 -0.090065
C13   C     C_R   0.420244 0.421094 0.151033 0.019871
C14   C     C_R   0.563580 0.598762 0.851392 0.014615
C15   C     C_R   0.537405 0.540280 0.153374 0.159072
C16   C     C_R   0.467116 0.454046 0.845946 0.148992
C17   C     C_R   0.524303 0.542874 0.032551 0.008946
C18   C     C_R   0.465173 0.469933 0.968993 0.004385
C19   C     C_R   0.340081 0.500302 0.501172 0.787469
C20   C     C_R   0.659925 0.499966 0.498848 0.790737
C21   C     C_3   0.969205 0.408139 0.523676 -0.216848
C22   C     C_3   0.030782 0.592261 0.475998 -0.223556
C23   C     C_3   0.023173 0.423493 0.421225 0.027629
C24   C     C_3   0.976810 0.576916 0.578447 0.026812
C25   C     C_1   0.250506 0.500455 0.503447 -0.129958
C26   C     C_1   0.749491 0.499872 0.496500 -0.104830
C27   C     C_3   0.030345 0.485530 0.604943 -0.221136
C28   C     C_3   0.969632 0.514876 0.394738 -0.211740
C29   C     C_3   0.083166 0.499850 0.501437 0.149049
C30   C     C_3   0.916818 0.500553 0.498244 0.146043
C31   C     C_1   0.174943 0.500341 0.503428 0.035461
C32   C     C_1   0.825047 0.500022 0.496377 0.046171
C33   C     C_R   0.513285 0.812431 0.528309 -0.177381
C34   C     C_R   0.486297 0.188030 0.471519 -0.154606
Cu1   Cu    Cu3+1 0.506200 0.507730 0.615930 0.950305
Cu2   Cu    Cu3+1 0.493800 0.492270 0.384070 0.973884
H1    H     H_    0.943145 0.332386 0.542419 0.171968
H2    H     H_    0.056838 0.668010 0.457240 0.163175
H3    H     H_    0.943956 0.526266 0.308369 0.170995
H4    H     H_    0.056012 0.474141 0.691316 0.170462
H5    H     H_    0.335292 0.994959 0.406959 0.215498
H6    H     H_    0.657382 0.010873 0.612937 0.217553
H7    H     H_    0.596760 0.652593 0.805491 0.133352
H8    H     H_    0.376802 0.379905 0.198505 0.138365
N1    N     N_R   0.515540 0.519350 0.790140 -0.224358
N2    N     N_R   0.484460 0.480650 0.209860 -0.223894
O1    O     O_R   0.504400 0.354460 0.582000 -0.601262
O2    O     O_R   0.495600 0.645540 0.418000 -0.585143
O3    O     O_R   0.493920 0.341410 0.386200 -0.570746
O4    O     O_R   0.506080 0.658590 0.613800 -0.588872
O5    O     O_R   0.384320 0.506520 0.597880 -0.596925
O6    O     O_R   0.615680 0.493480 0.402120 -0.585582
O7    O     O_R   0.373840 0.493460 0.402080 -0.571729
O8    O     O_R   0.626160 0.506540 0.597920 -0.576701
C35   C     C_2   0.046817 0.336113 0.331637 0.403318
H9    H     H_    0.997559 0.287413 0.280850 0.083612
O9    O     O_2   0.120848 0.319212 0.315189 -0.499702
C36   C     C_2   0.953161 0.664383 0.667937 0.396506
H10   H     H_    0.002420 0.712759 0.719113 0.078780
O10   O     O_2   0.879130 0.681762 0.683817 -0.501936
C37   C     C_2   0.371833 0.805879 0.423588 0.396522
H11   H     H_    0.341162 0.749444 0.469118 0.053761
O11   O     O_2   0.344617 0.814495 0.326885 -0.502795
C38   C     C_2   0.638911 0.185194 0.535883 0.344427
H12   H     H_    0.645284 0.264155 0.582038 0.100226
O12   O     O_2   0.702499 0.143005 0.501108 -0.521993
C39   C     C_2   0.657654 0.809963 0.630885 0.403231
H13   H     H_    0.655867 0.725782 0.623405 0.078948
O13   O     O_2   0.718568 0.858295 0.683143 -0.493927
C40   C     C_2   0.334481 0.197142 0.396433 0.406946
H14   H     H_    0.339223 0.281047 0.401267 0.070048
O14   O     O_2   0.267468 0.152338 0.359921 -0.489845
C41   C     C_2   0.425110 0.359797 0.778364 0.483796
H15   H     H_    0.379729 0.365459 0.708454 0.106567
O15   O     O_2   0.441248 0.273585 0.800892 -0.563143
C42   C     C_2   0.614417 0.590906 0.215573 0.485887
H16   H     H_    0.610731 0.646112 0.293497 0.111142
O16   O     O_2   0.683863 0.570990 0.179169 -0.562784
C43   C     C_2   0.326220 0.364421 0.981415 0.407280
H17   H     H_    0.300969 0.296410 0.013950 0.099540
O17   O     O_2   0.284032 0.401817 0.909650 -0.548391
C44   C     C_2   0.609321 0.714685 0.028286 0.409091
H18   H     H_    0.663898 0.746640 0.990990 0.100181
O18   O     O_2   0.579391 0.765901 0.111400 -0.523110

loop_
_geom_bond_atom_site_label_1
_geom_bond_atom_site_label_2
_ccdc_geom_bond_type
C25   C31   T    
C35   H9    S    
C11   C18   A    
C26   C32   T    
C22   C29   S    
C27   C29   S    
C41   H15   S    
Cu1   Cu2   S    
C24   C27   S    
Cu1   O1    S    
C4    H6    S    
C23   C29   S    
C42   O16   D    
C13   N2    A    
C36   O10   D    
C22   H2    S    
C15   C17   A    
C37   O11   D    
Cu2   O7    S    
C2    O4    A    
C12   C17   A    
Cu2   N2    S    
C40   H14   S    
C9    C10   A    
Cu2   O6    S    
C8    C37   S    
C19   O7    A    
C15   C42   S    
C21   C27   S    
C22   C28   S    
Cu1   O8    S    
C41   O15   D    
C1    C34   S    
C14   N1    A    
C16   C41   S    
C24   C36   S    
C42   H16   S    
C20   O8    A    
C43   O17   D    
C1    O1    A    
C28   H3    S    
C2    O2    A    
C36   H10   S    
C39   H13   S    
C39   O13   D    
C38   O12   D    
C5    C40   S    
C27   H4    S    
C5    C34   A    
Cu1   O4    S    
C17   C18   A    
C12   C44   S    
C23   C28   S    
C11   C43   S    
C2    C33   S    
C16   C18   A    
C6    C39   S    
C12   C14   A    
C44   O18   D    
C35   O9    D    
Cu1   O5    S    
C7    C34   A    
C22   C24   S    
C4    C6    A    
Cu1   N1    S    
C7    C9    A    
C3    H5    S    
C8    C10   A    
C3    C5    A    
C16   N1    A    
C23   C35   S    
C21   C30   S    
C6    C33   A    
C38   H12   S    
C21   C23   S    
C29   C31   S    
C3    C10   A    
C30   C32   S    
C11   C13   A    
C20   C26   S    
C28   C30   S    
Cu2   O2    S    
C8    C33   A    
C37   H11   S    
C19   C25   S    
C24   C30   S    
C7    C38   S    
C43   H17   S    
C19   O5    A    
C21   H1    S    
C20   O6    A    
C44   H18   S    
C40   O14   D    
C15   N2    A    
C4    C9    A    
C1    O3    A    
C13   H8    S    
Cu2   O3    S    
C14   H7    S    
