data_mof_unit_26053.cif
_audit_creation_date              2012-12-10T16:40:38-0500
_audit_creation_method            fapswitch 2.2
_symmetry_space_group_name_H-M    P1
_symmetry_Int_Tables_number       1
_space_group_crystal_system       triclinic
_cell_length_a                    16.836573
_cell_length_b                    16.896891
_cell_length_c                    16.821279
_cell_angle_alpha                 67.202765
_cell_angle_beta                  67.45074
_cell_angle_gamma                 67.141162
_cell_volume                      3909.27241434

loop_
_atom_site_label
_atom_site_type_symbol
_atom_type_description
_atom_site_fract_x
_atom_site_fract_y
_atom_site_fract_z
_atom_type_partial_charge
C1    C     C_R   0.591212 0.035090 0.595593 0.099892
C2    C     C_R   0.399445 0.992062 0.398078 0.112096
C3    C     C_R   0.002907 0.601700 0.606500 0.099779
C4    C     C_R   0.969945 0.401193 0.408160 0.108052
C5    C     C_R   0.599743 0.600922 0.012063 0.092983
C6    C     C_R   0.397378 0.399332 0.988339 0.102053
C7    C     C_R   0.021088 0.829978 0.568332 0.808727
C8    C     C_R   0.968005 0.171282 0.436296 0.814811
C9    C     C_R   0.829904 0.567639 0.022222 0.819155
C10   C     C_R   0.171299 0.436067 0.968959 0.809328
C11   C     C_R   0.563985 0.030915 0.828700 0.826888
C12   C     C_R   0.435019 0.972278 0.171271 0.786876
C13   C     C_R   0.431951 0.169856 0.978340 0.813951
C14   C     C_R   0.564372 0.828459 0.029881 0.793938
C15   C     C_R   0.976193 0.432870 0.170623 0.813300
C16   C     C_R   0.031234 0.563708 0.828486 0.780536
C17   C     C_R   0.170903 0.974958 0.433774 0.817207
C18   C     C_R   0.828889 0.026169 0.566029 0.801940
C19   C     C_R   0.539293 0.025833 0.546338 -0.038017
C20   C     C_R   0.448104 0.004441 0.448143 -0.033729
C21   C     C_R   0.984718 0.554656 0.557113 -0.040572
C22   C     C_R   0.974760 0.453756 0.460125 -0.015976
C23   C     C_R   0.551864 0.546241 0.003853 -0.031395
C24   C     C_R   0.450926 0.446466 0.999214 -0.011936
C25   C     C_R   0.512610 0.097853 0.473661 0.112782
C26   C     C_R   0.476562 0.932054 0.519498 0.125099
C27   C     C_R   0.975779 0.466245 0.598343 0.141233
C28   C     C_R   0.949483 0.548938 0.432160 0.155171
C29   C     C_R   0.466847 0.586675 0.987209 0.138765
C30   C     C_R   0.546061 0.412586 0.985764 0.150398
C31   C     C_R   0.464035 0.088098 0.426231 0.106079
C32   C     C_R   0.515940 0.945252 0.572823 0.114705
C33   C     C_R   0.410625 0.531827 0.015392 0.132938
C34   C     C_R   0.586460 0.451901 0.015293 0.089394
C35   C     C_R   0.999922 0.412165 0.541700 0.128835
C36   C     C_R   0.981090 0.592554 0.465815 0.087696
C37   C     C_R   0.549899 0.046839 0.681382 -0.256781
C38   C     C_R   0.442306 0.980730 0.312339 -0.240794
C39   C     C_R   0.987571 0.695122 0.579556 -0.270711
C40   C     C_R   0.950075 0.318717 0.450926 -0.270358
C41   C     C_R   0.692816 0.572499 0.997560 -0.270616
C42   C     C_R   0.318371 0.446019 0.960519 -0.267190
C43   C     C_R   0.310327 0.989914 0.437195 -0.272103
C44   C     C_R   0.683374 0.025753 0.559606 -0.241602
C45   C     C_R   0.424526 0.306152 0.005735 -0.224261
C46   C     C_R   0.553830 0.683365 0.032778 -0.232703
C47   C     C_R   0.987130 0.432199 0.314321 -0.230817
C48   C     C_R   0.035174 0.553895 0.682890 -0.235509
C49   C     C_R   0.599504 0.049254 0.730529 -0.118900
C50   C     C_R   0.398959 0.960437 0.268794 -0.105095
C51   C     C_R   0.025958 0.734619 0.610172 -0.066390
C52   C     C_R   0.949108 0.269353 0.400915 -0.107038
C53   C     C_R   0.734044 0.607959 0.029050 -0.069723
C54   C     C_R   0.269354 0.399689 0.952935 -0.105532
C55   C     C_R   0.267732 0.965633 0.396141 -0.068808
C56   C     C_R   0.731271 0.039567 0.603747 -0.107535
C57   C     C_R   0.390091 0.264719 0.973349 -0.103140
C58   C     C_R   0.599718 0.730135 0.045193 -0.110489
C59   C     C_R   0.965842 0.392993 0.267622 -0.107703
C60   C     C_R   0.047863 0.598919 0.729850 -0.112073
C61   C     C_R   0.685871 0.060923 0.686362 0.106848
C62   C     C_R   0.317577 0.938043 0.317314 0.114971
C63   C     C_R   0.062876 0.683203 0.683627 0.125559
C64   C     C_R   0.939400 0.313333 0.313793 0.107127
C65   C     C_R   0.683539 0.683185 0.062472 0.122492
C66   C     C_R   0.313174 0.313648 0.941803 0.103667
Cu1   Cu    Cu3+1 0.995180 0.995180 0.424630 0.903070
Cu2   Cu    Cu3+1 0.004820 0.004820 0.575370 0.901817
Cu3   Cu    Cu3+1 0.995180 0.424630 0.995180 0.890608
Cu4   Cu    Cu3+1 0.004820 0.575370 0.004820 0.908894
Cu5   Cu    Cu3+1 0.424630 0.995180 0.995180 0.900042
Cu6   Cu    Cu3+1 0.575370 0.004820 0.004820 0.898431
H1    H     H_    0.479798 0.050653 0.711381 0.165973
H2    H     H_    0.508641 0.990048 0.279105 0.155128
H3    H     H_    0.949172 0.737389 0.531936 0.151043
H4    H     H_    0.938741 0.290566 0.522661 0.151377
H5    H     H_    0.732918 0.519330 0.965990 0.157449
H6    H     H_    0.292208 0.517645 0.947585 0.150719
H7    H     H_    0.275091 0.005799 0.500598 0.162744
H8    H     H_    0.717194 0.008745 0.496700 0.160451
H9    H     H_    0.473915 0.265811 0.042435 0.144774
H10   H     H_    0.483313 0.712941 0.036697 0.150762
H11   H     H_    0.014864 0.488432 0.277807 0.150958
H12   H     H_    0.046719 0.482412 0.709454 0.147758
O1    O     O_R   0.124540 0.978640 0.385460 -0.580387
O2    O     O_R   0.875460 0.021360 0.614540 -0.576827
O3    O     O_R   0.978640 0.385460 0.124540 -0.572164
O4    O     O_R   0.021360 0.614540 0.875460 -0.591682
O5    O     O_R   0.385460 0.124540 0.978640 -0.575319
O6    O     O_R   0.614540 0.875460 0.021360 -0.589859
O7    O     O_R   0.614540 0.021360 0.875460 -0.570334
O8    O     O_R   0.385460 0.978640 0.124540 -0.594871
O9    O     O_R   0.875460 0.614540 0.021360 -0.578983
O10   O     O_R   0.124540 0.385460 0.978640 -0.573989
O11   O     O_R   0.021360 0.875460 0.614540 -0.584090
O12   O     O_R   0.978640 0.124540 0.385460 -0.573401
O13   O     O_R   0.013780 0.867370 0.487190 -0.593689
O14   O     O_R   0.986220 0.132630 0.512810 -0.597363
O15   O     O_R   0.867370 0.487190 0.013780 -0.597854
O16   O     O_R   0.132630 0.512810 0.986220 -0.596913
O17   O     O_R   0.487190 0.013780 0.867370 -0.590663
O18   O     O_R   0.512810 0.986220 0.132630 -0.593853
O19   O     O_R   0.512810 0.132630 0.986220 -0.600196
O20   O     O_R   0.487190 0.867370 0.013780 -0.588982
O21   O     O_R   0.986220 0.512810 0.132630 -0.590994
O22   O     O_R   0.013780 0.487190 0.867370 -0.593271
O23   O     O_R   0.132630 0.986220 0.512810 -0.591516
O24   O     O_R   0.867370 0.013780 0.487190 -0.601095
C67   C     C_3   0.523538 0.877692 0.663312 -0.381111
C68   C     C_3   0.432500 0.893432 0.733460 -0.848823
H13   H     H_    0.401744 0.965029 0.730869 0.245306
H14   H     H_    0.384333 0.872378 0.721554 0.235470
H15   H     H_    0.440725 0.855750 0.801657 0.252162
H16   H     H_    0.547686 0.807770 0.659891 0.202607
H17   H     H_    0.574432 0.881621 0.687049 0.213572
C69   C     C_3   0.425350 0.167553 0.354896 -0.390164
C70   C     C_3   0.329415 0.217329 0.395938 -0.836421
H18   H     H_    0.285097 0.172864 0.425077 0.259808
H19   H     H_    0.327222 0.241790 0.449391 0.243200
H20   H     H_    0.303461 0.275682 0.343278 0.244289
H21   H     H_    0.466278 0.215242 0.319766 0.207691
H22   H     H_    0.425829 0.146302 0.300147 0.205424
C71   C     C_3   0.019269 0.669841 0.400436 -0.406163
C72   C     C_3   0.075183 0.653414 0.309285 -0.876661
H23   H     H_    0.126701 0.587534 0.318462 0.258620
H24   H     H_    0.032609 0.655104 0.271771 0.248191
H25   H     H_    0.109160 0.706882 0.268665 0.242916
H26   H     H_    0.964339 0.732914 0.390677 0.195209
H27   H     H_    0.066556 0.678426 0.425472 0.229731
C73   C     C_3   0.057378 0.315985 0.566814 -0.409597
C74   C     C_3   0.142783 0.311006 0.583096 -0.859782
H28   H     H_    0.181202 0.352653 0.523106 0.255858
H29   H     H_    0.126882 0.334477 0.642055 0.244449
H30   H     H_    0.185455 0.240622 0.596142 0.242272
H31   H     H_    0.018771 0.275608 0.627877 0.203515
H32   H     H_    0.080538 0.284545 0.512002 0.220866
C75   C     C_3   0.658082 0.391564 0.064210 -0.405166
C76   C     C_3   0.633069 0.308134 0.133778 -0.880756
H33   H     H_    0.567060 0.327410 0.182205 0.258719
H34   H     H_    0.630444 0.263449 0.101467 0.246621
H35   H     H_    0.684796 0.270133 0.170892 0.246308
H36   H     H_    0.723443 0.371005 0.015652 0.192235
H37   H     H_    0.666561 0.426525 0.102888 0.225537
C77   C     C_3   0.312492 0.566110 0.062241 -0.418313
C78   C     C_3   0.301385 0.597399 0.140680 -0.858823
H38   H     H_    0.334107 0.541453 0.190481 0.256999
H39   H     H_    0.330313 0.654079 0.117363 0.247086
H40   H     H_    0.229114 0.620801 0.173297 0.247999
H41   H     H_    0.278231 0.622922 0.014167 0.204624
H42   H     H_    0.278366 0.512675 0.090903 0.219980
C79   C     C_3   0.470192 0.838866 0.535266 -0.384722
C80   C     C_3   0.560244 0.780958 0.492331 -0.856414
H43   H     H_    0.579453 0.811218 0.418576 0.256451
H44   H     H_    0.613650 0.774233 0.519741 0.248193
H45   H     H_    0.554930 0.713169 0.505937 0.241942
H46   H     H_    0.447315 0.804953 0.607414 0.196260
H47   H     H_    0.419666 0.840460 0.507382 0.215924
C81   C     C_3   0.532041 0.186606 0.450126 -0.373825
C82   C     C_3   0.615898 0.194536 0.371586 -0.874064
H48   H     H_    0.677061 0.150081 0.392905 0.254609
H49   H     H_    0.614709 0.176016 0.315690 0.250775
H50   H     H_    0.619952 0.264437 0.346909 0.243738
H51   H     H_    0.473999 0.244030 0.434511 0.200325
H52   H     H_    0.540999 0.195520 0.507818 0.206251
C83   C     C_3   0.607859 0.348558 0.928836 -0.389265
C84   C     C_3   0.597840 0.385590 0.833578 -0.845835
H53   H     H_    0.530220 0.390876 0.833308 0.262646
H54   H     H_    0.609729 0.452634 0.801802 0.247552
H55   H     H_    0.648021 0.340089 0.792855 0.237522
H56   H     H_    0.678986 0.339150 0.921757 0.197952
H57   H     H_    0.599963 0.280444 0.959211 0.198514
C85   C     C_3   0.447072 0.675131 0.916797 -0.420836
C86   C     C_3   0.442271 0.659416 0.835024 -0.845376
H58   H     H_    0.504540 0.609740 0.809857 0.254621
H59   H     H_    0.383739 0.634875 0.852263 0.243938
H60   H     H_    0.435186 0.721868 0.780091 0.246200
H61   H     H_    0.382881 0.721152 0.944642 0.202542
H62   H     H_    0.501032 0.707859 0.892814 0.214213
C87   C     C_3   0.878643 0.604950 0.381511 -0.396626
C88   C     C_3   0.789252 0.583662 0.435157 -0.848161
H63   H     H_    0.769653 0.589132 0.504292 0.250615
H64   H     H_    0.736070 0.631984 0.402534 0.238752
H65   H     H_    0.793809 0.515153 0.438582 0.262434
H66   H     H_    0.866390 0.677259 0.371234 0.204861
H67   H     H_    0.898762 0.597000 0.313768 0.201733
C89   C     C_3   0.927959 0.433633 0.697002 -0.414372
C90   C     C_3   0.843951 0.410673 0.708810 -0.852533
H68   H     H_    0.798082 0.469514 0.673528 0.254646
H69   H     H_    0.861522 0.353537 0.682186 0.244337
H70   H     H_    0.808202 0.391819 0.781218 0.242197
H71   H     H_    0.973577 0.373880 0.731561 0.202256
H72   H     H_    0.904199 0.486323 0.731311 0.217490
C91   C     C_3   0.719312 0.113574 0.717145 -0.354604
C92   C     C_3   0.780411 0.055417 0.779542 -0.676419
H73   H     H_    0.749931 0.070257 0.845425 0.220953
H74   H     H_    0.792697 0.982861 0.790735 0.251856
H75   H     H_    0.845834 0.070960 0.750617 0.218167
H76   H     H_    0.754790 0.158281 0.657555 0.176094
H77   H     H_    0.660992 0.160388 0.751408 0.176608
C93   C     C_3   0.289820 0.878587 0.289549 -0.363637
C94   C     C_3   0.275094 0.794014 0.365134 -0.854857
H78   H     H_    0.333582 0.759281 0.393428 0.249555
H79   H     H_    0.213605 0.809587 0.419421 0.252620
H80   H     H_    0.267188 0.747730 0.338284 0.241564
H81   H     H_    0.229539 0.916424 0.264605 0.225031
H82   H     H_    0.343566 0.853289 0.234280 0.206986
C95   C     C_3   0.122834 0.712216 0.709511 -0.360808
C96   C     C_3   0.206431 0.727338 0.632748 -0.856471
H83   H     H_    0.241935 0.667950 0.606487 0.248922
H84   H     H_    0.189428 0.787205 0.577303 0.252635
H85   H     H_    0.252711 0.737953 0.657726 0.235288
H86   H     H_    0.085030 0.772295 0.734136 0.224747
H87   H     H_    0.148877 0.659096 0.765115 0.200498
C97   C     C_3   0.884451 0.285397 0.280214 -0.353166
C98   C     C_3   0.940567 0.222742 0.219754 -0.680045
H88   H     H_    0.013643 0.210660 0.206577 0.250410
H89   H     H_    0.924968 0.157413 0.251298 0.221416
H90   H     H_    0.923695 0.251904 0.154667 0.220414
H91   H     H_    0.836790 0.252297 0.338491 0.175155
H92   H     H_    0.840520 0.346097 0.244326 0.181726
C99   C     C_3   0.713197 0.709426 0.121728 -0.364514
C100  C     C_3   0.728536 0.633209 0.206032 -0.848109
H93   H     H_    0.666474 0.612023 0.245267 0.245955
H94   H     H_    0.784102 0.574459 0.189955 0.249676
H95   H     H_    0.746068 0.657050 0.248299 0.241145
H96   H     H_    0.773459 0.733657 0.083599 0.225063
H97   H     H_    0.660404 0.765075 0.147263 0.204187
C101  C     C_3   0.287130 0.283298 0.882855 -0.356866
C102  C     C_3   0.224161 0.222933 0.935080 -0.681936
H98   H     H_    0.253938 0.159211 0.916266 0.219304
H99   H     H_    0.210819 0.207290 0.008766 0.251756
H100  H     H_    0.159247 0.255794 0.917844 0.219903
H101  H     H_    0.254757 0.342912 0.835158 0.173091
H102  H     H_    0.348768 0.248603 0.839200 0.176281

loop_
_geom_bond_atom_site_label_1
_geom_bond_atom_site_label_2
_ccdc_geom_bond_type
C85   H61   S    
C25   C31   A    
C92   H74   S    
Cu5   O20   S    
C26   C32   A    
C83   C84   S    
C6    C45   A    
C9    O9    A    
Cu2   O2    S    
C94   H78   S    
C39   C51   A    
C73   H31   S    
C8    O12   A    
Cu1   O12   S    
C57   C66   A    
C75   H36   S    
C74   H30   S    
Cu4   O4    S    
C65   C99   S    
C78   H38   S    
C71   C72   S    
C21   C36   A    
C86   H58   S    
C88   H63   S    
C22   C35   A    
C45   C57   A    
C59   C64   A    
C18   O2    A    
C69   H22   S    
C60   C63   A    
C17   O1    A    
C23   C29   A    
C64   C97   S    
C26   C79   S    
C87   H66   S    
C102  H100  S    
C97   H91   S    
C17   O23   A    
C41   H5    S    
Cu1   O24   S    
C92   H75   S    
C13   C57   S    
C10   O10   A    
C61   C91   S    
C43   H7    S    
C91   H76   S    
C55   C62   A    
C29   C33   A    
C3    C48   A    
C95   H87   S    
C93   H81   S    
C4    C22   S    
C69   C70   S    
Cu2   O14   S    
C16   C60   S    
C89   H71   S    
C8    O14   A    
C68   H13   S    
C14   O6    A    
C90   H70   S    
C77   H42   S    
C1    C44   A    
C54   C66   A    
C46   H10   S    
C40   H4    S    
Cu5   O8    S    
C4    C40   A    
C88   H64   S    
C96   H83   S    
C5    C23   S    
C79   C80   S    
C82   H49   S    
Cu2   O23   S    
C39   H3    S    
C13   O19   A    
C53   C65   A    
C8    C52   S    
C101  H102  S    
Cu3   O3    S    
C88   H65   S    
C1    C37   A    
C92   H73   S    
Cu5   O17   S    
C75   C76   S    
C3    C39   A    
C9    O15   A    
C63   C95   S    
C71   H27   S    
C84   H54   S    
C94   H79   S    
C84   H53   S    
Cu3   Cu4   S    
C10   C54   S    
C19   C32   A    
C101  C102  S    
C78   H39   S    
Cu4   O16   S    
C48   C60   A    
C68   H14   S    
C86   H59   S    
C33   C77   S    
C14   C58   S    
C73   H32   S    
Cu1   O1    S    
Cu2   O11   S    
C49   C61   A    
C32   C67   S    
C30   C34   A    
C2    C20   S    
C95   C96   S    
C89   H72   S    
C44   H8    S    
C36   C71   S    
C51   C63   A    
C20   C26   A    
Cu3   O10   S    
C69   H21   S    
C98   H90   S    
Cu6   O7    S    
Cu1   O13   S    
C97   C98   S    
C93   C94   S    
C81   H52   S    
C100  H95   S    
C27   C35   A    
C40   C52   A    
C1    C19   S    
C47   C59   A    
C99   H96   S    
C76   H35   S    
C48   H12   S    
C27   C89   S    
C10   O16   A    
Cu1   Cu2   S    
C12   O18   A    
C102  H98   S    
C11   C49   S    
C99   C100  S    
C37   C49   A    
C44   C56   A    
C58   C65   A    
C14   O20   A    
C82   H48   S    
Cu5   O5    S    
C80   H45   S    
C2    C43   A    
C23   C34   A    
C6    C24   S    
Cu4   O9    S    
C82   H50   S    
C11   O17   A    
C79   H46   S    
C100  H94   S    
C18   C56   S    
C68   H15   S    
C41   C53   A    
C101  H101  S    
C76   H34   S    
C83   H57   S    
C72   H25   S    
C87   H67   S    
C29   C85   S    
C81   H51   S    
C43   C55   A    
C80   H44   S    
C42   H6    S    
C35   C73   S    
C52   C64   A    
C95   H86   S    
C50   C62   A    
C94   H80   S    
C91   H77   S    
C70   H20   S    
C24   C30   A    
C9    C53   S    
C74   H28   S    
C79   H47   S    
C31   C69   S    
C78   H40   S    
C85   C86   S    
C72   H24   S    
Cu6   O6    S    
C38   H2    S    
C86   H60   S    
C85   H62   S    
C83   H56   S    
C5    C41   A    
C93   H82   S    
C7    O13   A    
C77   H41   S    
C13   O5    A    
C15   C59   S    
C12   O8    A    
C45   H9    S    
C30   C83   S    
C77   C78   S    
C74   H29   S    
Cu4   O21   S    
C12   C50   S    
Cu3   O22   S    
C38   C50   A    
Cu6   O19   S    
C16   O22   A    
C87   C88   S    
C7    O11   A    
C5    C46   A    
C99   H97   S    
C34   C75   S    
C37   H1    S    
C24   C33   A    
C2    C38   A    
Cu3   O15   S    
C70   H19   S    
C73   C74   S    
C7    C51   S    
Cu5   Cu6   S    
C102  H99   S    
C97   H92   S    
C70   H18   S    
C42   C54   A    
C15   O21   A    
C71   H26   S    
C81   C82   S    
Cu6   O18   S    
C96   H85   S    
C67   H16   S    
C17   C55   S    
C98   H88   S    
C75   H37   S    
C100  H93   S    
C19   C25   A    
C28   C87   S    
C18   O24   A    
C90   H69   S    
C98   H89   S    
C3    C21   S    
C76   H33   S    
C67   H17   S    
C62   C93   S    
C47   H11   S    
C11   O7    A    
C90   H68   S    
C80   H43   S    
C28   C36   A    
C84   H55   S    
C96   H84   S    
C91   C92   S    
C6    C42   A    
C15   O3    A    
C66   C101  S    
C25   C81   S    
C16   O4    A    
C56   C61   A    
C22   C28   A    
C89   C90   S    
C67   C68   S    
C21   C27   A    
C20   C31   A    
C46   C58   A    
C72   H23   S    
C4    C47   A    
