data_mof_unit_35969.cif
_audit_creation_date              2012-12-11T16:28:26-0500
_audit_creation_method            fapswitch 2.2
_symmetry_space_group_name_H-M    P1
_symmetry_Int_Tables_number       1
_space_group_crystal_system       triclinic
_cell_length_a                    17.246768
_cell_length_b                    7.276399
_cell_length_c                    14.613923
_cell_angle_alpha                 89.999606
_cell_angle_beta                  94.51979
_cell_angle_gamma                 89.99929
_cell_volume                      1828.2616819

loop_
_atom_site_label
_atom_site_type_symbol
_atom_type_description
_atom_site_fract_x
_atom_site_fract_y
_atom_site_fract_z
_atom_type_partial_charge
O1    O     O_R   0.663460 0.361760 0.165970 -0.516787
O2    O     O_R   0.336540 0.638240 0.834030 -0.538324
O3    O     O_R   0.836540 0.861760 0.334030 -0.516784
O4    O     O_R   0.163460 0.138240 0.665970 -0.538313
O5    O     O_R   0.827100 0.689870 0.163730 -0.543887
O6    O     O_R   0.172900 0.310130 0.836270 -0.518183
O7    O     O_R   0.672900 0.189870 0.336270 -0.543887
O8    O     O_R   0.327100 0.810130 0.663730 -0.518190
C1    C     C_R   0.855792 0.523907 0.147099 0.777932
C2    C     C_R   0.145245 0.476615 0.854431 0.777030
C3    C     C_R   0.644207 0.023908 0.352900 0.777923
C4    C     C_R   0.354753 0.976615 0.645567 0.777133
O9    O     O_R   0.663490 0.691370 0.155500 -0.545454
O10   O     O_R   0.336510 0.308630 0.844500 -0.519392
O11   O     O_R   0.836510 0.191370 0.344500 -0.545448
O12   O     O_R   0.163490 0.808630 0.655500 -0.519384
O13   O     O_R   0.671770 0.863320 0.325740 -0.517123
O14   O     O_R   0.328230 0.136680 0.674260 -0.541654
O15   O     O_R   0.828230 0.363320 0.174260 -0.517126
O16   O     O_R   0.171770 0.636680 0.825740 -0.541686
C5    C     C_R   0.640475 0.522285 0.127585 0.757394
C6    C     C_R   0.359357 0.477440 0.872314 0.759312
C7    C     C_R   0.859527 0.022283 0.372413 0.757384
C8    C     C_R   0.140638 0.977442 0.627693 0.759317
H1    H     H_    0.074624 0.085215 0.198126 0.138129
H2    H     H_    0.925092 0.940830 0.806472 0.134996
H3    H     H_    0.425406 0.585121 0.301899 0.138202
H4    H     H_    0.574897 0.440835 0.693527 0.134990
O17   O     O_3   0.752910 0.528800 0.305860 -0.372653
O18   O     O_3   0.247090 0.471200 0.694140 -0.376289
O19   O     O_3   0.747090 0.028800 0.194140 -0.372659
O20   O     O_3   0.252910 0.971200 0.805860 -0.376270
V1    V     V_3+5 0.749460 0.803010 0.239640 1.448864
V2    V     V_3+5 0.250540 0.196990 0.760360 1.459018
V3    V     V_3+5 0.750540 0.303010 0.260360 1.448865
V4    V     V_3+5 0.249460 0.696990 0.739640 1.458955
C9    C     C_1   0.468771 0.994676 0.529966 0.012302
C10   C     C_1   0.529540 0.006392 0.467695 0.016248
C11   C     C_1   0.031226 0.494679 0.970030 0.012409
C12   C     C_1   0.970458 0.506394 0.032302 0.016250
C13   C     C_R   0.008511 0.066834 0.311708 -0.214627
C14   C     C_R   0.992658 0.970367 0.693205 -0.209339
C15   C     C_R   0.491498 0.566855 0.188295 -0.214642
C16   C     C_R   0.507335 0.470368 0.806798 -0.209338
C17   C     C_R   0.077670 0.057356 0.270881 -0.281771
C18   C     C_R   0.923097 0.955021 0.732706 -0.271116
C19   C     C_R   0.422352 0.557286 0.229140 -0.281763
C20   C     C_R   0.576894 0.455027 0.767294 -0.271144
C21   C     C_R   0.146079 0.000635 0.321295 0.460648
C22   C     C_R   0.853089 0.950134 0.678126 0.439126
C23   C     C_R   0.353949 0.500484 0.178742 0.460524
C24   C     C_R   0.646905 0.450146 0.821870 0.439138
C25   C     C_R   0.144043 0.971725 0.416693 0.157137
C26   C     C_R   0.854611 0.957079 0.581810 0.148633
C27   C     C_R   0.355966 0.471656 0.083332 0.157200
C28   C     C_R   0.645386 0.457095 0.918187 0.148627
C29   C     C_R   0.073962 0.994951 0.462329 -0.033038
C30   C     C_R   0.925550 0.983758 0.538399 -0.033524
C31   C     C_R   0.426038 0.494933 0.037682 -0.033052
C32   C     C_R   0.574447 0.483768 0.961601 -0.033534
C33   C     C_R   0.003811 0.026816 0.405727 0.037198
C34   C     C_R   0.996283 0.981907 0.596842 0.035317
C35   C     C_R   0.496192 0.526823 0.094276 0.037196
C36   C     C_R   0.503712 0.481910 0.903162 0.035325
C37   C     C_R   0.070133 0.984071 0.560128 -0.109122
C38   C     C_R   0.929606 0.012742 0.441186 -0.113430
C39   C     C_R   0.429863 0.484065 0.939880 -0.109136
C40   C     C_R   0.570394 0.512754 0.058813 -0.113432
C41   C     C_1   0.417129 0.985368 0.582762 -0.161912
C42   C     C_1   0.581371 0.015513 0.415144 -0.141798
C43   C     C_1   0.082868 0.485369 0.917234 -0.161942
C44   C     C_1   0.918627 0.515512 0.084854 -0.141793
H5    H     H_    0.958101 0.102450 0.266535 0.141150
H6    H     H_    0.043958 0.969732 0.740762 0.136066
H7    H     H_    0.541907 0.602523 0.233458 0.141164
H8    H     H_    0.456034 0.469727 0.759242 0.136074
Br1   Br    Br    0.237931 0.871179 0.473838 -0.638875
Br2   Br    Br    0.756116 0.909817 0.518658 -0.637031
Br3   Br    Br    0.262061 0.371214 0.026177 -0.638957
Br4   Br    Br    0.743886 0.409861 0.981335 -0.637042
O21   O     O_3   0.781669 0.920066 0.714354 -0.572782
C45   C     C_3   0.773991 0.004140 0.800489 0.075826
H9    H     H_    0.715707 0.069550 0.796917 0.195601
H10   H     H_    0.816634 0.116140 0.818096 0.162182
C46   C     C_3   0.775497 0.856895 0.875045 -0.366175
H11   H     H_    0.727503 0.759824 0.857028 0.231975
H12   H     H_    0.831118 0.779474 0.878566 0.217092
C47   C     C_3   0.763495 0.938038 0.968791 -0.675774
H13   H     H_    0.812805 0.029573 0.991537 0.246312
H14   H     H_    0.760320 0.825378 0.019154 0.251687
H15   H     H_    0.707761 0.014882 0.966492 0.241581
O22   O     O_3   0.215785 0.959590 0.282220 -0.571528
C48   C     C_3   0.219630 0.012864 0.189642 0.095728
H16   H     H_    0.282116 0.029087 0.177790 0.176828
H17   H     H_    0.193696 0.150604 0.175043 0.180379
C49   C     C_3   0.185970 0.862557 0.124196 -0.370979
H18   H     H_    0.224193 0.740247 0.130420 0.249213
H19   H     H_    0.127440 0.819073 0.142312 0.203347
C50   C     C_3   0.180199 0.927422 0.024804 -0.697881
H20   H     H_    0.142614 0.051237 0.016508 0.238710
H21   H     H_    0.153945 0.817567 0.980069 0.230069
H22   H     H_    0.238987 0.958681 0.002912 0.257593
O23   O     O_3   0.718325 0.420085 0.785640 -0.572780
C51   C     C_3   0.725997 0.504140 0.699500 0.075857
H23   H     H_    0.784280 0.569547 0.703061 0.195619
H24   H     H_    0.683351 0.616138 0.681889 0.162179
C52   C     C_3   0.724487 0.356880 0.624951 -0.366215
H25   H     H_    0.772478 0.259800 0.642974 0.231976
H26   H     H_    0.668864 0.279470 0.621434 0.217076
C53   C     C_3   0.736493 0.438002 0.531202 -0.675749
H27   H     H_    0.687185 0.529540 0.508448 0.246309
H28   H     H_    0.739669 0.325330 0.480847 0.251684
H29   H     H_    0.792229 0.514837 0.533498 0.241580
O24   O     O_3   0.284280 0.459237 0.217854 -0.571560
C54   C     C_3   0.280421 0.512661 0.310410 0.095499
H30   H     H_    0.217933 0.528757 0.322278 0.176672
H31   H     H_    0.306290 0.650500 0.324928 0.180342
C55   C     C_3   0.314166 0.362552 0.375929 -0.370432
H32   H     H_    0.275888 0.240295 0.369963 0.249131
H33   H     H_    0.372627 0.318820 0.357657 0.203402
C56   C     C_3   0.320196 0.427887 0.475256 -0.698256
H34   H     H_    0.357772 0.551745 0.483279 0.238622
H35   H     H_    0.346574 0.318271 0.520038 0.229907
H36   H     H_    0.261480 0.459232 0.497342 0.257809

loop_
_geom_bond_atom_site_label_1
_geom_bond_atom_site_label_2
_ccdc_geom_bond_type
C30   C34   A    
C16   C20   A    
C4    C41   S    
C10   C42   T    
C24   O23   S    
O1    C5    A    
C48   H16   S    
C27   C31   A    
O3    C7    A    
C1    C44   S    
C13   C33   A    
C51   H24   S    
O21   C45   S    
C3    C42   S    
C15   C35   A    
C46   H11   S    
C16   C36   A    
O7    C3    A    
C22   C26   A    
C7    C38   S    
C9    C41   T    
C14   C18   A    
O4    C8    A    
O3    V1    S    
H3    C19   S    
C54   H30   S    
C49   C50   S    
O8    V4    S    
C16   H8    S    
C53   H27   S    
C56   H36   S    
C31   C39   A    
C55   H32   S    
C33   C38   A    
C30   C38   A    
C3    O13   A    
C2    O16   A    
C54   H31   S    
C49   H19   S    
O2    C6    A    
C52   H25   S    
O19   V1    S    
C14   C34   A    
C2    C43   S    
O11   C7    A    
O12   C8    A    
C52   H26   S    
O13   V1    S    
O11   V3    S    
C51   H23   S    
C1    O15   A    
O24   C54   S    
C53   H28   S    
C46   H12   S    
C15   H7    S    
O4    V2    S    
C14   H6    S    
C23   O24   S    
C36   C39   A    
C11   C12   S    
C25   C29   A    
C19   C23   A    
O6    V2    S    
O5    V1    S    
C55   C56   S    
O20   V2    S    
C25   Br1   S    
O5    C1    A    
C9    C10   S    
C27   Br3   S    
C50   H20   S    
C47   H15   S    
C17   C21   A    
O8    C4    A    
C54   C55   S    
C49   H18   S    
O9    C5    A    
O14   V2    S    
C53   H29   S    
C56   H34   S    
C8    C37   S    
C50   H21   S    
C47   H14   S    
C45   H9    S    
C48   C49   S    
C45   H10   S    
C5    C40   S    
C52   C53   S    
C21   O22   S    
H1    C17   S    
O1    V3    S    
C26   C30   A    
C46   C47   S    
O2    V4    S    
O17   V3    S    
C35   C40   A    
H4    C20   S    
C11   C43   T    
C12   C44   T    
C34   C37   A    
O7    V3    S    
C29   C37   A    
O10   V2    S    
C29   C33   A    
C45   C46   S    
C18   C22   A    
C31   C35   A    
C28   Br4   S    
O18   V4    S    
C32   C36   A    
O10   C6    A    
O15   V3    S    
O12   V4    S    
C21   C25   A    
O22   C48   S    
C23   C27   A    
C55   H33   S    
C6    C39   S    
C56   H35   S    
O6    C2    A    
H2    C18   S    
C13   H5    S    
O16   V4    S    
C28   C32   A    
C20   C24   A    
C50   H22   S    
C47   H13   S    
C32   C40   A    
C48   H17   S    
O9    V1    S    
C4    O14   A    
O23   C51   S    
C13   C17   A    
C15   C19   A    
C51   C52   S    
C24   C28   A    
C22   O21   S    
C26   Br2   S    
