data_mof_unit_22272.cif
_audit_creation_date              2012-12-10T20:31:52-0500
_audit_creation_method            fapswitch 2.2
_symmetry_space_group_name_H-M    P1
_symmetry_Int_Tables_number       1
_space_group_crystal_system       triclinic
_cell_length_a                    9.902665
_cell_length_b                    10.679075
_cell_length_c                    15.582968
_cell_angle_alpha                 91.037844
_cell_angle_beta                  68.869421
_cell_angle_gamma                 90.262166
_cell_volume                      1536.85963029

loop_
_atom_site_label
_atom_site_type_symbol
_atom_type_description
_atom_site_fract_x
_atom_site_fract_y
_atom_site_fract_z
_atom_type_partial_charge
C1    C     C_R   0.501426 0.739813 0.497666 0.865562
C2    C     C_R   0.426358 0.459476 0.907804 0.106824
C3    C     C_R   0.288543 0.409690 0.958205 0.071272
C4    C     C_R   0.532512 0.470195 0.948138 0.086033
C5    C     C_R   0.489195 0.461390 0.044234 0.071300
C6    C     C_R   0.351253 0.411759 0.094250 -0.138686
C7    C     C_R   0.253963 0.382150 0.050867 -0.160612
C8    C     C_R   0.681169 0.483746 0.895131 -0.205440
C9    C     C_R   0.782953 0.496435 0.936895 -0.168919
C10   C     C_R   0.738011 0.502879 0.032433 0.092980
C11   C     C_R   0.589131 0.494001 0.086458 0.040773
C12   C     C_R   0.409864 0.496698 0.675338 0.894810
C13   C     C_R   0.839247 0.522011 0.074694 -0.244886
C14   C     C_R   0.795197 0.526208 0.170298 0.174053
C15   C     C_R   0.544450 0.525131 0.180062 0.082181
C16   C     C_R   0.381382 0.935428 0.493236 0.174567
C17   C     C_R   0.507571 0.871032 0.484718 -0.109293
C18   C     C_R   0.639845 0.934733 0.460166 -0.214227
C19   C     C_R   0.639648 0.064309 0.460185 -0.182598
C20   C     C_R   0.507149 0.128155 0.484961 -0.125949
C21   C     C_R   0.381095 0.063058 0.493752 0.166027
C22   C     C_3   0.234494 0.071177 0.567771 -0.442814
C23   C     C_R   0.501152 0.260064 0.497671 0.901351
C24   C     C_3   0.234464 0.929295 0.566834 -0.508398
C25   C     C_R   0.905535 0.594654 0.542721 0.116807
C26   C     C_R   0.955472 0.415548 0.448612 0.626807
C27   C     C_R   0.099490 0.415711 0.447520 0.108647
C28   C     C_R   0.047356 0.593954 0.543462 0.168468
C29   C     C_3   0.996396 0.627423 0.643209 -0.473910
C30   C     C_3   0.843821 0.628770 0.642186 -0.493989
C31   C     C_R   0.590160 0.508396 0.324743 0.922439
C32   C     C_R   0.356959 0.476710 0.774520 -0.174465
C33   C     C_R   0.645490 0.520797 0.224238 -0.181913
C34   C     C_R   0.188507 0.388137 0.914624 -0.304639
C35   C     C_R   0.223526 0.419322 0.822328 0.599403
C36   C     C_R   0.453444 0.500681 0.819099 -0.341136
H1    H     H_    0.150191 0.341447 0.090416 0.183360
H2    H     H_    0.952845 0.532783 0.033501 0.166467
H3    H     H_    0.741122 0.885586 0.446603 0.189403
H4    H     H_    0.740904 0.113592 0.446524 0.225865
H5    H     H_    0.237106 0.113412 0.632937 0.218988
H6    H     H_    0.152231 0.111597 0.543003 0.231764
H7    H     H_    0.236328 0.888723 0.631639 0.199194
H8    H     H_    0.153030 0.888082 0.540745 0.222076
H9    H     H_    0.015019 0.551300 0.685428 0.254698
H10   H     H_    0.034214 0.721367 0.656226 0.199355
H11   H     H_    0.775991 0.552244 0.681932 0.206864
H12   H     H_    0.792936 0.723193 0.654726 0.211517
H13   H     H_    0.896436 0.504043 0.894382 0.192217
H14   H     H_    0.084807 0.345187 0.951354 0.170652
H15   H     H_    0.550023 0.553288 0.783885 0.171549
H16   H     H_    0.320117 0.391262 0.166410 0.202932
H17   H     H_    0.721701 0.476320 0.821278 0.152012
N1    N     N_R   0.856900 0.500860 0.500610 -0.167565
N2    N     N_R   0.142540 0.500820 0.500610 -0.147553
O1    O     O_R   0.385310 0.683210 0.499990 -0.609558
O2    O     O_R   0.614650 0.683240 0.500000 -0.621895
O3    O     O_R   0.319830 0.499970 0.632240 -0.569007
O4    O     O_R   0.549170 0.500000 0.632250 -0.633063
O5    O     O_R   0.385350 0.316760 0.500000 -0.594713
O6    O     O_R   0.614690 0.316790 0.500010 -0.576440
O7    O     O_R   0.450830 0.500000 0.367750 -0.575529
O8    O     O_R   0.680170 0.500030 0.367760 -0.555398
Zn1   Zn    Zn3+2 0.346870 0.499980 0.499990 1.014280
Zn2   Zn    Zn3+2 0.653130 0.500020 0.500010 1.019416
F1    F     F_    0.914330 0.329377 0.397962 -0.634811
I1    I     I_    0.240140 0.280080 0.359254 -0.271145
I2    I     I_    0.354290 0.641339 0.238050 -0.292910
I3    I     I_    0.962972 0.560001 0.222792 -0.285866
F2    F     F_    0.129775 0.389843 0.779553 -0.695585

loop_
_geom_bond_atom_site_label_1
_geom_bond_atom_site_label_2
_ccdc_geom_bond_type
C8    H17   S    
C8    C9    A    
C26   N1    A    
C2    C4    A    
C18   H3    S    
O1    Zn1   S    
C16   C21   A    
C1    O2    A    
C9    C10   A    
C27   N2    A    
O7    Zn1   S    
C19   C20   A    
C20   C23   S    
O5    Zn1   S    
C29   H10   S    
C4    C8    A    
C12   O3    A    
N2    Zn1   S    
C14   C33   A    
C31   C33   S    
C17   C18   A    
C7    H1    S    
C16   C24   S    
N1    Zn2   S    
C22   H6    S    
C21   C22   S    
C12   C32   S    
C25   C28   A    
C23   O5    A    
C12   O4    A    
C31   O7    A    
C26   C27   A    
C29   C30   S    
C36   H15   S    
C25   N1    A    
C15   I2    S    
C32   C36   A    
C22   C24   S    
C30   H12   S    
C28   C29   S    
C28   N2    A    
C13   H2    S    
C5    C11   A    
C6    C7    A    
C3    C7    A    
O6    Zn2   S    
O3    Zn1   S    
C5    C6    A    
C24   H8    S    
C14   I3    S    
O8    Zn2   S    
C34   H14   S    
C22   H5    S    
C27   I1    S    
C19   H4    S    
C1    C17   S    
C29   H9    S    
C26   F1    S    
C32   C35   A    
C31   O8    A    
C30   H11   S    
C23   O6    A    
C9    H13   S    
C20   C21   A    
C34   C35   A    
C10   C11   A    
C2    C36   A    
C25   C30   S    
C24   H7    S    
C18   C19   A    
C2    C3    A    
C3    C34   A    
C6    H16   S    
C13   C14   A    
C4    C5    A    
C11   C15   A    
C1    O1    A    
O4    Zn2   S    
C35   F2    S    
O2    Zn2   S    
C16   C17   A    
C15   C33   A    
C10   C13   A    
