data_mof_unit_62798.cif
_audit_creation_date              2012-12-10T16:49:19-0500
_audit_creation_method            fapswitch 2.2
_symmetry_space_group_name_H-M    P1
_symmetry_Int_Tables_number       1
_space_group_crystal_system       triclinic
_cell_length_a                    18.902209
_cell_length_b                    18.897806
_cell_length_c                    18.783988
_cell_angle_alpha                 108.854548
_cell_angle_beta                  109.814309
_cell_angle_gamma                 109.101394
_cell_volume                      5205.54641268

loop_
_atom_site_label
_atom_site_type_symbol
_atom_type_description
_atom_site_fract_x
_atom_site_fract_y
_atom_site_fract_z
_atom_type_partial_charge
C1    C     C_R   0.615768 0.617503 0.498029 0.858621
C2    C     C_3   0.177223 0.436529 0.229745 0.103681
C3    C     C_3   0.241197 0.513304 0.321919 -0.164625
C4    C     C_3   0.314030 0.499047 0.313254 -0.020770
C5    C     C_2   0.746380 0.739527 0.419086 0.115157
C6    C     C_2   0.819187 0.805892 0.492637 -0.361090
C7    C     C_2   0.690492 0.668659 0.425988 -0.177206
C8    C     C_2   0.675530 0.684990 0.492745 -0.359615
C9    C     C_2   0.827744 0.506680 0.752811 -0.161849
C10   C     C_2   0.818793 0.492688 0.815548 -0.322036
C11   C     C_2   0.753933 0.494459 0.679343 -0.157378
C12   C     C_R   0.381548 0.499916 0.381058 0.791296
C13   C     C_2   0.692737 0.510067 0.689572 -0.316372
C14   C     C_2   0.263236 0.191973 0.520742 -0.192313
C15   C     C_2   0.177416 0.158450 0.471178 -0.051477
C16   C     C_2   0.326323 0.249718 0.508421 -0.169802
C17   C     C_2   0.324487 0.320919 0.512266 -0.343722
C18   C     C_R   0.006831 0.617007 0.124853 0.853144
C19   C     C_R   0.125428 0.499103 0.125281 0.781236
C20   C     C_R   0.006441 0.382932 0.888459 0.826187
C21   C     C_R   0.887905 0.498181 0.886059 0.840987
C22   C     C_R   0.996949 0.115694 0.616513 0.872398
C23   C     C_R   0.385483 0.383255 0.503557 0.850464
C24   C     C_R   0.882946 0.879176 0.497037 0.839869
C25   C     C_R   0.002960 0.884391 0.383562 0.824082
C26   C     C_R   0.116603 0.111307 0.493276 0.811272
C27   C     C_2   0.076874 0.817771 0.326128 -0.158441
C28   C     C_2   0.005011 0.822391 0.315171 -0.319994
C29   C     C_2   0.077620 0.756770 0.254157 -0.160909
C30   C     C_2   0.007295 0.680389 0.194452 -0.317507
C31   C     C_2   0.933268 0.201115 0.668601 -0.169160
C32   C     C_2   0.992406 0.175375 0.684964 -0.363268
C33   C     C_2   0.928295 0.259391 0.740020 0.118665
C34   C     C_R   0.621182 0.502542 0.619630 0.848188
C35   C     C_2   0.002400 0.319221 0.815702 -0.352899
C36   C     C_3   0.330638 0.561099 0.276949 -0.159509
C37   C     C_3   0.256248 0.574834 0.283853 -0.193278
C38   C     C_3   0.192070 0.497611 0.192206 -0.051069
C39   C     C_3   0.265438 0.483793 0.185140 0.115390
C40   C     C_3   0.250291 0.421458 0.221835 -0.198095
Cu1   Cu    Cu3+1 0.500860 0.438990 0.439830 0.928821
Cu2   Cu    Cu3+1 0.499140 0.561010 0.560170 0.942321
Cu3   Cu    Cu3+1 0.946020 0.438950 0.007030 0.923854
Cu4   Cu    Cu3+1 0.068040 0.560950 0.006980 0.937728
Cu5   Cu    Cu3+1 0.938110 1.000000 0.438130 0.922963
Cu6   Cu    Cu3+1 0.061890 0.000000 0.561870 0.940954
H1    H     H_    0.888160 0.522064 0.752346 0.161648
H2    H     H_    0.755812 0.467826 0.810747 0.154336
H3    H     H_    0.699140 0.536763 0.753463 0.154331
H4    H     H_    0.376773 0.237250 0.502490 0.165540
H5    H     H_    0.279214 0.336567 0.527814 0.158388
H6    H     H_    0.395101 0.612086 0.297646 0.121172
H7    H     H_    0.947380 0.784618 0.251613 0.153122
H8    H     H_    0.137833 0.772982 0.253134 0.159239
H9    H     H_    0.949965 0.660342 0.200798 0.152889
H10   H     H_    0.837478 0.802565 0.552437 0.147501
H11   H     H_    0.658034 0.603095 0.374154 0.163027
O1    O     O_R   0.589740 0.537510 0.449170 -0.588945
O2    O     O_R   0.057320 0.640510 0.094780 -0.578968
O3    O     O_R   0.045810 0.448440 0.097300 -0.598789
O4    O     O_R   0.148850 0.551460 0.097260 -0.592271
O5    O     O_R   0.956740 0.359390 0.919230 -0.589093
O6    O     O_R   0.059790 0.462410 0.919190 -0.585361
O7    O     O_R   0.865220 0.448430 0.916750 -0.592260
O8    O     O_R   0.968260 0.551460 0.916710 -0.576760
O9    O     O_R   0.946480 0.089020 0.535540 -0.582933
O10   O     O_R   0.051000 0.089020 0.640050 -0.585364
O11   O     O_R   0.858720 0.910970 0.447760 -0.593690
O12   O     O_R   0.588290 0.640550 0.550800 -0.586797
O13   O     O_R   0.963250 0.910970 0.552260 -0.580908
O14   O     O_R   0.949000 0.910980 0.359950 -0.601549
O15   O     O_R   0.053520 0.910980 0.464460 -0.578763
O16   O     O_R   0.036750 0.089030 0.447740 -0.589404
O17   O     O_R   0.141280 0.089030 0.552240 -0.595618
O18   O     O_R   0.410430 0.448470 0.358910 -0.598155
O19   O     O_R   0.408980 0.551520 0.460540 -0.588588
O20   O     O_R   0.411710 0.359450 0.449200 -0.581040
O21   O     O_R   0.410260 0.462490 0.550830 -0.587584
O22   O     O_R   0.591020 0.448480 0.539460 -0.583817
O23   O     O_R   0.589570 0.551530 0.641090 -0.587204
O24   O     O_R   0.954280 0.537480 0.094820 -0.588067
H12   H     H_    0.257411 0.637362 0.308028 0.137785
H13   H     H_    0.702759 0.750822 0.541884 0.158827
H14   H     H_    0.752439 0.476747 0.617568 0.162574
H15   H     H_    0.288459 0.181371 0.575224 0.159318
C41   C     C_3   0.138028 0.157364 0.384599 -0.376453
C42   C     C_3   0.101259 0.068369 0.308630 -0.333737
C43   C     C_3   0.058320 0.064527 0.221461 -0.853091
H16   H     H_    0.001593 0.073811 0.213192 0.255063
H17   H     H_    0.104700 0.114718 0.216916 0.254862
H18   H     H_    0.035899 0.000698 0.168240 0.246281
H19   H     H_    0.154412 0.053567 0.313126 0.220353
H20   H     H_    0.052767 0.018222 0.311298 0.232371
H21   H     H_    0.086258 0.174518 0.379196 0.198552
H22   H     H_    0.184474 0.204593 0.377753 0.217689
H23   H     H_    0.137058 0.862275 0.387043 0.159896
H24   H     H_    0.886675 0.176955 0.601806 0.163956
H25   H     H_    0.036562 0.194684 0.751148 0.155435
C44   C     C_3   0.842719 0.255934 0.727057 -0.344968
C45   C     C_3   0.765581 0.193594 0.634846 -0.387648
C46   C     C_3   0.683291 0.193986 0.629455 -0.834681
H26   H     H_    0.667657 0.173432 0.673827 0.252051
H27   H     H_    0.691221 0.259269 0.647173 0.260176
H28   H     H_    0.628700 0.148787 0.562173 0.241591
H29   H     H_    0.778244 0.213015 0.588615 0.218159
H30   H     H_    0.755279 0.127347 0.615607 0.225578
H31   H     H_    0.826983 0.237060 0.772284 0.215585
H32   H     H_    0.850841 0.321292 0.744179 0.188391
H33   H     H_    0.064309 0.329134 0.821063 0.136366
C47   C     C_3   0.278508 0.467707 0.106646 -0.406538
C48   C     C_3   0.358986 0.458008 0.122193 -0.338574
C49   C     C_3   0.373144 0.443842 0.044608 -0.852054
H34   H     H_    0.316804 0.384641 0.985513 0.254607
H35   H     H_    0.382688 0.499551 0.033217 0.254135
H36   H     H_    0.431584 0.436747 0.057591 0.240581
H37   H     H_    0.416819 0.516799 0.180504 0.213708
H38   H     H_    0.351724 0.402479 0.133545 0.221263
H39   H     H_    0.220480 0.408449 0.049118 0.185486
H40   H     H_    0.285452 0.522621 0.094314 0.212681
H41   H     H_    0.248812 0.358782 0.197367 0.132854
C50   C     C_3   0.090119 0.365690 0.204000 -0.377040
C51   C     C_3   0.101034 0.320006 0.257828 -0.366370
C52   C     C_3   0.013716 0.251044 0.233407 -0.852984
H42   H     H_    0.972407 0.279544 0.242380 0.254752
H43   H     H_    0.980590 0.200215 0.164829 0.255684
H44   H     H_    0.023268 0.221607 0.275770 0.240998
H45   H     H_    0.140499 0.289625 0.246916 0.217167
H46   H     H_    0.134753 0.367207 0.327926 0.215791
H47   H     H_    0.049705 0.394919 0.214439 0.210032
H48   H     H_    0.057584 0.318628 0.134036 0.203428
H49   H     H_    0.232503 0.525515 0.379460 0.135785
C53   C     C_3   0.723789 0.735477 0.331257 -0.337927
C54   C     C_3   0.643672 0.652031 0.253300 -0.390042
C55   C     C_3   0.623278 0.655733 0.169127 -0.843374
H50   H     H_    0.609347 0.709070 0.172363 0.252634
H51   H     H_    0.678546 0.665284 0.157258 0.253397
H52   H     H_    0.565673 0.594504 0.114042 0.245764
H53   H     H_    0.655207 0.596844 0.246925 0.217456
H54   H     H_    0.586806 0.641452 0.262671 0.222022
H55   H     H_    0.711850 0.789620 0.332841 0.217478
H56   H     H_    0.779819 0.743493 0.320832 0.192758

loop_
_geom_bond_atom_site_label_1
_geom_bond_atom_site_label_2
_ccdc_geom_bond_type
C42   C43   S    
C4    C36   S    
Cu2   O23   S    
C46   H26   S    
Cu5   O14   S    
C1    C8    S    
Cu1   Cu2   S    
C48   C49   S    
C50   H48   S    
C17   H5    S    
C55   H52   S    
C49   H35   S    
Cu4   O8    S    
C24   O13   A    
C52   H42   S    
Cu5   Cu6   S    
C25   C28   S    
C44   H32   S    
C45   H29   S    
C17   C23   S    
C22   C32   S    
C3    H49   S    
C36   C37   S    
C16   H4    S    
Cu1   O1    S    
Cu1   O20   S    
C38   C39   S    
C52   H43   S    
C27   C29   S    
C29   H8    S    
Cu4   O2    S    
C8    H13   S    
C26   O16   A    
Cu5   O16   S    
C51   H45   S    
C47   C48   S    
C22   O9    A    
C21   O7    A    
C41   H21   S    
C34   O23   A    
C20   C35   S    
C39   C47   S    
C4    C40   S    
C16   C17   D    
C31   C33   S    
C48   H37   S    
C25   O14   A    
C4    C12   S    
C29   C30   D    
C9    C10   D    
Cu6   O15   S    
C36   H6    S    
C54   H53   S    
C46   H27   S    
C42   H19   S    
C51   H46   S    
C47   H39   S    
C27   H23   S    
C49   H34   S    
Cu3   O7    S    
C5    C53   S    
C10   C21   S    
C7    C8    D    
C6    H10   S    
C39   C40   S    
C5    C7    S    
C41   C42   S    
C53   C54   S    
C15   C26   S    
C55   H51   S    
Cu2   O12   S    
C1    O12   A    
C33   C44   S    
Cu3   Cu4   S    
C37   C38   S    
C19   C38   S    
C34   O22   A    
Cu1   O18   S    
C2    C38   S    
C31   C32   D    
C43   H18   S    
C6    C24   S    
Cu5   O11   S    
C25   O15   A    
C23   O20   A    
C9    C11   S    
C50   C51   S    
Cu3   O3    S    
C15   C41   S    
C18   C30   S    
C40   H41   S    
C43   H17   S    
C9    H1    S    
C46   H28   S    
C18   O24   A    
C12   O19   A    
C10   H2    S    
C54   C55   S    
C11   H14   S    
C13   H3    S    
C37   H12   S    
C3    C4    S    
Cu6   O17   S    
Cu2   O21   S    
C2    C50   S    
C53   H56   S    
C21   O8    A    
C45   H30   S    
C36   C39   S    
C14   H15   S    
C50   H47   S    
C52   H44   S    
C35   H33   S    
C47   H40   S    
Cu1   O22   S    
C28   H7    S    
C54   H54   S    
C55   H50   S    
Cu4   O4    S    
C53   H55   S    
C44   H31   S    
C30   H9    S    
Cu2   O19   S    
C44   C45   S    
C48   H38   S    
C20   O6    A    
C2    C3    S    
Cu6   O10   S    
C1    O1    A    
C11   C13   D    
C5    C6    D    
C19   O4    A    
Cu3   O24   S    
C42   H20   S    
C45   C46   S    
C33   C35   D    
C32   H25   S    
C14   C16   S    
C31   H24   S    
C23   O21   A    
C20   O5    A    
C22   O10   A    
Cu6   O13   S    
C41   H22   S    
C24   O11   A    
C2    C40   S    
C18   O2    A    
C13   C34   S    
C43   H16   S    
C3    C37   S    
C26   O17   A    
Cu4   O6    S    
C12   O18   A    
Cu5   O9    S    
C14   C15   D    
C19   O3    A    
C51   C52   S    
C7    H11   S    
C49   H36   S    
Cu3   O5    S    
C27   C28   D    
