data_mof_unit_62445.cif
_audit_creation_date              2012-12-10T18:26:40-0500
_audit_creation_method            fapswitch 2.2
_symmetry_space_group_name_H-M    P1
_symmetry_Int_Tables_number       1
_space_group_crystal_system       triclinic
_cell_length_a                    25.811369
_cell_length_b                    25.789553
_cell_length_c                    22.164099
_cell_angle_alpha                 90.000039
_cell_angle_beta                  54.324805
_cell_angle_gamma                 90.000039
_cell_volume                      11985.0728988

loop_
_atom_site_label
_atom_site_type_symbol
_atom_type_description
_atom_site_fract_x
_atom_site_fract_y
_atom_site_fract_z
_atom_type_partial_charge
Br1   Br    Br    0.651381 0.720002 0.918664 -0.538960
Br2   Br    Br    0.653428 0.270960 0.918647 -0.537399
Br3   Br    Br    0.153292 0.228952 0.918653 -0.568303
Br4   Br    Br    0.153912 0.767369 0.918648 -0.567810
Br5   Br    Br    0.545701 0.634322 0.513861 -0.544986
Br6   Br    Br    0.545700 0.365678 0.513863 -0.545115
Br7   Br    Br    0.971361 0.232841 0.663822 -0.508738
Br8   Br    Br    0.971362 0.767137 0.663825 -0.509953
C1    C     C_R   0.849483 0.750019 0.301045 0.505018
C2    C     C_3   0.551384 0.251721 0.498994 0.069895
C3    C     C_3   0.274631 0.970032 0.422133 -0.234405
C4    C     C_3   0.725785 0.529966 0.577618 -0.235204
C5    C     C_3   0.725785 0.470034 0.577618 -0.235353
C6    C     C_3   0.292858 0.029968 0.522241 -0.234770
C7    C     C_3   0.292858 0.970032 0.522241 -0.234787
C8    C     C_3   0.706674 0.529973 0.478246 -0.227283
C9    C     C_3   0.706674 0.470027 0.478245 -0.227242
C10   C     C_3   0.180994 0.029758 0.556859 -0.227096
C11   C     C_3   0.180994 0.970242 0.556859 -0.227108
C12   C     C_3   0.750334 0.550877 0.499591 0.051871
C13   C     C_3   0.050187 0.250290 0.501141 0.068584
C14   C     C_3   0.750334 0.449123 0.499591 0.051966
C15   C     C_3   0.249618 0.050877 0.500311 0.063929
C16   C     C_3   0.249618 0.949123 0.500311 0.063964
C17   C     C_R   0.750039 0.891415 0.500070 0.494950
C18   C     C_R   0.750039 0.108585 0.500070 0.494927
C19   C     C_R   0.250042 0.391415 0.500068 0.499013
C20   C     C_R   0.250042 0.608585 0.500068 0.499018
C21   C     C_R   0.891589 0.750136 0.499580 0.498181
C22   C     C_R   0.891589 0.249864 0.499580 0.498063
C23   C     C_R   0.391574 0.250277 0.499696 0.499193
C24   C     C_3   0.050187 0.749710 0.501140 0.068618
C25   C     C_R   0.391574 0.749723 0.499696 0.499149
C26   C     C_R   0.608964 0.749321 0.499293 0.521833
C27   C     C_R   0.608965 0.250679 0.499293 0.521880
C28   C     C_R   0.108302 0.250279 0.500520 0.517985
C29   C     C_R   0.108303 0.749721 0.500519 0.518061
C30   C     C_3   0.514536 0.800128 0.531267 -0.270118
C31   C     C_3   0.514536 0.199872 0.531266 -0.270124
C32   C     C_3   0.060853 0.285866 0.438057 -0.261905
C33   C     C_3   0.060858 0.714142 0.438047 -0.261911
C34   C     C_3   0.455662 0.801199 0.529349 -0.248297
C35   C     C_3   0.449397 0.749064 0.499434 0.036114
C36   C     C_3   0.455663 0.198801 0.529348 -0.248280
C37   C     C_3   0.001930 0.285593 0.436945 -0.244165
C38   C     C_3   0.001934 0.714415 0.436936 -0.244171
C39   C     C_3   0.570469 0.742473 0.418671 -0.218241
C40   C     C_3   0.570469 0.257528 0.418671 -0.218228
C41   C     C_3   0.036404 0.194710 0.486995 -0.223361
C42   C     C_3   0.036398 0.805292 0.487008 -0.223350
C43   C     C_3   0.449397 0.250936 0.499433 0.036124
C44   C     C_3   0.949162 0.250231 0.499657 0.036290
C45   C     C_3   0.949162 0.749769 0.499656 0.036271
C46   C     C_3   0.510221 0.740481 0.419453 -0.235165
C47   C     C_3   0.510221 0.259520 0.419453 -0.235167
C48   C     C_3   0.976350 0.194551 0.487493 -0.234538
C49   C     C_R   0.849482 0.249980 0.301045 0.505042
C50   C     C_3   0.976344 0.805450 0.487504 -0.234557
C51   C     C_3   0.445016 0.704625 0.549577 -0.192855
C52   C     C_3   0.445016 0.295375 0.549578 -0.192890
C53   C     C_3   0.931459 0.270965 0.575082 -0.194364
C54   C     C_3   0.931462 0.729027 0.575076 -0.194356
C55   C     C_3   0.468263 0.734890 0.956814 -0.249799
C56   C     C_3   0.469636 0.269387 0.956814 -0.249790
C57   C     C_3   0.969507 0.230734 0.956811 -0.246383
C58   C     C_3   0.970155 0.770953 0.956810 -0.246549
C59   C     C_3   0.536364 0.804184 0.957032 -0.202086
C60   C     C_R   0.349490 0.250025 0.301046 0.502174
C61   C     C_3   0.531913 0.194801 0.957040 -0.202346
C62   C     C_3   0.031880 0.305237 0.957038 -0.202808
C63   C     C_3   0.030070 0.694453 0.957041 -0.202796
C64   C     C_3   0.493615 0.804041 0.043144 -0.216308
C65   C     C_3   0.489173 0.194919 0.043151 -0.216419
C66   C     C_3   0.989151 0.305116 0.043149 -0.216122
C67   C     C_3   0.987344 0.694565 0.043153 -0.216153
C68   C     C_1   0.389349 0.749888 0.221631 -0.003094
C69   C     C_1   0.389348 0.250107 0.221631 -0.003092
C70   C     C_1   0.889306 0.249922 0.221630 -0.002195
C71   C     C_R   0.349490 0.749975 0.301046 0.502198
C72   C     C_1   0.889305 0.750075 0.221630 -0.002220
C73   C     C_3   0.537700 0.749552 0.926801 0.068436
C74   C     C_3   0.537710 0.250369 0.926801 0.068452
C75   C     C_3   0.037605 0.249683 0.926798 0.066592
C76   C     C_3   0.037609 0.750285 0.926798 0.066713
C77   C     C_R   0.650548 0.749985 0.698950 0.505001
C78   C     C_R   0.650549 0.250015 0.698950 0.504662
C79   C     C_R   0.150533 0.249998 0.698948 0.514813
C80   C     C_R   0.150533 0.750002 0.698948 0.514678
C81   C     C_3   0.425003 0.734805 0.042947 -0.226487
C82   C     C_3   0.505554 0.702819 0.547688 0.041173
C83   C     C_3   0.426387 0.269492 0.042947 -0.226523
C84   C     C_3   0.926259 0.230632 0.042948 -0.227686
C85   C     C_3   0.926911 0.771063 0.042947 -0.227755
C86   C     C_3   0.464048 0.749639 0.073234 0.036679
C87   C     C_3   0.464056 0.250319 0.073233 0.036750
C88   C     C_3   0.963960 0.249729 0.073230 0.036126
C89   C     C_3   0.963962 0.750253 0.073230 0.036218
C90   C     C_3   0.518979 0.709969 0.043621 -0.182122
C91   C     C_3   0.522066 0.286609 0.043612 -0.182108
C92   C     C_3   0.021918 0.213378 0.043603 -0.182115
C93   C     C_3   0.505554 0.297181 0.547689 0.041168
C94   C     C_3   0.023082 0.785178 0.043600 -0.182073
C95   C     C_3   0.562056 0.709188 0.957255 0.059561
C96   C     C_3   0.565202 0.287399 0.957247 0.059611
C97   C     C_3   0.065050 0.212596 0.957241 0.058399
C98   C     C_3   0.066239 0.785962 0.957238 0.058379
C99   C     C_1   0.422952 0.749786 0.154813 -0.073423
C100  C     C_1   0.422953 0.250196 0.154812 -0.073404
C101  C     C_1   0.922877 0.249846 0.154811 -0.072698
C102  C     C_1   0.922877 0.750147 0.154810 -0.072709
C103  C     C_1   0.577929 0.749699 0.845166 -0.024760
C104  C     C_3   0.990729 0.271110 0.576571 0.036806
C105  C     C_1   0.577928 0.250268 0.845165 -0.024838
C106  C     C_1   0.077837 0.249782 0.845162 -0.018137
C107  C     C_1   0.077837 0.750204 0.845162 -0.018170
C108  C     C_1   0.611010 0.749825 0.778352 0.027640
C109  C     C_1   0.611007 0.250165 0.778352 0.027566
C110  C     C_1   0.110949 0.249873 0.778349 0.038324
C111  C     C_1   0.110947 0.750123 0.778349 0.038271
C112  C     C_3   0.803335 0.970033 0.422123 -0.233953
C113  C     C_3   0.803335 0.029967 0.422122 -0.233961
C114  C     C_3   0.303329 0.470033 0.422113 -0.234201
C115  C     C_3   0.990733 0.728881 0.576565 0.036831
C116  C     C_3   0.303329 0.529967 0.422113 -0.234196
C117  C     C_3   0.684865 0.970033 0.522340 -0.234767
C118  C     C_3   0.684865 0.029967 0.522340 -0.234766
C119  C     C_3   0.184866 0.470034 0.522362 -0.234686
C120  C     C_3   0.184866 0.529966 0.522362 -0.234683
C121  C     C_3   0.762157 0.970243 0.556809 -0.227670
C122  C     C_3   0.762157 0.029757 0.556809 -0.227608
C123  C     C_3   0.262188 0.470243 0.556787 -0.227218
C124  C     C_3   0.262188 0.529757 0.556787 -0.227191
C125  C     C_R   0.750073 0.608593 0.499872 0.504571
C126  C     C_3   0.551384 0.748279 0.498994 0.069896
C127  C     C_R   0.750073 0.391407 0.499872 0.504479
C128  C     C_R   0.249921 0.108593 0.500065 0.494469
C129  C     C_R   0.249921 0.891407 0.500064 0.494426
C130  C     C_3   0.750095 0.949126 0.500324 0.065561
C131  C     C_3   0.750095 0.050874 0.500324 0.065511
C132  C     C_3   0.250103 0.449126 0.500321 0.061411
C133  C     C_3   0.250103 0.550874 0.500321 0.061377
C134  C     C_3   0.818870 0.529756 0.442609 -0.230926
C135  C     C_3   0.818870 0.470244 0.442609 -0.230909
C136  C     C_3   0.274631 0.029968 0.422133 -0.234416
H1    H     H_    0.546117 0.833510 0.498807 0.132658
H2    H     H_    0.599486 0.293096 0.391951 0.162496
H3    H     H_    0.244088 0.955567 0.405412 0.106206
H4    H     H_    0.756611 0.544429 0.593942 0.115207
H5    H     H_    0.756610 0.455571 0.593942 0.114865
H6    H     H_    0.342549 0.044250 0.482513 0.131280
H7    H     H_    0.342549 0.955750 0.482513 0.131262
H8    H     H_    0.657028 0.544258 0.518290 0.176782
H9    H     H_    0.657028 0.455742 0.518289 0.176780
H10   H     H_    0.161721 0.043968 0.613745 0.139114
H11   H     H_    0.161721 0.956031 0.613745 0.139015
H12   H     H_    0.723589 0.544444 0.422237 0.128736
H13   H     H_    0.029407 0.167397 0.530004 0.176114
H14   H     H_    0.723589 0.455556 0.422237 0.128738
H15   H     H_    0.148747 0.043972 0.542429 0.134013
H16   H     H_    0.148747 0.956028 0.542429 0.134003
H17   H     H_    0.676545 0.544248 0.619761 0.144296
H18   H     H_    0.676545 0.455752 0.619761 0.144089
H19   H     H_    0.275579 0.044433 0.578375 0.112634
H20   H     H_    0.275579 0.955567 0.578375 0.112492
H21   H     H_    0.460464 0.833686 0.493339 0.135315
H22   H     H_    0.460465 0.166314 0.493337 0.135354
H23   H     H_    0.015721 0.271545 0.381904 0.136806
H24   H     H_    0.029396 0.832599 0.530024 0.176079
H25   H     H_    0.015723 0.728468 0.381898 0.136817
H26   H     H_    0.600554 0.775918 0.384182 0.128383
H27   H     H_    0.600554 0.224083 0.384181 0.128450
H28   H     H_    0.077937 0.180292 0.432385 0.096467
H29   H     H_    0.077929 0.819717 0.432402 0.096450
H30   H     H_    0.513878 0.770769 0.381374 0.136608
H31   H     H_    0.513878 0.229232 0.381373 0.136690
H32   H     H_    0.988556 0.178766 0.433913 0.106591
H33   H     H_    0.988550 0.821241 0.433927 0.106590
H34   H     H_    0.491054 0.707264 0.605588 0.149896
H35   H     H_    0.507552 0.702233 0.398145 0.132808
H36   H     H_    0.491054 0.292735 0.605588 0.149805
H37   H     H_    0.000436 0.311714 0.584312 0.123746
H38   H     H_    0.000444 0.688275 0.584294 0.123917
H39   H     H_    0.402816 0.710729 0.607917 0.128367
H40   H     H_    0.402816 0.289270 0.607917 0.128137
H41   H     H_    0.912334 0.311102 0.584266 0.097226
H42   H     H_    0.912340 0.688890 0.584253 0.097611
H43   H     H_    0.507552 0.297768 0.398146 0.132767
H44   H     H_    0.939917 0.168404 0.532446 0.152230
H45   H     H_    0.939908 0.831593 0.532462 0.152039
H46   H     H_    0.385144 0.762764 0.063537 0.127270
H47   H     H_    0.384361 0.244020 0.063546 0.127666
H48   H     H_    0.884270 0.256150 0.063547 0.132843
H49   H     H_    0.546118 0.166490 0.498805 0.132685
H50   H     H_    0.884108 0.746591 0.063549 0.132831
H51   H     H_    0.449157 0.762978 0.936203 0.126553
H52   H     H_    0.448354 0.243770 0.936211 0.127137
H53   H     H_    0.948259 0.256391 0.936206 0.140575
H54   H     H_    0.948088 0.746337 0.936208 0.140765
H55   H     H_    0.585395 0.816803 0.935970 0.173039
H56   H     H_    0.579797 0.179109 0.935980 0.172441
H57   H     H_    0.079785 0.320885 0.935970 0.172147
H58   H     H_    0.077446 0.677597 0.935975 0.172074
H59   H     H_    0.517595 0.833033 0.936910 0.105647
H60   H     H_    0.103055 0.272426 0.383204 0.136368
H61   H     H_    0.510908 0.168378 0.936920 0.105678
H62   H     H_    0.010900 0.331699 0.936928 0.111502
H63   H     H_    0.008245 0.669017 0.936933 0.111833
H64   H     H_    0.455154 0.833459 0.064110 0.115984
H65   H     H_    0.448423 0.167863 0.064120 0.115952
H66   H     H_    0.948437 0.332213 0.064129 0.120271
H67   H     H_    0.945763 0.668467 0.064133 0.120411
H68   H     H_    0.522580 0.815346 0.063451 0.136272
H69   H     H_    0.517094 0.180481 0.063461 0.135960
H70   H     H_    0.017099 0.319499 0.063451 0.135680
H71   H     H_    0.103058 0.727589 0.383197 0.136376
H72   H     H_    0.014803 0.678948 0.063455 0.135664
H73   H     H_    0.559737 0.669821 0.938344 0.134345
H74   H     H_    0.566099 0.327590 0.938335 0.134363
H75   H     H_    0.065902 0.172417 0.938322 0.134202
H76   H     H_    0.068402 0.826401 0.938318 0.134029
H77   H     H_    0.498943 0.804924 0.589538 0.107940
H78   H     H_    0.498944 0.195076 0.589537 0.107987
H79   H     H_    0.070602 0.326361 0.446235 0.128139
H80   H     H_    0.070613 0.673646 0.446214 0.128167
H81   H     H_    0.498950 0.670537 0.064863 0.102692
H82   H     H_    0.437756 0.666969 0.530990 0.177524
H83   H     H_    0.505260 0.326673 0.064853 0.102786
H84   H     H_    0.005056 0.173322 0.064837 0.100611
H85   H     H_    0.007529 0.825417 0.064833 0.100514
H86   H     H_    0.467235 0.695857 0.936096 0.118966
H87   H     H_    0.471802 0.309213 0.936088 0.118563
H88   H     H_    0.971620 0.190918 0.936086 0.124053
H89   H     H_    0.973568 0.811016 0.936081 0.123324
H90   H     H_    0.403521 0.695668 0.063477 0.123663
H91   H     H_    0.408112 0.309410 0.063469 0.123401
H92   H     H_    0.907925 0.190726 0.063472 0.124544
H93   H     H_    0.437755 0.333031 0.530992 0.177494
H94   H     H_    0.909882 0.811211 0.063467 0.124210
H95   H     H_    0.547367 0.720015 0.065100 0.167566
H96   H     H_    0.549517 0.273425 0.065087 0.167581
H97   H     H_    0.049387 0.226504 0.065080 0.166404
H98   H     H_    0.050104 0.770814 0.065076 0.166462
H99   H     H_    0.795898 0.955755 0.380310 0.133943
H100  H     H_    0.795897 0.044245 0.380310 0.133965
H101  H     H_    0.295877 0.455755 0.380313 0.134175
H102  H     H_    0.295877 0.544245 0.380313 0.134201
H103  H     H_    0.850643 0.955568 0.405341 0.107165
H104  H     H_    0.892737 0.246730 0.620917 0.188146
H105  H     H_    0.850643 0.044432 0.405340 0.107179
H106  H     H_    0.350642 0.455568 0.405315 0.115932
H107  H     H_    0.350642 0.544432 0.405314 0.115965
H108  H     H_    0.674909 0.955752 0.482659 0.130717
H109  H     H_    0.674908 0.044247 0.482659 0.130729
H110  H     H_    0.174894 0.455753 0.482694 0.131659
H111  H     H_    0.174894 0.544247 0.482694 0.131669
H112  H     H_    0.724490 0.956034 0.613710 0.134952
H113  H     H_    0.724491 0.043966 0.613710 0.135153
H114  H     H_    0.224533 0.456034 0.613692 0.136851
H115  H     H_    0.892739 0.753258 0.620916 0.187777
H116  H     H_    0.224533 0.543966 0.613692 0.136947
H117  H     H_    0.808878 0.956031 0.542316 0.131969
H118  H     H_    0.808878 0.043969 0.542316 0.132040
H119  H     H_    0.308915 0.456030 0.542276 0.142239
H120  H     H_    0.308915 0.543969 0.542275 0.142270
H121  H     H_    0.411982 0.808563 0.586237 0.121349
H122  H     H_    0.411983 0.191436 0.586236 0.121484
H123  H     H_    0.983937 0.325988 0.444157 0.135126
H124  H     H_    0.983946 0.674019 0.444140 0.135167
H125  H     H_    0.645956 0.955568 0.578491 0.107554
H126  H     H_    0.599486 0.706905 0.391950 0.162497
H127  H     H_    0.645956 0.044432 0.578491 0.107604
H128  H     H_    0.145967 0.455568 0.578518 0.113872
H129  H     H_    0.145967 0.544432 0.578518 0.113914
H130  H     H_    0.851410 0.543959 0.456610 0.130953
H131  H     H_    0.851410 0.456041 0.456611 0.130915
H132  H     H_    0.323936 0.044247 0.380277 0.133731
H133  H     H_    0.323936 0.955753 0.380277 0.133700
H134  H     H_    0.837788 0.543974 0.385830 0.133667
H135  H     H_    0.837788 0.456026 0.385830 0.133658
H136  H     H_    0.244088 0.044433 0.405412 0.106208
O1    O     O_3   0.750010 0.750010 0.500000 -0.437685
O2    O     O_R   0.740870 0.133130 0.457020 -0.551843
O3    O     O_R   0.240870 0.366870 0.457020 -0.549484
O4    O     O_R   0.240870 0.633130 0.457020 -0.549477
O5    O     O_R   0.862620 0.719400 0.336030 -0.539620
O6    O     O_R   0.862620 0.280600 0.336030 -0.539637
O7    O     O_R   0.362620 0.219400 0.336030 -0.540158
O8    O     O_R   0.362620 0.780600 0.336030 -0.540229
O9    O     O_R   0.698690 0.780630 0.663960 -0.529544
O10   O     O_R   0.698690 0.219370 0.663960 -0.528521
O11   O     O_R   0.198690 0.280630 0.663960 -0.533313
O12   O     O_3   0.750010 0.249990 0.500000 -0.437747
O13   O     O_R   0.198690 0.719370 0.663960 -0.532878
O14   O     O_R   0.801340 0.780670 0.336040 -0.538874
O15   O     O_R   0.801340 0.219330 0.336040 -0.538831
O16   O     O_R   0.301340 0.280670 0.336040 -0.541044
O17   O     O_R   0.301340 0.719330 0.336040 -0.541000
O18   O     O_R   0.637410 0.719360 0.663970 -0.541890
O19   O     O_R   0.637410 0.280640 0.663970 -0.542474
O20   O     O_R   0.137410 0.219360 0.663970 -0.518131
O21   O     O_R   0.137410 0.780640 0.663970 -0.518373
O22   O     O_R   0.802130 0.633170 0.457010 -0.553129
O23   O     O_3   0.250010 0.250010 0.500000 -0.438354
O24   O     O_R   0.802130 0.366830 0.457010 -0.553155
O25   O     O_R   0.302130 0.133170 0.457010 -0.551562
O26   O     O_R   0.302130 0.866830 0.457010 -0.551592
O27   O     O_R   0.759170 0.866860 0.542980 -0.551866
O28   O     O_R   0.759170 0.133140 0.542980 -0.551713
O29   O     O_R   0.259170 0.366860 0.542980 -0.548579
O30   O     O_R   0.259170 0.633140 0.542980 -0.548503
O31   O     O_R   0.888360 0.719380 0.456990 -0.551066
O32   O     O_R   0.888360 0.280620 0.456990 -0.551149
O33   O     O_R   0.388360 0.219380 0.456990 -0.547885
O34   O     O_3   0.250010 0.749990 0.500000 -0.438371
O35   O     O_R   0.388360 0.780620 0.456990 -0.547935
O36   O     O_R   0.654640 0.780660 0.457030 -0.557146
O37   O     O_R   0.654640 0.219340 0.457030 -0.557118
O38   O     O_R   0.154640 0.280660 0.457030 -0.561851
O39   O     O_R   0.154640 0.719340 0.457030 -0.561846
O40   O     O_R   0.845390 0.780640 0.542970 -0.543595
O41   O     O_R   0.845390 0.219360 0.542970 -0.543425
O42   O     O_R   0.345390 0.280640 0.542970 -0.547026
O43   O     O_R   0.345390 0.719360 0.542970 -0.546966
O44   O     O_R   0.611660 0.719380 0.543010 -0.507907
O45   O     O_R   0.697880 0.633160 0.542990 -0.525998
O46   O     O_R   0.611660 0.280620 0.543010 -0.507856
O47   O     O_R   0.111660 0.219380 0.543010 -0.498280
O48   O     O_R   0.111660 0.780620 0.543010 -0.498223
O49   O     O_R   0.697880 0.366840 0.542990 -0.526121
O50   O     O_R   0.197880 0.133160 0.542990 -0.549288
O51   O     O_R   0.197880 0.866840 0.542990 -0.549353
O52   O     O_R   0.740870 0.866870 0.457020 -0.551830
Zn1   Zn    Zn3+2 0.675530 0.706240 0.561430 0.964997
Zn2   Zn    Zn3+2 0.763090 0.206230 0.561410 0.934448
Zn3   Zn    Zn3+2 0.263090 0.293770 0.561410 0.940169
Zn4   Zn    Zn3+2 0.263090 0.706230 0.561410 0.940468
Zn5   Zn    Zn3+2 0.736940 0.793790 0.438590 0.922699
Zn6   Zn    Zn3+2 0.736940 0.206210 0.438590 0.922773
Zn7   Zn    Zn3+2 0.236940 0.293790 0.438590 0.921155
Zn8   Zn    Zn3+2 0.236940 0.706210 0.438590 0.921227
Zn9   Zn    Zn3+2 0.675530 0.293760 0.561430 0.964541
Zn10  Zn    Zn3+2 0.175530 0.206240 0.561430 0.965892
Zn11  Zn    Zn3+2 0.175530 0.793760 0.561430 0.965684
Zn12  Zn    Zn3+2 0.824490 0.706250 0.438570 0.925561
Zn13  Zn    Zn3+2 0.824490 0.293750 0.438570 0.925364
Zn14  Zn    Zn3+2 0.324490 0.206250 0.438570 0.920355
Zn15  Zn    Zn3+2 0.324490 0.793750 0.438570 0.920200
Zn16  Zn    Zn3+2 0.763090 0.793770 0.561410 0.933792

loop_
_geom_bond_atom_site_label_1
_geom_bond_atom_site_label_2
_ccdc_geom_bond_type
C52   H40   S    
C113  H100  S    
C78   O10   A    
O4    Zn8   S    
C119  H110  S    
C11   H11   S    
C125  O22   A    
O16   Zn7   S    
C68   C71   S    
O23   Zn3   S    
C9    H9    S    
C7    H7    S    
Br3   C97   S    
C116  H107  S    
C44   C53   S    
C82   C126  S    
C87   C91   S    
O8    Zn15  S    
C78   O19   A    
C120  H111  S    
C81   C86   S    
C1    O14   A    
C10   H15   S    
C129  O51   A    
C4    H17   S    
C62   C66   S    
C112  H103  S    
O34   Zn4   S    
C64   C86   S    
C63   H63   S    
O2    Zn6   S    
C73   C103  S    
C66   H70   S    
C75   C106  S    
C134  H134  S    
O28   Zn2   S    
O22   Zn12  S    
C86   C99   S    
C22   O41   A    
C79   C110  S    
C18   C131  S    
C90   H95   S    
C83   H47   S    
C84   H92   S    
C75   C97   S    
C56   C74   S    
C49   O15   A    
C35   C46   S    
C121  H112  S    
Br2   C96   S    
C8    C12   S    
C4    C12   S    
O50   Zn10  S    
C80   C111  S    
C55   H86   S    
C91   H96   S    
C68   C99   T    
O24   Zn13  S    
C39   C126  S    
O12   Zn9   S    
C112  C130  S    
C65   C87   S    
C13   C104  S    
C60   C69   S    
C20   O4    A    
C57   H88   S    
C49   C70   S    
C77   C108  S    
O43   Zn4   S    
C27   O46   A    
C56   H87   S    
C45   C50   S    
Br8   C115  S    
C117  C130  S    
C88   C101  S    
C1    O5    A    
C14   C127  S    
C136  H132  S    
C46   H30   S    
C128  O50   A    
C39   H126  S    
C38   C45   S    
O3    Zn7   S    
C78   C109  S    
C43   C47   S    
C30   C126  S    
C116  H102  S    
C120  H129  S    
C59   H59   S    
C87   C100  S    
C37   H123  S    
C74   C96   S    
C56   C83   S    
C1    C72   S    
C81   H90   S    
O38   Zn7   S    
C17   O27   A    
C18   O28   A    
C85   H50   S    
O34   Zn11  S    
C13   C41   S    
C124  H116  S    
O42   Zn3   S    
C31   H49   S    
C15   C128  S    
C48   H32   S    
O1    Zn1   S    
C11   H16   S    
C30   H77   S    
C65   H65   S    
O29   Zn3   S    
C33   H71   S    
C26   C126  S    
C123  H114  S    
C83   H91   S    
C84   C88   S    
Br7   C104  S    
C25   O43   A    
C80   O13   A    
O36   Zn5   S    
O31   Zn12  S    
C51   H82   S    
O5    Zn12  S    
C61   C74   S    
C32   H60   S    
O12   Zn6   S    
C97   H75   S    
C81   H46   S    
C31   H78   S    
C2    C27   S    
C94   H98   S    
O23   Zn7   S    
Br1   C95   S    
C10   H10   S    
C34   H21   S    
C35   C51   S    
C54   H42   S    
C24   C115  S    
C41   H13   S    
O6    Zn13  S    
O20   Zn10  S    
C123  H119  S    
C118  C131  S    
O33   Zn14  S    
C32   H79   S    
O23   Zn10  S    
C66   C88   S    
C29   O48   A    
C125  O45   A    
C37   C44   S    
Br4   C98   S    
C112  H99   S    
C23   O42   A    
O34   Zn8   S    
C114  H106  S    
C40   H27   S    
C76   C98   S    
O7    Zn14  S    
C24   C42   S    
C55   C81   S    
C53   H41   S    
C24   C29   S    
C51   H39   S    
C58   H54   S    
C58   C85   S    
C105  C109  T    
C7    C16   S    
C59   C73   S    
C107  C111  T    
O14   Zn5   S    
C42   H24   S    
C116  C133  S    
C119  C132  S    
C114  C116  S    
C85   C89   S    
C112  C113  S    
C121  C122  S    
C120  C133  S    
O51   Zn11  S    
C124  C133  S    
C22   C44   S    
C123  C132  S    
C69   C100  T    
C74   C105  S    
C23   C43   S    
O52   Zn5   S    
C6    H19   S    
C41   H28   S    
C31   C36   S    
C16   C129  S    
C61   H61   S    
C28   O47   A    
O39   Zn8   S    
C113  C131  S    
C114  C132  S    
C25   O35   A    
C93   H36   S    
O12   Zn2   S    
O10   Zn2   S    
C26   O36   A    
C13   C32   S    
C28   O38   A    
C56   H52   S    
C70   C101  T    
C18   O2    A    
C33   H80   S    
C83   C87   S    
C4    C5    S    
C127  O49   A    
C63   H58   S    
C26   O44   A    
C20   O30   A    
C6    C7    S    
C52   H93   S    
C53   C104  S    
C54   H115  S    
C90   H81   S    
C91   H83   S    
O12   Zn13  S    
C40   C47   S    
C98   H76   S    
C82   H34   S    
C71   O17   A    
C5    H18   S    
C53   H104  S    
C67   H67   S    
C42   H29   S    
C79   O20   A    
O21   Zn11  S    
C59   H55   S    
O37   Zn6   S    
C73   C95   S    
C86   C90   S    
C90   C95   S    
C67   C89   S    
C46   H35   S    
C10   C11   S    
C92   H84   S    
C8    C9    S    
C8    H12   S    
C61   H56   S    
C79   O11   A    
C19   O29   A    
C61   C65   S    
C103  C108  T    
O34   Zn15  S    
C89   C94   S    
C124  H120  S    
C17   O52   A    
C91   C96   S    
C127  O24   A    
O1    Zn5   S    
C65   H69   S    
C121  H117  S    
C122  C131  S    
C32   C37   S    
O13   Zn4   S    
C58   H89   S    
O19   Zn9   S    
C118  H127  S    
C64   H64   S    
O9    Zn16  S    
C36   H122  S    
O17   Zn8   S    
O1    Zn12  S    
C2    C31   S    
C42   C50   S    
O27   Zn16  S    
O47   Zn10  S    
C7    H20   S    
C6    H6    S    
C8    H8    S    
O35   Zn15  S    
C34   H121  S    
C62   C75   S    
C96   H74   S    
C122  H118  S    
C39   C46   S    
O32   Zn13  S    
C55   C73   S    
C2    C40   S    
C117  C118  S    
O23   Zn14  S    
C55   H51   S    
C15   C136  S    
C34   C35   S    
C119  C120  S    
O48   Zn11  S    
O44   Zn1   S    
C2    C93   S    
C80   O21   A    
O15   Zn6   S    
C30   C34   S    
C77   O9    A    
C9    C14   S    
C11   C16   S    
C21   O40   A    
C3    H3    S    
C29   O39   A    
C5    C14   S    
C134  C135  S    
C21   O31   A    
C22   O32   A    
C3    H133  S    
C92   H97   S    
C84   H48   S    
C57   C84   S    
C20   C133  S    
C67   H72   S    
O45   Zn1   S    
O25   Zn14  S    
C27   O37   A    
C13   C28   S    
C92   C97   S    
C66   H66   S    
C59   C64   S    
C115  H38   S    
C19   O3    A    
C57   C75   S    
C104  H37   S    
C88   C92   S    
C3    C16   S    
Br6   C93   S    
C128  O25   A    
C121  C130  S    
C48   H44   S    
C40   H2    S    
C14   C135  S    
C94   H85   S    
C33   C38   S    
C47   H43   S    
C12   C125  S    
C118  H109  S    
C3    C136  S    
C134  H130  S    
Br5   C82   S    
C23   O33   A    
C62   H57   S    
C135  H131  S    
C54   C115  S    
O30   Zn4   S    
C10   C15   S    
C25   C35   S    
C12   C134  S    
C117  H125  S    
C51   C82   S    
C6    C15   S    
C60   O7    A    
C30   H1    S    
C45   C54   S    
C113  H105  S    
C77   O18   A    
C85   H94   S    
C24   C33   S    
O49   Zn9   S    
C50   H45   S    
C135  H135  S    
C136  H136  S    
C36   H22   S    
C9    H14   S    
C37   H23   S    
C47   H31   S    
C106  C110  T    
C95   H73   S    
C57   H53   S    
C36   C43   S    
C38   H124  S    
C76   C107  S    
C119  H128  S    
C114  H101  S    
O40   Zn16  S    
C52   C93   S    
C39   H26   S    
C63   C76   S    
C71   O8    A    
O1    Zn16  S    
O41   Zn2   S    
C117  H108  S    
C49   O6    A    
C43   C52   S    
C62   H62   S    
C41   C48   S    
C19   C132  S    
C38   H25   S    
C4    H4    S    
C17   C130  S    
C5    H5    S    
C63   C67   S    
C89   C102  S    
C64   H68   S    
C21   C45   S    
C60   O16   A    
O11   Zn3   S    
C94   C98   S    
C50   H33   S    
C123  C124  S    
C122  H113  S    
C58   C76   S    
O26   Zn15  S    
O18   Zn1   S    
C72   C102  T    
O46   Zn9   S    
C129  O26   A    
C44   C48   S    
