data_mof_unit_24274.cif
_audit_creation_date              2012-12-10T17:44:32-0500
_audit_creation_method            fapswitch 2.2
_symmetry_space_group_name_H-M    P1
_symmetry_Int_Tables_number       1
_space_group_crystal_system       triclinic
_cell_length_a                    9.898623
_cell_length_b                    10.728187
_cell_length_c                    15.512522
_cell_angle_alpha                 91.248693
_cell_angle_beta                  67.634358
_cell_angle_gamma                 88.742357
_cell_volume                      1522.24213493

loop_
_atom_site_label
_atom_site_type_symbol
_atom_type_description
_atom_site_fract_x
_atom_site_fract_y
_atom_site_fract_z
_atom_type_partial_charge
C1    C     C_R   0.499602 0.740494 0.496208 0.870752
C2    C     C_R   0.741532 0.492321 0.028620 0.174628
C3    C     C_R   0.598359 0.454347 0.082630 0.096317
C4    C     C_R   0.408500 0.499483 0.675921 0.845602
C5    C     C_R   0.839353 0.520971 0.071594 -0.217775
C6    C     C_R   0.793729 0.519119 0.168311 -0.203395
C7    C     C_R   0.555213 0.454055 0.179348 -0.260940
C8    C     C_R   0.231883 0.897285 0.507521 -0.172251
C9    C     C_R   0.098592 0.963977 0.545091 -0.152095
C10   C     C_R   0.089805 0.078095 0.591116 -0.153093
C11   C     C_R   0.216949 0.131144 0.590938 -0.151389
C12   C     C_R   0.427660 0.454019 0.906661 0.097931
C13   C     C_R   0.354710 0.069259 0.544859 0.099721
C14   C     C_R   0.359815 0.944433 0.515597 0.096245
C15   C     C_R   0.493527 0.874821 0.495150 -0.123960
C16   C     C_R   0.495439 0.261373 0.509481 0.885567
C17   C     C_R   0.621830 0.934828 0.486599 -0.222046
C18   C     C_R   0.620344 0.061745 0.497097 -0.217162
C19   C     C_R   0.488491 0.129540 0.522993 -0.127494
C20   C     C_R   0.783868 0.662715 0.624649 -0.182444
C21   C     C_R   0.815293 0.737132 0.688798 -0.230209
C22   C     C_R   0.953916 0.732671 0.690711 -0.184388
C23   C     C_R   0.291735 0.399681 0.956138 0.177615
C24   C     C_R   0.062543 0.655291 0.627417 -0.178800
C25   C     C_R   0.033913 0.577395 0.562555 0.141433
C26   C     C_R   0.889687 0.579085 0.561797 0.182184
C27   C     C_R   0.965556 0.424673 0.440794 -0.137255
C28   C     C_R   0.591651 0.497847 0.324010 0.880978
C29   C     C_R   0.108872 0.425039 0.440583 -0.108112
C30   C     C_R   0.353798 0.482034 0.776102 -0.050645
C31   C     C_R   0.649743 0.489351 0.222338 -0.062538
C32   C     C_R   0.188800 0.386528 0.914592 -0.224019
C33   C     C_R   0.221038 0.425369 0.823835 -0.218060
C34   C     C_R   0.536365 0.458701 0.945136 0.063974
C35   C     C_R   0.450337 0.503489 0.820185 -0.258824
C36   C     C_R   0.498640 0.427882 0.039421 0.069384
C37   C     C_R   0.362273 0.372905 0.087306 -0.231007
C38   C     C_R   0.261557 0.357784 0.045613 -0.243457
C39   C     C_R   0.682248 0.490512 0.891843 -0.228409
C40   C     C_R   0.783552 0.505026 0.932971 -0.246921
H1    H     H_    0.158926 0.314437 0.084046 0.149159
H2    H     H_    0.675738 0.674469 0.626752 0.205511
H3    H     H_    0.731634 0.799452 0.736833 0.157696
H4    H     H_    0.444641 0.433702 0.223321 0.154037
H5    H     H_    0.978549 0.791732 0.739967 0.158064
H6    H     H_    0.168297 0.660596 0.629901 0.209621
H7    H     H_    0.193066 0.363737 0.392078 0.146518
H8    H     H_    0.868724 0.545484 0.200821 0.159488
H9    H     H_    0.893539 0.531156 0.890276 0.153911
H10   H     H_    0.085956 0.342445 0.951021 0.147287
H11   H     H_    0.145379 0.407186 0.790096 0.153512
H12   H     H_    0.949036 0.549552 0.030794 0.150746
H13   H     H_    0.545347 0.556889 0.784288 0.150276
H14   H     H_    0.332318 0.336332 0.156088 0.142112
H15   H     H_    0.722420 0.501685 0.817427 0.165216
H16   H     H_    0.725081 0.884025 0.469534 0.172108
H17   H     H_    0.232194 0.812714 0.468731 0.177524
H18   H     H_    0.001628 0.926030 0.539560 0.151891
H19   H     H_    0.985517 0.127725 0.623756 0.141276
H20   H     H_    0.206801 0.220950 0.626423 0.152833
H21   H     H_    0.723351 0.106773 0.482474 0.169635
H22   H     H_    0.941886 0.363147 0.392511 0.141625
N1    N     N_R   0.856800 0.501200 0.500850 -0.116916
N2    N     N_R   0.142390 0.501280 0.500880 -0.123129
O1    O     O_R   0.385310 0.683220 0.500000 -0.647484
O2    O     O_R   0.614640 0.683250 0.500010 -0.635744
O3    O     O_R   0.319840 0.499980 0.632240 -0.643227
O4    O     O_R   0.549160 0.500000 0.632250 -0.627732
O5    O     O_R   0.385360 0.316750 0.499990 -0.619498
O6    O     O_R   0.614690 0.316780 0.500000 -0.614438
O7    O     O_R   0.450840 0.500000 0.367750 -0.614551
O8    O     O_R   0.680160 0.500020 0.367760 -0.611622
Zn1   Zn    Zn3+2 0.346880 0.499980 0.499990 0.918221
Zn2   Zn    Zn3+2 0.653120 0.500020 0.500010 0.930430

loop_
_geom_bond_atom_site_label_1
_geom_bond_atom_site_label_2
_ccdc_geom_bond_type
C27   C29   A    
C12   C23   A    
C6    H8    S    
C30   C35   A    
C29   H7    S    
C36   C37   A    
C18   C19   A    
C3    C7    A    
C5    C6    A    
C35   H13   S    
O4    Zn2   S    
C40   H9    S    
O2    Zn2   S    
O1    Zn1   S    
C9    H18   S    
C21   H3    S    
C39   H15   S    
C8    C9    A    
O6    Zn2   S    
C1    O1    A    
N2    Zn1   S    
C5    H12   S    
O5    Zn1   S    
C1    C15   S    
C9    C10   A    
C6    C31   A    
C29   N2    A    
C13   C14   A    
C28   O8    A    
C1    O2    A    
C7    C31   A    
C13   C19   A    
C34   C39   A    
C16   O6    A    
C24   C25   A    
C38   H1    S    
O8    Zn2   S    
C39   C40   A    
C4    O4    A    
C25   C26   A    
C25   N2    A    
C26   N1    A    
C37   C38   A    
C27   H22   S    
C8    H17   S    
C17   C18   A    
C7    H4    S    
C12   C35   A    
C17   H16   S    
C32   H10   S    
C27   N1    A    
O3    Zn1   S    
C37   H14   S    
C22   C24   A    
C28   O7    A    
C12   C34   A    
C11   H20   S    
O7    Zn1   S    
C15   C17   A    
C8    C14   A    
C30   C33   A    
C28   C31   S    
C16   O5    A    
C4    O3    A    
C20   H2    S    
C18   H21   S    
N1    Zn2   S    
C33   H11   S    
C23   C38   A    
C24   H6    S    
C23   C32   A    
C2    C3    A    
C32   C33   A    
C11   C13   A    
C20   C26   A    
C3    C36   A    
C16   C19   S    
C10   H19   S    
C34   C36   A    
C10   C11   A    
C2    C5    A    
C2    C40   A    
C22   H5    S    
C20   C21   A    
C14   C15   A    
C21   C22   A    
C4    C30   S    
