data_mof_unit_14756.cif
_audit_creation_date              2013-03-05T16:21:39-0500
_audit_creation_method            fapswitch 2.2
_symmetry_space_group_name_H-M    P1
_symmetry_Int_Tables_number       1
_space_group_crystal_system       triclinic
_cell_length_a                    8.573399
_cell_length_b                    18.885258
_cell_length_c                    19.029854
_cell_angle_alpha                 105.0498
_cell_angle_beta                  93.367165
_cell_angle_gamma                 91.398377
_cell_volume                      2967.80766142

loop_
_atom_site_label
_atom_site_type_symbol
_atom_site_description
_atom_site_fract_x
_atom_site_fract_y
_atom_site_fract_z
_atom_type_partial_charge
P1    P     P_3+3 0.058010 0.429760 0.330690 0.619120
O1    O     O_2   0.885040 0.450540 0.321170 -0.272041
O2    O     O_3   0.133000 0.456200 0.410860 -0.350950
O3    O     O_3   0.639000 0.584840 0.375630 -0.354335
O4    O     O_2   0.736878 0.525307 0.247492 -0.368736
O5    O     O_3   0.078157 0.333220 0.286949 -0.617907
O6    O     O_3   0.663518 0.659799 0.266408 -0.504115
C1    C     C_3   0.518927 0.755694 0.236817 -0.939691
H1    H     H_    0.439462 0.800778 0.257857 0.218616
H2    H     H_    0.627684 0.779519 0.221655 0.297192
P2    P     P_3+3 0.631910 0.669560 0.569730 0.486032
P3    P     P_3+3 0.080342 0.717943 0.426213 0.459219
O7    O     O_2   0.804950 0.679010 0.548920 -0.364107
O8    O     O_3   0.051170 0.624120 0.414780 -0.375514
O9    O     O_2   0.969001 0.754718 0.484774 -0.346979
O10   O     O_3   0.644957 0.703825 0.665215 -0.579897
O11   O     O_3   0.997986 0.736925 0.347348 -0.508424
C2    C     C_3   0.100806 0.717201 0.291485 0.218738
H3    H     H_    0.145263 0.661280 0.286706 0.072969
H4    H     H_    0.200268 0.758210 0.302492 0.050085
C3    C     C_3   0.011570 0.717380 0.219311 -0.437536
H5    H     H_    0.928818 0.668872 0.202555 0.261879
H6    H     H_    0.942311 0.767515 0.226709 0.227185
C4    C     C_3   0.252573 0.692298 0.650288 0.265971
H7    H     H_    0.366906 0.668446 0.657773 0.129984
C5    C     C_3   0.276785 0.776544 0.677564 0.059214
H8    H     H_    0.374747 0.793653 0.648998 0.052956
Ba1   Ba    Ba6+2 0.844980 0.532260 0.467660 1.697167
C6    C     C_3   0.023222 0.273707 0.313713 0.791790
C7    C     C_3   0.046471 0.197768 0.256728 -0.160973
H9    H     H_    0.971180 0.152861 0.266085 0.201798
H10   H     H_    0.161309 0.177358 0.265581 0.081124
C8    C     C_3   0.732949 0.659333 0.699489 0.236166
H11   H     H_    0.832848 0.637239 0.667587 0.113931
H12   H     H_    0.655028 0.613803 0.705728 0.101736
C9    C     C_3   0.801685 0.702909 0.775617 -0.054392
H13   H     H_    0.926895 0.717167 0.773082 0.191975
H14   H     H_    0.796238 0.667329 0.813799 0.059657
P4    P     P_3+3 0.131690 0.570300 0.669320 0.532821
O12   O     O_2   0.304650 0.549490 0.678880 -0.323958
O13   O     O_3   0.056690 0.543860 0.589150 -0.363909
O14   O     O_3   0.550690 0.415220 0.624380 -0.301615
O15   O     O_3   0.141802 0.666886 0.690475 -0.542412
P5    P     P_3+3 0.117782 0.281948 0.578215 0.556970
O16   O     O_3   0.632900 0.410750 0.456460 -0.287085
O17   O     O_3   0.138520 0.375940 0.585230 -0.274797
O18   O     O_2   0.256651 0.247656 0.535307 -0.358108
O19   O     O_3   0.166566 0.271435 0.665414 -0.559844
Ba2   Ba    Ba6+2 0.344840 0.467800 0.532350 1.710546
P6    P     P_3+3 0.608972 0.575687 0.282754 0.475899
C10   C     C_3   0.557239 0.714102 0.294464 0.523931
H15   H     H_    0.444884 0.691434 0.307817 -0.005467
H16   H     H_    0.460470 0.718098 0.187311 0.255990
O20   O     O_3   0.556800 0.589310 0.543550 -0.367385
C11   C     C_3   0.428482 0.259931 0.288629 0.145194
H17   H     H_    0.337100 0.254292 0.323921 0.075244
C12   C     C_3   0.460184 0.181338 0.239131 0.342297
H18   H     H_    0.357505 0.163917 0.199717 0.069085
P7    P     P_3+3 0.558529 0.317210 0.428160 0.572101
O21   O     O_2   0.384750 0.321010 0.451130 -0.357031
O22   O     O_3   0.561393 0.293708 0.331318 -0.466685
C13   C     C_3   0.068919 0.312067 0.716889 0.292976
H19   H     H_    0.967138 0.333955 0.691748 0.057255
C14   C     C_3   0.000418 0.261179 0.759600 -0.162792
H20   H     H_    0.914701 0.290934 0.797012 0.086233
H21   H     H_    0.937118 0.214421 0.719484 0.112143
P8    P     P_3+3 0.582134 0.432729 0.719923 0.495219
C15   C     C_3   0.573557 0.290047 0.692927 0.300930
H22   H     H_    0.701386 0.287650 0.686741 0.009044
O23   O     O_2   0.451914 0.482942 0.753945 -0.374689
O24   O     O_3   0.539299 0.352860 0.746964 -0.580451
H23   H     H_    0.512233 0.289955 0.639779 0.134889
C16   C     C_3   0.513301 0.221850 0.715156 -0.300884
H24   H     H_    0.389037 0.228838 0.727333 0.254202
C17   C     C_R   0.987144 0.488139 0.050948 0.009664
C18   C     C_R   0.893228 0.455181 0.092870 -0.038813
C19   C     C_R   0.740020 0.430200 0.065093 -0.035834
C20   C     C_R   0.682582 0.433871 0.996412 -0.025167
C21   C     C_R   0.779128 0.463209 0.952424 0.097341
C22   C     C_R   0.931401 0.491027 0.979636 0.115679
C23   C     C_R   0.726612 0.464141 0.881751 -0.252861
C24   C     C_R   0.823818 0.488247 0.835093 -0.035790
C25   C     C_R   0.974082 0.520138 0.862562 -0.022647
C26   C     C_R   0.027283 0.521265 0.935461 0.034874
C27   C     C_R   0.775500 0.478383 0.760937 0.081813
C28   C     C_R   0.877530 0.499615 0.714723 -0.034831
C29   C     C_R   0.021236 0.537794 0.740409 0.079123
C30   C     C_R   0.070381 0.550036 0.817317 -0.233690
C31   C     C_R   0.138325 0.514955 0.078672 0.030608
C32   C     C_R   0.194874 0.510716 0.150084 0.001317
C33   C     C_R   0.101999 0.475960 0.193264 -0.207192
C34   C     C_R   0.955251 0.441969 0.159025 0.357270
H25   H     H_    0.661313 0.406977 0.096110 0.183852
H26   H     H_    0.608892 0.444761 0.862887 0.185187
C35   C     C_R   0.209917 0.590317 0.851430 0.416065
C36   C     C_R   0.270924 0.584522 0.921566 -0.062959
C37   C     C_R   0.177517 0.550318 0.963637 -0.048074
C38   C     C_R   0.232725 0.546943 0.035025 0.037814
C39   C     C_R   0.421322 0.614505 0.952350 -0.079647
C40   C     C_R   0.474037 0.612177 0.023046 0.273276
C41   C     C_R   0.382507 0.576047 0.063182 -0.069757
C42   C     C_R   0.348139 0.538573 0.176032 -0.032030
C43   C     C_R   0.439202 0.569146 0.131393 -0.225177
C44   C     C_R   0.410864 0.533701 0.244834 0.125538
C45   C     C_R   0.324130 0.497016 0.286853 -0.303572
C46   C     C_R   0.164524 0.474085 0.266078 0.218652
H27   H     H_    0.558027 0.586873 0.148780 0.228216
C47   C     C_R   0.678977 0.954442 0.547296 0.000903
C48   C     C_R   0.759060 0.909878 0.585387 -0.132404
C49   C     C_R   0.898279 0.046683 0.566977 -0.228819
C50   C     C_R   0.742398 0.023688 0.543248 0.054312
C51   C     C_R   0.962148 0.114349 0.563308 0.044289
C52   C     C_R   0.869224 0.164040 0.536514 -0.055857
C53   C     C_R   0.713202 0.139763 0.507960 0.019495
C54   C     C_R   0.650897 0.069372 0.510629 0.064341
C55   C     C_R   0.924588 0.235852 0.534822 0.206363
C56   C     C_R   0.826374 0.277830 0.501272 -0.226140
C57   C     C_R   0.674404 0.255171 0.473167 0.192622
C58   C     C_R   0.618510 0.185201 0.475643 -0.091671
C59   C     C_R   0.529596 0.928738 0.513031 0.047136
C60   C     C_R   0.475433 0.855419 0.507968 0.026717
C61   C     C_R   0.569730 0.808354 0.537786 -0.097292
C62   C     C_R   0.705071 0.838736 0.580879 -0.005526
H28   H     H_    0.868993 0.329743 0.495530 0.228492
H29   H     H_    0.773597 0.807696 0.610438 0.224652
C63   C     C_R   0.470528 0.158809 0.444723 0.039248
C64   C     C_R   0.410281 0.091369 0.447373 -0.107102
C65   C     C_R   0.496561 0.045302 0.480780 -0.020961
C66   C     C_R   0.435250 0.975079 0.482433 0.059792
C67   C     C_R   0.281938 0.949194 0.454383 -0.201803
C68   C     C_R   0.328063 0.828827 0.471940 0.042814
C69   C     C_R   0.230094 0.877849 0.449219 -0.123176
C70   C     C_R   0.284784 0.753672 0.457873 0.125941
C71   C     C_R   0.394014 0.705601 0.475607 -0.476702
C72   C     C_R   0.526480 0.732574 0.522978 0.241356
H30   H     H_    0.398920 0.189279 0.416065 0.178056
H31   H     H_    0.113584 0.861420 0.424810 0.171474
H32   H     H_    0.365988 0.647266 0.459669 0.163357
H33   H     H_    0.978006 0.011260 0.585881 0.156630
H34   H     H_    0.863906 0.928786 0.619950 0.188017
H35   H     H_    0.295331 0.076852 0.420996 0.170082
H36   H     H_    0.197801 0.982208 0.434921 0.141386
N1    N     N_3   0.629951 0.764638 0.360435 -0.166618
H37   H     H_    0.557955 0.808999 0.375565 0.063826
H38   H     H_    0.734189 0.786704 0.347730 0.188848
N2    N     N_3   0.318202 0.798987 0.755920 -0.097209
H39   H     H_    0.426091 0.777599 0.765197 0.204453
H40   H     H_    0.336039 0.856071 0.771582 0.177440
N3    N     N_R   0.136484 0.813402 0.661432 0.258920
O25   O     O_R   0.141746 0.857546 0.619243 -0.423969
O26   O     O_R   0.010631 0.808237 0.694923 -0.347762
N4    N     N_R   0.862072 0.279229 0.325923 0.236135
O27   O     O_R   0.791082 0.220894 0.334850 -0.419813
O28   O     O_R   0.824961 0.342330 0.365032 -0.340291
N5    N     N_R   0.102492 0.273599 0.383475 0.164605
O29   O     O_R   0.100689 0.332479 0.436569 -0.336915
O30   O     O_R   0.118500 0.211271 0.399877 -0.476559
N6    N     N_R   0.023183 0.198100 0.180258 0.311935
O31   O     O_R   0.135249 0.222841 0.149040 -0.346449
O32   O     O_R   0.918136 0.153206 0.138683 -0.205497
N7    N     N_R   0.721909 0.770834 0.804543 0.295952
O33   O     O_R   0.735175 0.825132 0.774645 -0.306406
O34   O     O_R   0.659243 0.781897 0.866823 -0.342314
N8    N     N_3   0.375380 0.307775 0.242617 -0.187345
H41   H     H_    0.385128 0.283044 0.187321 0.180725
H42   H     H_    0.450957 0.353846 0.251732 0.154452
N9    N     N_R   0.474185 0.125902 0.280413 0.220385
O35   O     O_R   0.350898 0.085648 0.283744 -0.421025
O36   O     O_R   0.610463 0.101990 0.294504 -0.303546
N10   N     N_R   0.592175 0.179252 0.193441 0.274586
O37   O     O_R   0.613816 0.118652 0.144292 -0.255637
O38   O     O_R   0.666973 0.239025 0.190738 -0.289803
N11   N     N_3   0.116743 0.715194 0.161307 -0.165651
H43   H     H_    0.186045 0.763745 0.174703 0.165821
H44   H     H_    0.190673 0.671701 0.158838 0.129275
N12   N     N_3   0.159353 0.374381 0.765071 -0.166500
H45   H     H_    0.098645 0.394642 0.811518 0.084770
H46   H     H_    0.264615 0.356213 0.782979 0.209107
N13   N     N_R   0.121049 0.233206 0.801566 0.280879
O39   O     O_R   0.149739 0.163720 0.783595 -0.355399
O40   O     O_R   0.181006 0.274499 0.863490 -0.379204
N14   N     N_3   0.598677 0.212606 0.780930 -0.147151
H47   H     H_    0.609988 0.262677 0.820736 0.170828
H48   H     H_    0.710406 0.194960 0.768436 0.146668
N15   N     N_3   0.523932 0.155970 0.655443 -0.222882
H49   H     H_    0.447614 0.160586 0.612118 0.128561
H50   H     H_    0.480839 0.111028 0.672043 0.169615
N16   N     N_3   0.526716 0.404833 0.972137 -0.185000
H51   H     H_    0.531732 0.361227 0.925598 0.153856
H52   H     H_    0.460600 0.445801 0.958821 0.119352
N17   N     N_R   0.840838 0.474307 0.638671 0.255500
O41   O     O_R   0.850454 0.405048 0.609492 -0.477822
O42   O     O_R   0.753662 0.512124 0.605302 -0.346304
N18   N     N_R   0.891844 0.377824 0.175640 0.249415
O43   O     O_R   0.928190 0.315682 0.133344 -0.288429
O44   O     O_R   0.756531 0.379882 0.203471 -0.351700
N19   N     N_R   0.260049 0.652348 0.827148 0.242565
O45   O     O_R   0.195361 0.714624 0.852334 -0.371024
O46   O     O_R   0.386513 0.651284 0.792473 -0.408996
N20   N     N_3   0.527277 0.643615 0.910661 -0.135151
H53   H     H_    0.631471 0.615759 0.908749 0.140223
H54   H     H_    0.551140 0.698937 0.936699 0.243051
N21   N     N_R   0.619441 0.649845 0.054649 0.222522
O47   O     O_R   0.741661 0.613223 0.064204 -0.437080
O48   O     O_R   0.632335 0.721048 0.069619 -0.370708
N22   N     N_3   0.403200 0.479501 0.349203 -0.148499
H55   H     H_    0.363494 0.428411 0.353379 0.135607
H56   H     H_    0.517305 0.465570 0.336972 0.182857
N23   N     N_3   0.125271 0.128881 0.583413 -0.163944
H57   H     H_    0.186821 0.087773 0.549958 0.103463
H58   H     H_    0.146211 0.125148 0.636967 0.169160
N24   N     N_3   0.200920 0.672858 0.573415 -0.223678
H59   H     H_    0.236571 0.620261 0.548854 0.130507
H60   H     H_    0.079543 0.672404 0.567945 0.223380

loop_
_geom_bond_atom_site_label_1
_geom_bond_atom_site_label_2
_geom_bond_distance
_ccdc_geom_bond_type
C1    H1    1.110264 S    
N18   O44   1.300571 A    
N21   O47   1.299105 A    
P6    C44   1.878129 S    
C63   C64   1.376872 A    
C16   N14   1.464591 S    
N5    O30   1.302088 A    
C2    C3    1.533241 S    
P2    O7    1.575552 D    
C16   H24   1.107292 S    
C47   C59   1.417110 A    
C35   C36   1.436499 A    
P4    C29   1.912350 S    
C11   H17   1.082148 S    
C65   C66   1.423239 A    
C23   C24   1.403015 A    
C4    N24   1.451904 S    
C45   N22   1.448113 S    
N9    O36   1.301059 A    
C19   C20   1.388752 A    
C55   C56   1.406203 A    
N21   O48   1.300633 A    
O17   Ba2   2.849026 S    
C28   N17   1.414902 S    
C6    C7    1.582440 S    
Ba2   O21   2.841512 S    
C48   H34   1.077502 S    
C26   C37   1.406810 A    
C9    H13   1.107212 S    
C56   H28   1.072119 S    
C4    C5    1.544725 S    
C11   N8    1.474616 S    
C2    H3    1.114753 S    
C34   N18   1.431761 S    
N3    O26   1.299170 A    
C7    H9    1.110321 S    
C40   N21   1.438134 S    
N22   H56   1.043027 S    
C62   H29   1.074441 S    
N10   O37   1.301473 A    
Ba2   O20   2.847905 S    
C36   C39   1.424702 A    
N1    H38   1.044179 S    
Ba1   O13   2.812857 S    
C8    C9    1.542776 S    
C47   C48   1.411263 A    
N16   H52   1.044255 S    
P1    O1    1.555540 D    
C64   H35   1.074980 S    
C19   H25   1.078352 S    
N19   O46   1.299849 A    
N14   H47   1.045149 S    
C32   C42   1.415033 A    
C13   C14   1.537301 S    
C49   C51   1.397999 A    
O3    Ba1   2.792331 S    
C49   C50   1.406234 A    
C39   C40   1.405823 A    
N20   H53   1.045407 S    
C39   N20   1.429537 S    
P1    Ba1   3.462409 S    
O7    Ba1   2.841289 S    
C17   C22   1.427064 A    
C2    H4    1.110569 S    
C53   C58   1.422333 A    
P5    O18   1.542993 D    
C22   C26   1.419895 A    
P1    C46   1.917159 S    
C6    N5    1.455942 S    
C52   C55   1.434806 A    
N12   H46   1.043068 S    
N18   O43   1.295759 A    
C30   C35   1.427984 A    
C63   H30   1.070663 S    
P7    O21   1.575237 D    
C41   C43   1.398200 A    
N11   H43   1.045445 S    
C3    H5    1.110961 S    
C57   C58   1.407850 A    
N6    O32   1.298680 A    
C51   C52   1.418643 A    
C33   C46   1.465525 A    
C49   H33   1.078219 S    
C42   C43   1.405386 A    
C60   C68   1.416712 A    
O13   Ba2   3.002530 S    
C44   C45   1.415889 A    
N7    O34   1.299469 A    
N9    O35   1.301096 A    
P5    O17   1.749006 S    
C37   C38   1.429858 A    
N5    O29   1.294908 A    
N2    H40   1.046026 S    
N11   H44   1.042806 S    
O2    Ba2   2.813520 S    
Ba1   O16   2.848536 S    
P7    O22   1.781839 S    
P8    C27   1.878726 S    
N2    H39   1.042099 S    
C59   C66   1.415311 A    
O12   Ba2   2.859891 S    
C18   C19   1.409253 A    
N23   H57   1.043671 S    
C31   C32   1.438490 A    
C33   C34   1.437560 A    
C21   C23   1.397608 A    
C14   N13   1.461230 S    
Ba1   O20   3.015249 S    
N22   H55   1.039279 S    
C15   H22   1.109853 S    
P4    O15   1.761707 S    
C5    N2    1.459920 S    
C15   C16   1.542940 S    
C27   C28   1.398476 A    
C54   C65   1.424203 A    
N17   O41   1.288155 A    
O3    P6    1.733680 S    
N16   H51   1.044902 S    
P1    O2    1.569619 S    
C14   H21   1.111276 S    
P3    O11   1.745460 S    
C67   C69   1.385454 A    
C17   C18   1.407481 A    
N17   O42   1.295275 A    
C13   H19   1.110154 S    
N8    H41   1.043747 S    
P2    C72   1.879524 S    
O10   C8    1.399370 S    
C70   C71   1.406591 A    
C50   C54   1.413862 A    
Ba1   Ba2   4.666481 S    
O19   C13   1.409448 S    
C25   C26   1.429275 A    
P3    O9    1.546236 D    
O16   Ba2   3.014370 S    
C15   H23   1.111731 S    
C21   C22   1.412194 A    
C13   N12   1.462299 S    
C36   C37   1.420626 A    
O11   C2    1.402278 S    
C5    H8    1.112155 S    
C12   H18   1.107200 S    
C11   C12   1.577290 S    
C4    H7    1.105665 S    
C42   C44   1.412138 A    
C1    C10   1.531672 S    
P5    C55   1.891764 S    
C60   C61   1.417284 A    
C52   C53   1.431796 A    
P2    O20   1.575534 S    
C18   C34   1.421571 A    
N20   H54   1.042949 S    
N12   H45   1.042443 S    
P4    Ba2   3.463010 S    
N24   H60   1.039305 S    
P7    C57   1.889744 S    
C3    N11   1.458837 S    
P3    C70   1.870176 S    
C3    H6    1.112159 S    
N6    O31   1.297541 A    
O4    P6    1.537472 D    
O2    Ba1   3.001578 S    
C64   C65   1.404130 A    
C24   C27   1.410248 A    
P4    O12   1.555729 D    
C59   C60   1.426972 A    
C43   H27   1.070339 S    
C12   N10   1.462204 S    
N4    O28   1.288781 A    
O14   P8    1.764536 S    
C7    N6    1.458848 S    
O16   P7    1.796619 S    
C28   C29   1.406985 A    
C5    N3    1.460843 S    
C48   C62   1.389906 A    
O6    P6    1.753889 S    
P3    O8    1.738164 S    
C35   N19   1.431953 S    
C68   C70   1.410360 A    
C1    H16   1.105731 S    
C71   H32   1.080923 S    
C16   N15   1.459792 S    
C53   C54   1.434813 A    
C71   C72   1.405325 A    
C12   N9    1.466209 S    
C10   N1    1.460258 S    
C38   C41   1.403570 A    
C45   C46   1.426493 A    
N15   H49   1.045077 S    
C47   C50   1.426286 A    
C31   C38   1.423217 A    
P8    O23   1.543558 D    
C51   N23   1.428790 S    
N8    H42   1.042992 S    
N1    H37   1.042402 S    
C66   C67   1.415015 A    
O6    C10   1.409035 S    
C10   H15   1.113928 S    
N7    O33   1.301181 A    
N3    O25   1.300625 A    
C14   H20   1.111995 S    
C6    N4    1.416278 S    
C7    H10   1.085836 S    
C23   H26   1.073599 S    
C20   C21   1.411646 A    
C32   C33   1.439273 A    
C9    N7    1.461733 S    
N10   O38   1.298791 A    
P2    Ba1   3.444648 S    
C15   O24   1.403508 S    
C11   O22   1.397127 S    
C9    H14   1.112481 S    
C40   C41   1.407008 A    
C8    H12   1.110861 S    
C8    H11   1.105973 S    
C25   C30   1.433538 A    
P8    O24   1.753010 S    
N19   O45   1.300320 A    
C67   H36   1.075512 S    
N14   H48   1.042266 S    
C61   C72   1.420359 A    
P2    O10   1.759251 S    
N15   H50   1.046092 S    
C17   C31   1.401299 A    
O14   Ba2   2.791659 S    
N13   O39   1.300792 A    
C58   C63   1.390467 A    
P5    O19   1.749730 S    
O5    C6    1.429705 S    
C20   N16   1.435260 S    
N4    O27   1.299849 A    
P4    O13   1.569649 S    
C29   C30   1.456029 A    
C1    H2    1.110694 S    
C24   C25   1.419557 A    
P1    O5    1.814065 S    
C4    O15   1.403819 S    
N23   H58   1.045097 S    
O1    Ba1   2.859202 S    
C69   H31   1.079500 S    
O8    Ba1   2.848328 S    
C61   C62   1.399809 A    
C56   C57   1.392398 A    
C68   C69   1.397393 A    
N24   H59   1.043571 S    
N13   O40   1.301161 A    
