data_mof_unit_67698.cif
_audit_creation_date              2012-12-10T19:48:31-0500
_audit_creation_method            fapswitch 2.2
_symmetry_space_group_name_H-M    P1
_symmetry_Int_Tables_number       1
_space_group_crystal_system       triclinic
_cell_length_a                    10.807479
_cell_length_b                    10.637248
_cell_length_c                    9.451515
_cell_angle_alpha                 88.22665
_cell_angle_beta                  88.1546
_cell_angle_gamma                 88.648061
_cell_volume                      1085.20211081

loop_
_atom_site_label
_atom_site_type_symbol
_atom_type_description
_atom_site_fract_x
_atom_site_fract_y
_atom_site_fract_z
_atom_type_partial_charge
C1    C     C_R   0.501768 0.259105 0.501149 0.912657
C2    C     C_R   0.500998 0.739845 0.498708 0.878031
C3    C     C_R   0.880245 0.487959 0.494470 -0.133826
C4    C     C_R   0.128984 0.558357 0.503047 -0.175981
C5    C     C_R   0.947553 0.477526 0.623486 0.034116
C6    C     C_R   0.066900 0.580332 0.377280 -0.001925
C7    C     C_3   0.611030 0.035036 0.553161 -0.180079
C8    C     C_3   0.397750 0.960250 0.445466 -0.255263
C9    C     C_3   0.598436 0.957351 0.420401 0.505714
C10   C     C_3   0.408910 0.037652 0.578958 0.483212
C11   C     C_3   0.503436 0.875632 0.498019 -0.219344
C12   C     C_3   0.503888 0.121264 0.501272 -0.155002
C13   C     C_3   0.513962 0.950776 0.632790 -0.245387
C14   C     C_3   0.494030 0.044502 0.365767 -0.194425
C15   C     C_3   0.587687 0.427784 0.049779 -0.017821
C16   C     C_3   0.411939 0.571638 0.949479 -0.059800
C17   C     C_3   0.603393 0.540082 0.944009 -0.047612
C18   C     C_3   0.396216 0.460300 0.055514 -0.079141
C19   C     C_3   0.483726 0.388340 0.954275 0.033420
C20   C     C_3   0.515074 0.612089 0.045349 -0.017156
C21   C     C_R   0.263578 0.522547 0.501065 0.834639
C22   C     C_R   0.740289 0.490681 0.498375 0.813933
C23   C     C_R   0.113707 0.923329 0.256980 0.370268
C24   C     C_R   0.844521 0.188299 0.857767 0.449888
C25   C     C_R   0.086884 0.815075 0.341678 -0.182851
C26   C     C_R   0.838058 0.289497 0.757334 -0.248852
C27   C     C_R   0.104338 0.692777 0.287960 0.054242
C28   C     C_R   0.941415 0.367811 0.731617 0.058407
C29   C     C_R   0.149852 0.681206 0.148335 -0.139319
C30   C     C_R   0.049989 0.335160 0.807857 -0.097024
C31   C     C_R   0.176768 0.788817 0.064813 -0.198026
C32   C     C_R   0.054416 0.235562 0.905465 -0.103167
C33   C     C_R   0.159412 0.908627 0.118679 -0.226984
C34   C     C_R   0.953599 0.160014 0.926521 -0.069087
C35   C     C_R   0.945789 0.532802 0.368119 0.199786
C36   C     C_R   0.056104 0.547827 0.626629 0.110570
Cu1   Cu    Cu3+1 0.500030 0.499990 0.643150 0.976369
Cu2   Cu    Cu3+1 0.499970 0.500010 0.356850 0.988918
H1    H     H_    0.181269 0.990107 0.052021 0.185109
H2    H     H_    0.959798 0.079208 0.998045 0.174360
H3    H     H_    0.688936 0.575197 0.890327 0.138370
H4    H     H_    0.310003 0.423048 0.106183 0.129508
H5    H     H_    0.661758 0.366950 0.095716 0.161555
H6    H     H_    0.338946 0.629610 0.898822 0.102820
H7    H     H_    0.456169 0.297837 0.913731 0.198222
H8    H     H_    0.522155 0.707497 0.086880 0.188474
H9    H     H_    0.051348 0.825898 0.448701 0.194827
H10   H     H_    0.753934 0.303519 0.701045 0.185954
H11   H     H_    0.161549 0.589612 0.103080 0.123050
H12   H     H_    0.136567 0.382362 0.789590 0.171478
H13   H     H_    0.209131 0.780833 0.956505 0.147057
H14   H     H_    0.137405 0.215883 0.963763 0.183277
H15   H     H_    0.700909 0.066336 0.591525 0.223461
H16   H     H_    0.312904 0.920920 0.405073 0.188619
H17   H     H_    0.520354 0.907969 0.741004 0.210254
H18   H     H_    0.487168 0.083364 0.255867 0.209645
N1    N     N_3   0.500090 0.499970 0.858290 -0.168675
N2    N     N_3   0.499910 0.500030 0.141710 -0.176577
O1    O     O_R   0.500060 0.316850 0.620870 -0.536539
O2    O     O_R   0.499940 0.683150 0.379130 -0.560500
O3    O     O_R   0.500000 0.316860 0.379090 -0.579918
O4    O     O_R   0.500000 0.683140 0.620910 -0.598886
O5    O     O_R   0.319670 0.500010 0.620890 -0.584547
O6    O     O_R   0.680330 0.499990 0.379110 -0.570261
O7    O     O_R   0.319620 0.500010 0.379110 -0.565546
O8    O     O_R   0.680380 0.499990 0.620890 -0.596116
S1    S     S_3+6 0.094656 0.077501 0.323355 0.018707
O9    O     O_2   0.011991 0.158342 0.232119 -0.334124
O10   O     O_2   0.038361 0.071627 0.470657 -0.156838
O11   O     O_3   0.231699 0.148520 0.323717 -0.510223
H19   H     H_    0.254209 0.165538 0.222638 0.326077
S2    S     S_3+6 0.717176 0.098251 0.910787 -0.055557
O12   O     O_2   0.746805 0.961665 0.886562 -0.295685
O13   O     O_2   0.690792 0.116550 0.065740 -0.295513
O14   O     O_3   0.592157 0.142701 0.823254 -0.587956
H20   H     H_    0.526494 0.094457 0.873610 0.394899
C37   C     C_3   0.907075 0.497826 0.221758 -0.374884
C38   C     C_3   0.850602 0.607486 0.136407 -0.693982
H21   H     H_    0.897606 0.697134 0.151069 0.286954
H22   H     H_    0.858845 0.585946 0.022656 0.196412
H23   H     H_    0.751801 0.620566 0.166681 0.299022
H24   H     H_    0.989675 0.461008 0.161795 0.194622
H25   H     H_    0.843359 0.417495 0.227274 0.223390
C39   C     C_3   0.079572 0.630323 0.750679 -0.480083
C40   C     C_3   0.975808 0.729567 0.768350 -0.678197
H26   H     H_    0.969912 0.791337 0.672171 0.280902
H27   H     H_    0.885198 0.684183 0.788049 0.244170
H28   H     H_    0.993627 0.788989 0.859542 0.257084
H29   H     H_    0.085817 0.575203 0.851541 0.193521
H30   H     H_    0.168440 0.679394 0.732744 0.193252
S3    S     S_3+6 0.722427 0.892689 0.317985 0.010237
O15   O     O_2   0.783904 0.786986 0.400288 -0.342604
O16   O     O_2   0.672948 0.845428 0.183611 -0.311326
O17   O     O_3   0.824580 0.004166 0.278594 -0.442795
H31   H     H_    0.868845 0.973445 0.192695 0.386387
S4    S     S_3+6 0.277671 0.088180 0.682449 0.016582
O18   O     O_2   0.314453 0.119444 0.828433 -0.405470
O19   O     O_2   0.221333 0.203186 0.612025 -0.200095
O20   O     O_3   0.173689 0.973224 0.694825 -0.499335
H32   H     H_    0.222368 0.896761 0.721876 0.307876

loop_
_geom_bond_atom_site_label_1
_geom_bond_atom_site_label_2
_ccdc_geom_bond_type
C14   H18   S    
C4    C36   A    
C27   C29   A    
C9    C14   S    
S4    O20   S    
C9    S3    S    
Cu1   O4    S    
C29   H11   S    
C40   H26   S    
C19   N1    S    
C15   C19   S    
C33   H1    S    
C34   H2    S    
C24   C26   A    
C18   H4    S    
C2    O2    A    
C37   H25   S    
C5    C36   A    
C20   H8    S    
C17   C20   S    
C6    C35   A    
C7    C9    S    
C18   C19   S    
C23   S1    S    
C22   O8    A    
Cu2   N2    S    
C18   N2    S    
C32   H14   S    
O20   H32   S    
C23   C33   A    
S4    O19   D    
C31   C33   A    
O11   H19   S    
C10   S4    S    
C16   H6    S    
C26   H10   S    
Cu2   O3    S    
C30   H12   S    
Cu1   O8    S    
C1    C12   S    
C39   H30   S    
S2    O14   S    
C2    C11   S    
Cu1   O5    S    
Cu2   O6    S    
C40   H27   S    
C7    C12   S    
S1    O9    D    
C39   C40   S    
C4    C6    A    
C8    H16   S    
S3    O15   D    
C38   H21   S    
C37   C38   S    
C35   C37   S    
C24   C34   A    
S1    O10   D    
C32   C34   A    
O14   H20   S    
Cu1   Cu2   S    
S3    O16   D    
C5    C28   S    
C6    C27   S    
Cu2   O7    S    
C3    C35   A    
C16   C20   S    
S4    O18   D    
C16   C18   S    
C9    C11   S    
Cu1   O1    S    
C10   C12   S    
Cu2   O2    S    
S2    O13   D    
C12   C14   S    
C15   N2    S    
C39   H29   S    
C7    H15   S    
C20   N2    S    
C24   S2    S    
C40   H28   S    
C15   C17   S    
C25   H9    S    
C8    C14   S    
C21   O7    A    
C31   H13   S    
S2    O12   D    
C3    C5    A    
C10   C13   S    
C1    O3    A    
C19   H7    S    
C25   C27   A    
C26   C28   A    
S1    O11   S    
C1    O1    A    
C15   H5    S    
C29   C31   A    
S3    O17   S    
C30   C32   A    
C4    C21   S    
C11   C13   S    
C38   H23   S    
C37   H24   S    
C36   C39   S    
C8    C11   S    
C28   C30   A    
C38   H22   S    
C16   N1    S    
C23   C25   A    
O17   H31   S    
C17   H3    S    
C21   O5    A    
C22   O6    A    
C7    C13   S    
C8    C10   S    
C3    C22   S    
Cu1   N1    S    
C2    O4    A    
C17   N1    S    
C13   H17   S    
