data_mof_unit_48605.cif
_audit_creation_date              2012-12-10T17:51:21-0500
_audit_creation_method            fapswitch 2.2
_symmetry_space_group_name_H-M    P1
_symmetry_Int_Tables_number       1
_space_group_crystal_system       triclinic
_cell_length_a                    14.728971
_cell_length_b                    14.641815
_cell_length_c                    17.217506
_cell_angle_alpha                 105.879454
_cell_angle_beta                  73.521151
_cell_angle_gamma                 114.754787
_cell_volume                      3181.87834529

loop_
_atom_site_label
_atom_site_type_symbol
_atom_type_description
_atom_site_fract_x
_atom_site_fract_y
_atom_site_fract_z
_atom_type_partial_charge
C1    C     C_R   0.118782 0.688471 0.513057 0.800698
C2    C     C_R   0.881421 0.311536 0.485929 0.797549
C3    C     C_R   0.186493 0.796998 0.516624 -0.089131
C4    C     C_R   0.814886 0.202619 0.474788 -0.092867
C5    C     C_R   0.215413 0.975393 0.522457 0.097080
C6    C     C_R   0.790542 0.021628 0.434537 0.102159
C7    C     C_R   0.150132 0.872352 0.519988 -0.202505
C8    C     C_R   0.854838 0.125489 0.446224 -0.211189
C9    C     C_R   0.290182 0.823616 0.512113 -0.255516
C10   C     C_R   0.709893 0.176799 0.491139 -0.262129
C11   C     C_R   0.360493 0.922816 0.504123 0.069403
C12   C     C_R   0.642522 0.074982 0.477857 0.068466
C13   C     C_R   0.322095 0.000111 0.511778 0.110523
C14   C     C_R   0.682940 0.996478 0.454471 0.113554
C15   C     C_R   0.467905 0.946784 0.488558 0.078020
C16   C     C_R   0.535638 0.049901 0.488936 0.077838
C17   C     C_R   0.495086 0.124539 0.496499 -0.217826
C18   C     C_R   0.510054 0.870595 0.469314 -0.216604
C19   C     C_R   0.391432 0.100151 0.506988 -0.242136
C20   C     C_R   0.614599 0.894808 0.451837 -0.242899
C21   C     C_R   0.292208 0.320069 0.370590 -0.347552
C22   C     C_R   0.689063 0.652670 0.650213 -0.335827
C23   C     C_R   0.990581 0.504237 0.652917 0.786784
C24   C     C_R   0.007919 0.493522 0.347120 0.792437
C25   C     C_R   0.222064 0.364452 0.377646 0.298513
C26   C     C_R   0.783489 0.643120 0.616779 0.302516
C27   C     C_R   0.275458 0.477209 0.498946 -0.035255
C28   C     C_R   0.708063 0.499044 0.519071 -0.035259
C29   C     C_R   0.359002 0.444374 0.485434 -0.024165
C30   C     C_R   0.613337 0.515448 0.545227 -0.025244
C31   C     C_R   0.363205 0.362098 0.420941 0.136976
C32   C     C_R   0.606196 0.593508 0.612972 0.135083
C33   C     C_R   0.439722 0.490941 0.531267 0.086644
C34   C     C_R   0.526594 0.460026 0.506201 0.089665
C35   C     C_R   0.524009 0.375663 0.442605 -0.244361
C36   C     C_R   0.437646 0.568575 0.600086 -0.238558
C37   C     C_R   0.442443 0.326130 0.402436 -0.217050
C38   C     C_R   0.518623 0.617429 0.640851 -0.204003
C39   C     C_R   0.990020 0.510383 0.739450 -0.067713
C40   C     C_R   0.000676 0.476823 0.261008 -0.054015
C41   C     C_R   0.073656 0.506902 0.760770 -0.209081
C42   C     C_R   0.905305 0.451691 0.242095 -0.205402
C43   C     C_R   0.075090 0.511588 0.842962 0.130435
C44   C     C_R   0.894277 0.434738 0.160465 0.125458
C45   C     C_R   0.988942 0.518478 0.903632 0.142759
C46   C     C_R   0.981903 0.442659 0.097847 0.139626
C47   C     C_R   0.907410 0.525457 0.882519 -0.183195
C48   C     C_R   0.076338 0.465339 0.116645 -0.186092
C49   C     C_R   0.907545 0.520873 0.800890 -0.211690
C50   C     C_R   0.085975 0.483212 0.197912 -0.219143
C51   C     C_2   0.981490 0.518171 0.990024 -0.256294
C52   C     C_2   0.979439 0.436990 0.012589 -0.262474
Cu1   Cu    Cu3+1 0.916740 0.524770 0.521640 0.927815
Cu2   Cu    Cu3+1 0.083260 0.475230 0.478360 0.928115
H1    H     H_    0.137443 0.500675 0.712661 0.144269
H2    H     H_    0.840018 0.445234 0.291782 0.141462
H3    H     H_    0.542123 0.202581 0.490380 0.141610
H4    H     H_    0.464603 0.790119 0.463484 0.145066
H5    H     H_    0.444083 0.261807 0.353217 0.145612
H6    H     H_    0.514086 0.677656 0.693280 0.143718
H7    H     H_    0.717654 0.438622 0.469299 0.125789
H8    H     H_    0.263943 0.535463 0.550135 0.126249
H9    H     H_    0.298834 0.259044 0.319302 0.138951
H10   H     H_    0.682785 0.714185 0.701128 0.139159
H11   H     H_    0.584158 0.345933 0.422474 0.125203
H12   H     H_    0.374027 0.593179 0.624173 0.124063
H13   H     H_    0.160330 0.504391 0.211323 0.142017
H14   H     H_    0.842487 0.524012 0.785815 0.153183
H15   H     H_    0.983441 0.369632 0.967695 0.157988
H16   H     H_    0.974962 0.584153 0.035813 0.160647
H17   H     H_    0.842283 0.531962 0.929332 0.135569
H18   H     H_    0.143434 0.472615 0.068279 0.139828
H19   H     H_    0.367046 0.161410 0.510126 0.155632
H20   H     H_    0.640560 0.832017 0.437510 0.143863
H21   H     H_    0.681767 0.237895 0.517354 0.158282
H22   H     H_    0.314245 0.764844 0.514948 0.151889
H23   H     H_    0.936318 0.147618 0.434439 0.144938
H24   H     H_    0.071208 0.849848 0.518851 0.135949
N1    N     N_R   0.208390 0.438070 0.445820 -0.180306
N2    N     N_R   0.791610 0.561930 0.554180 -0.180743
O1    O     O_R   0.020090 0.662480 0.528530 -0.595959
O2    O     O_R   0.979910 0.337520 0.471470 -0.590877
O3    O     O_R   0.160710 0.620650 0.491980 -0.582110
O4    O     O_R   0.839290 0.379350 0.508020 -0.586114
O5    O     O_R   0.921540 0.523360 0.633990 -0.587250
O6    O     O_R   0.078460 0.476640 0.366010 -0.592496
O7    O     O_R   0.062170 0.481520 0.597440 -0.586865
O8    O     O_R   0.937830 0.518480 0.402560 -0.585876
C53   C     C_3   0.872785 0.738394 0.641172 -0.374020
C54   C     C_3   0.917113 0.733468 0.710011 -0.294389
C55   C     C_3   0.968813 0.839813 0.757354 -0.904540
H25   H     H_    0.912564 0.876869 0.788546 0.255095
H26   H     H_    0.002414 0.833368 0.804849 0.250819
H27   H     H_    0.030728 0.888201 0.714788 0.260255
H28   H     H_    0.855831 0.686693 0.753952 0.209423
H29   H     H_    0.976305 0.700099 0.683717 0.245162
H30   H     H_    0.929585 0.762258 0.586835 0.191505
H31   H     H_    0.847618 0.804631 0.662925 0.163363
C56   C     C_3   0.183742 0.341796 0.298519 -0.353796
C57   C     C_3   0.079625 0.254544 0.295719 -0.321399
C58   C     C_3   0.062722 0.209194 0.207542 -0.894116
H32   H     H_    0.068771 0.269281 0.176468 0.270512
H33   H     H_    0.119759 0.174427 0.172213 0.253483
H34   H     H_    0.985433 0.148742 0.208312 0.245516
H35   H     H_    0.074658 0.193010 0.324534 0.196299
H36   H     H_    0.017708 0.282569 0.328585 0.249753
H37   H     H_    0.190364 0.411516 0.281491 0.200139
H38   H     H_    0.239011 0.318595 0.245992 0.163093
C59   C     C_3   0.792026 0.408718 0.138075 -0.403751
C60   C     C_3   0.700394 0.398377 0.210219 -0.368728
C61   C     C_3   0.602842 0.371947 0.180083 -0.846005
H39   H     H_    0.611330 0.432177 0.147988 0.251544
H40   H     H_    0.584923 0.297308 0.137358 0.250720
H41   H     H_    0.538360 0.366664 0.233324 0.247574
H42   H     H_    0.689191 0.336846 0.242159 0.216840
H43   H     H_    0.714072 0.471748 0.254654 0.223118
H44   H     H_    0.799615 0.469244 0.106701 0.203685
H45   H     H_    0.775065 0.335425 0.093492 0.204095
C62   C     C_3   0.166403 0.510661 0.867739 -0.410150
C63   C     C_3   0.262901 0.521732 0.800471 -0.370699
C64   C     C_3   0.349879 0.525874 0.834604 -0.841950
H46   H     H_    0.371184 0.594493 0.883250 0.248017
H47   H     H_    0.326995 0.456216 0.860773 0.251428
H48   H     H_    0.417490 0.529820 0.784534 0.253732
H49   H     H_    0.247398 0.455098 0.749356 0.222672
H50   H     H_    0.287232 0.593129 0.776219 0.216992
H51   H     H_    0.186830 0.574534 0.920209 0.209556
H52   H     H_    0.143580 0.437882 0.889228 0.196737
C65   C     C_3   0.173443 0.058947 0.534759 -0.412775
C66   C     C_3   0.056851 0.026642 0.558574 -0.380029
C67   C     C_3   0.025436 0.118511 0.576133 -0.828140
H53   H     H_    0.053909 0.173296 0.630782 0.254523
H54   H     H_    0.056698 0.158210 0.522411 0.250616
H55   H     H_    0.941025 0.092385 0.588678 0.245803
H56   H     H_    0.021024 0.970228 0.507665 0.221187
H57   H     H_    0.027763 0.991262 0.614603 0.223058
H58   H     H_    0.205278 0.120474 0.585274 0.203483
H59   H     H_    0.200586 0.091332 0.477302 0.198450
C68   C     C_3   0.834888 0.937694 0.401098 -0.415828
C69   C     C_3   0.947642 0.971897 0.357906 -0.374903
C70   C     C_3   0.981038 0.880696 0.322404 -0.841266
H60   H     H_    0.970948 0.840347 0.372108 0.249668
H61   H     H_    0.935837 0.826476 0.275630 0.253720
H62   H     H_    0.062818 0.907784 0.292517 0.243364
H63   H     H_    0.958975 0.010926 0.306964 0.227900
H64   H     H_    0.997182 0.025240 0.401804 0.222413
H65   H     H_    0.823773 0.899353 0.452442 0.195378
H66   H     H_    0.791681 0.880517 0.354123 0.200511

loop_
_geom_bond_atom_site_label_1
_geom_bond_atom_site_label_2
_ccdc_geom_bond_type
C15   C18   A    
C58   H32   S    
C49   H14   S    
C29   C33   A    
C27   C29   A    
C2    O4    A    
C61   H39   S    
C4    C8    A    
C67   H55   S    
C59   H44   S    
C54   H28   S    
C39   C41   A    
Cu1   Cu2   S    
C26   C53   S    
C56   H38   S    
C21   C31   A    
C68   H65   S    
C57   H35   S    
C22   C32   A    
Cu1   O4    S    
C35   C37   A    
Cu2   N1    S    
C3    C7    A    
C70   H61   S    
Cu2   O7    S    
C63   H50   S    
C55   H26   S    
C35   H11   S    
C1    O1    A    
C15   C16   A    
C46   C52   S    
C33   C36   A    
C18   C20   A    
Cu1   O1    S    
C34   C35   A    
C6    C68   S    
C60   C61   S    
C41   H1    S    
C64   H48   S    
C52   H15   S    
C42   H2    S    
C11   C15   A    
C25   C56   S    
C65   H59   S    
C12   C16   A    
C44   C46   A    
C16   C17   A    
C51   H16   S    
C32   C38   A    
C61   H41   S    
C50   H13   S    
C5    C13   A    
C44   C59   S    
C5    C65   S    
C58   H33   S    
C23   O7    A    
C41   C43   A    
C42   C44   A    
C48   H18   S    
Cu2   O3    S    
C18   H4    S    
C59   H45   S    
C45   C47   A    
C46   C48   A    
C68   H66   S    
C64   H47   S    
C13   C19   A    
C62   H52   S    
C51   C52   D    
C14   C20   A    
C19   H19   S    
Cu1   N2    S    
C69   C70   S    
C47   C49   A    
C70   H62   S    
C69   H64   S    
C55   H25   S    
Cu2   O6    S    
C30   C34   A    
C63   H49   S    
C17   C19   A    
C6    C8    A    
C26   N2    A    
C31   C37   A    
C53   H30   S    
C1    C3    S    
C2    C4    S    
C3    C9    A    
C27   H8    S    
C6    C14   A    
C43   C45   A    
C10   H21   S    
C56   C57   S    
C62   C63   S    
C33   C34   A    
C20   H20   S    
C61   H40   S    
C9    C11   A    
C47   H17   S    
C64   H46   S    
C37   H5    S    
C10   C12   A    
C7    H24   S    
C38   H6    S    
C9    H22   S    
C66   H56   S    
C12   C14   A    
C58   H34   S    
C23   O5    A    
C8    H23   S    
C2    O2    A    
C4    C10   A    
C67   H53   S    
C60   H43   S    
Cu2   O2    S    
C36   C38   A    
C63   C64   S    
C5    C7    A    
C65   C66   S    
C21   C25   A    
C39   C49   A    
C25   N1    A    
C57   H36   S    
C24   O8    A    
C66   H57   S    
C40   C42   A    
C67   H54   S    
C69   H63   S    
C68   C69   S    
C54   H29   S    
C1    O3    A    
C56   H37   S    
C27   N1    A    
C53   H31   S    
C28   C30   A    
C66   C67   S    
C29   C31   A    
C70   H60   S    
C28   H7    S    
C55   H27   S    
C30   C32   A    
C11   C13   A    
C54   C55   S    
C23   C39   S    
C48   C50   A    
C57   C58   S    
C24   C40   S    
Cu1   O8    S    
C36   H12   S    
C28   N2    A    
C21   H9    S    
C22   H10   S    
C40   C50   A    
C65   H58   S    
C22   C26   A    
C17   H3    S    
C45   C51   S    
Cu1   O5    S    
C53   C54   S    
C59   C60   S    
C24   O6    A    
C60   H42   S    
C43   C62   S    
C62   H51   S    
