data_mof_unit_64828.cif
_audit_creation_date              2012-12-10T21:19:08-0500
_audit_creation_method            fapswitch 2.2
_symmetry_space_group_name_H-M    P1
_symmetry_Int_Tables_number       1
_space_group_crystal_system       triclinic
_cell_length_a                    15.751798
_cell_length_b                    17.601806
_cell_length_c                    16.752075
_cell_angle_alpha                 90.141525
_cell_angle_beta                  90.104779
_cell_angle_gamma                 90.064829
_cell_volume                      4644.6569321

loop_
_atom_site_label
_atom_site_type_symbol
_atom_type_description
_atom_site_fract_x
_atom_site_fract_y
_atom_site_fract_z
_atom_type_partial_charge
C1    C     C_R   0.502740 0.353561 0.499913 0.969312
C2    C     C_R   0.497262 0.646439 0.500087 0.969326
C3    C     C_R   0.440552 0.768726 0.554905 -0.131021
C4    C     C_R   0.559463 0.231279 0.445097 -0.131024
C5    C     C_R   0.492442 0.728595 0.500161 -0.168891
C6    C     C_R   0.507571 0.271406 0.499842 -0.168900
C7    C     C_R   0.543266 0.767321 0.445366 -0.242897
C8    C     C_R   0.456767 0.232676 0.554649 -0.242886
C9    C     C_R   0.545591 0.845786 0.445280 0.403999
C10   C     C_R   0.454462 0.154211 0.554747 0.403996
C11   C     C_R   0.496657 0.886000 0.500643 -0.089915
C12   C     C_R   0.503395 0.114000 0.499379 -0.089919
C13   C     C_1   0.499106 0.966281 0.500194 0.195015
C14   C     C_1   0.500957 0.033719 0.499833 0.195013
C15   C     C_R   0.447811 0.448738 0.831567 0.338441
C16   C     C_R   0.552217 0.551238 0.168433 0.338439
C17   C     C_R   0.449307 0.450188 0.747345 -0.003828
C18   C     C_R   0.550720 0.549790 0.252655 -0.003826
C19   C     C_R   0.550271 0.549585 0.748636 0.021930
C20   C     C_R   0.449702 0.450437 0.251364 0.021916
C21   C     C_R   0.550809 0.550157 0.832778 -0.263194
C22   C     C_R   0.449164 0.449865 0.167222 -0.263191
C23   C     C_R   0.337605 0.499893 0.499918 0.938380
C24   C     C_R   0.662395 0.500107 0.500082 0.938374
C25   C     C_R   0.499284 0.499402 0.875552 0.019482
C26   C     C_R   0.500716 0.500598 0.124448 0.019477
C27   C     C_1   0.499818 0.499857 0.963451 0.115774
C28   C     C_1   0.500182 0.500143 0.036549 0.115773
C29   C     C_3   0.971967 0.438122 0.540173 -0.331232
C30   C     C_3   0.028033 0.561878 0.459826 -0.331236
C31   C     C_3   0.027794 0.436999 0.464317 0.378805
C32   C     C_3   0.972206 0.563001 0.535682 0.378806
C33   C     C_1   0.248889 0.500144 0.499750 -0.084144
C34   C     C_1   0.751111 0.499856 0.500250 -0.084134
C35   C     C_3   0.028241 0.502226 0.575042 0.385097
C36   C     C_3   0.971759 0.497774 0.424958 0.385097
C37   C     C_3   0.083067 0.500345 0.499678 -0.141745
C38   C     C_3   0.916933 0.499655 0.500321 -0.141745
C39   C     C_1   0.173757 0.500326 0.499645 0.157283
C40   C     C_1   0.826242 0.499674 0.500355 0.157287
C41   C     C_R   0.444300 0.848359 0.555587 0.300701
C42   C     C_R   0.555731 0.151645 0.444421 0.300721
H1    H     H_    0.590240 0.588936 0.716380 0.158232
H2    H     H_    0.409712 0.411104 0.283620 0.158240
H3    H     H_    0.591305 0.590054 0.864209 0.203100
H4    H     H_    0.408645 0.409986 0.135791 0.203103
H5    H     H_    0.947814 0.387772 0.572859 0.232922
H6    H     H_    0.052186 0.612228 0.427141 0.232922
H7    H     H_    0.582651 0.736312 0.403461 0.199856
H8    H     H_    0.417382 0.263681 0.596557 0.199859
H9    H     H_    0.409713 0.411257 0.713764 0.169648
H10   H     H_    0.590335 0.588704 0.286236 0.169655
N1    N     N_R   0.500020 0.500030 0.707230 -0.123567
N2    N     N_R   0.499980 0.499970 0.292770 -0.123572
O1    O     O_R   0.500000 0.389130 0.566570 -0.627949
O2    O     O_R   0.500000 0.610870 0.433430 -0.627938
O3    O     O_R   0.499990 0.389100 0.433480 -0.608480
O4    O     O_R   0.500010 0.610900 0.566520 -0.608479
O5    O     O_R   0.376780 0.500010 0.566530 -0.584928
O6    O     O_R   0.623220 0.499990 0.433470 -0.584945
O7    O     O_R   0.376780 0.499980 0.433450 -0.622878
O8    O     O_R   0.623220 0.500020 0.566550 -0.622866
Zn1   Zn    Zn3+2 0.500000 0.500020 0.588860 1.010209
Zn2   Zn    Zn3+2 0.500000 0.499980 0.411140 1.010200
Cl1   Cl    Cl    0.066676 0.353480 0.416619 -0.444361
Cl2   Cl    Cl    0.933324 0.646520 0.583381 -0.444359
Cl3   Cl    Cl    0.932206 0.494486 0.325322 -0.426263
Cl4   Cl    Cl    0.067794 0.505514 0.674677 -0.426272
Cl5   Cl    Cl    0.380868 0.901636 0.622713 -0.480156
Cl6   Cl    Cl    0.619158 0.098374 0.377287 -0.480149
C43   C     C_2   0.380003 0.729475 0.609008 0.532634
H11   H     H_    0.366488 0.752741 0.667627 0.129553
O9    O     O_2   0.341904 0.672538 0.587520 -0.550005
C44   C     C_2   0.620001 0.270537 0.390988 0.532662
H12   H     H_    0.633503 0.247279 0.332363 0.129540
O10   O     O_2   0.658109 0.327467 0.412479 -0.550001
Cl7   Cl    Cl    0.611322 0.891898 0.375440 -0.431851
Cl8   Cl    Cl    0.388757 0.108094 0.624604 -0.431844
Cl9   Cl    Cl    0.381123 0.383119 0.879799 -0.503097
Cl10  Cl    Cl    0.618941 0.616829 0.120201 -0.503091

loop_
_geom_bond_atom_site_label_1
_geom_bond_atom_site_label_2
_ccdc_geom_bond_type
C38   C40   S    
C17   N1    A    
C11   C13   S    
C17   H9    S    
C10   Cl8   S    
C36   Cl3   S    
C18   H10   S    
C23   O5    A    
C33   C39   T    
C44   O10   D    
C29   H5    S    
C34   C40   T    
C30   H6    S    
C35   C37   S    
C15   C25   A    
C42   Cl6   S    
C31   Cl1   S    
C12   C42   A    
C15   Cl9   S    
C23   C33   S    
O1    Zn1   S    
C29   C38   S    
O2    Zn2   S    
C32   C38   S    
C4    C44   S    
C19   N1    A    
C13   C14   T    
C20   H2    S    
C19   H1    S    
C21   H3    S    
C16   C26   A    
C44   H12   S    
C1    C6    S    
C32   C35   S    
C7    H7    S    
C20   N2    A    
C5    C7    A    
C6    C8    A    
C24   C34   S    
C31   C37   S    
C30   C37   S    
C16   Cl10  S    
O7    Zn2   S    
C3    C43   S    
O8    Zn1   S    
C1    O3    A    
C24   O6    A    
C16   C18   A    
C9    Cl7   S    
C9    C11   A    
C10   C12   A    
C4    C6    A    
C22   H4    S    
C20   C22   A    
C2    C5    S    
C8    H8    S    
O3    Zn2   S    
C32   Cl2   S    
O4    Zn1   S    
C7    C9    A    
C21   C25   A    
C3    C41   A    
C24   O8    A    
C19   C21   A    
O5    Zn1   S    
C8    C10   A    
C12   C14   S    
C3    C5    A    
C2    O4    A    
C15   C17   A    
C25   C27   S    
C29   C35   S    
C26   C28   S    
C30   C36   S    
O6    Zn2   S    
C36   C38   S    
C1    O1    A    
C43   H11   S    
C37   C39   S    
C2    O2    A    
C30   C32   S    
N1    Zn1   S    
C4    C42   A    
C35   Cl4   S    
C11   C41   A    
C18   N2    A    
C23   O7    A    
N2    Zn2   S    
C29   C31   S    
C22   C26   A    
C43   O9    D    
C27   C28   T    
C31   C36   S    
C41   Cl5   S    
