data_mof_unit_67088.cif
_audit_creation_date              2012-12-11T17:41:25-0500
_audit_creation_method            fapswitch 2.2
_symmetry_space_group_name_H-M    P1
_symmetry_Int_Tables_number       1
_space_group_crystal_system       triclinic
_cell_length_a                    8.17782
_cell_length_b                    12.686548
_cell_length_c                    14.225971
_cell_angle_alpha                 93.036852
_cell_angle_beta                  90.511401
_cell_angle_gamma                 98.520861
_cell_volume                      1457.36905128

loop_
_atom_site_label
_atom_site_type_symbol
_atom_type_description
_atom_site_fract_x
_atom_site_fract_y
_atom_site_fract_z
_atom_type_partial_charge
Ba1   Ba    Ba6+2 0.855630 0.555280 0.454520 1.686997
Ba2   Ba    Ba6+2 0.334200 0.444810 0.545490 1.662006
C1    C     C_3   0.601518 0.945391 0.175381 -0.400997
C2    C     C_R   0.183523 0.499750 0.195819 0.078338
C3    C     C_R   0.336672 0.555022 0.226106 -0.217332
C4    C     C_3   0.145331 0.804740 0.195842 0.337709
C5    C     C_R   0.451214 0.599868 0.162293 0.001114
C6    C     C_R   0.407673 0.600902 0.067234 -0.159659
C7    C     C_R   0.250455 0.551992 0.034507 -0.006824
C8    C     C_R   0.139318 0.497015 0.097903 -0.068100
C9    C     C_R   0.053141 0.501638 0.902171 -0.058249
C10   C     C_R   0.941985 0.446235 0.965709 0.015467
C11   C     C_R   0.007354 0.499785 0.804413 0.045375
C12   C     C_3   0.649494 0.857506 0.233901 0.339680
C13   C     C_R   0.853528 0.445070 0.774343 -0.311367
C14   C     C_R   0.739481 0.398660 0.837931 -0.004333
C15   C     C_R   0.783608 0.397188 0.933487 0.058381
C16   C     C_3   0.131997 0.842713 0.096779 -0.313522
C17   C     C_R   0.205608 0.555766 0.938811 -0.027351
C18   C     C_R   0.762812 0.176603 0.540886 -0.277594
C19   C     C_R   0.429820 0.813071 0.461749 -0.285948
C20   C     C_R   0.405373 0.994727 0.430806 -0.105319
C21   C     C_R   0.341275 0.887220 0.424451 -0.006968
C22   C     C_R   0.576439 0.846202 0.513266 0.064810
C23   C     C_3   0.486341 0.298212 0.253175 0.846623
C24   C     C_R   0.640658 0.956868 0.524277 -0.057943
C25   C     C_R   0.554290 0.031457 0.480741 -0.060957
C26   C     C_R   0.617601 0.141228 0.489566 0.016730
C27   C     C_R   0.852687 0.104580 0.580103 -0.006778
C28   C     C_3   0.224956 0.762668 0.656733 0.279893
C29   C     C_R   0.789554 0.995631 0.575098 -0.090044
C30   C     C_3   0.241247 0.882177 0.678576 -0.339639
C31   C     C_3   0.969419 0.237827 0.345010 0.321911
C32   C     C_3   0.946111 0.118158 0.322817 -0.367754
C33   C     C_3   0.714281 0.672746 0.737364 0.304623
C34   C     C_3   0.400654 0.257841 0.160074 -0.325317
C35   C     C_3   0.730629 0.696190 0.843367 -0.373141
C36   C     C_3   0.044421 0.195228 0.806895 0.424287
C37   C     C_3   0.065012 0.160944 0.906820 0.501692
C38   C     C_3   0.539758 0.141657 0.764878 0.306393
C39   C     C_3   0.586461 0.054312 0.824500 -0.377133
C40   C     C_R   0.988233 0.442433 0.061374 -0.025034
F1    F     F_    0.385984 0.359739 0.301591 -0.737363
F2    F     F_    0.983344 0.058449 0.915531 -0.709214
H1    H     H_    0.740196 0.893266 0.289491 0.077373
H2    H     H_    0.831539 0.650480 0.710581 0.007863
H3    H     H_    0.612378 0.605543 0.723034 0.064934
H4    H     H_    0.546128 0.003895 0.221118 0.093684
H5    H     H_    0.838253 0.758992 0.860008 0.154240
H6    H     H_    0.748576 0.623290 0.879307 0.051562
H7    H     H_    0.616644 0.724187 0.870472 0.120082
H8    H     H_    0.536359 0.820280 0.269122 -0.059110
H9    H     H_    0.509854 0.910396 0.120101 0.115763
H10   H     H_    0.605755 0.348064 0.239035 -0.001496
H11   H     H_    0.280866 0.207407 0.173129 0.129415
H12   H     H_    0.330599 0.905401 0.737556 0.115785
H13   H     H_    0.376249 0.326221 0.119330 0.052273
H14   H     H_    0.479363 0.209130 0.118504 0.066675
H15   H     H_    0.712049 0.986946 0.140683 0.150174
H16   H     H_    0.171265 0.783274 0.044919 0.062806
H17   H     H_    0.117475 0.275701 0.801498 -0.006918
H18   H     H_    0.911844 0.199767 0.794166 -0.132541
H19   H     H_    0.013071 0.216287 0.957476 -0.068729
H20   H     H_    0.197983 0.162951 0.924296 0.052669
H21   H     H_    0.653618 0.179183 0.730562 -0.036908
H22   H     H_    0.451069 0.105276 0.708547 0.084369
H23   H     H_    0.285837 0.925996 0.616361 0.073947
H24   H     H_    0.678470 0.089645 0.879455 0.165677
H25   H     H_    0.640666 0.994575 0.779482 0.111717
H26   H     H_    0.061235 0.728014 0.200015 0.089126
H27   H     H_    0.475634 0.014118 0.859846 0.130612
H28   H     H_    0.370750 0.558423 0.299980 0.113323
H29   H     H_    0.496705 0.639023 0.019065 0.075042
H30   H     H_    0.818090 0.443994 0.700799 0.071470
H31   H     H_    0.904629 0.396827 0.107446 0.124073
H32   H     H_    0.291761 0.601087 0.893649 0.099674
H33   H     H_    0.333806 0.048427 0.398603 0.102487
H34   H     H_    0.119402 0.904243 0.698729 0.156404
H35   H     H_    0.860416 0.942952 0.609142 0.106880
H36   H     H_    0.811739 0.260821 0.545179 0.054116
H37   H     H_    0.274558 0.791532 0.208403 -0.075422
H38   H     H_    0.379043 0.729206 0.455498 0.067002
H39   H     H_    0.002318 0.852543 0.080422 0.173489
H40   H     H_    0.212507 0.920511 0.090597 0.121904
H41   H     H_    0.346251 0.741579 0.636380 0.002067
H42   H     H_    0.134678 0.741573 0.597647 0.074946
H43   H     H_    0.634843 0.267771 0.977287 0.186566
H44   H     H_    0.562212 0.385826 0.997424 0.185207
H45   H     H_    0.852588 0.261560 0.370337 -0.045830
H46   H     H_    0.065876 0.257357 0.400848 0.100026
H47   H     H_    0.847056 0.096259 0.268739 0.109223
H48   H     H_    0.911029 0.074842 0.386798 0.082503
H49   H     H_    0.063017 0.094157 0.295945 0.147539
N1    N     N_3   0.667465 0.348205 0.998781 -0.518437
O1    O     O_2   0.887370 0.460630 0.272300 -0.485868
O2    O     O_2   0.193805 0.111249 0.567976 -0.494250
O3    O     O_3   0.100933 0.121194 0.742649 -0.585163
O4    O     O_3   0.129410 0.451380 0.388510 -0.449079
O5    O     O_3   0.575400 0.626570 0.547370 -0.487681
O6    O     O_2   0.344320 0.238700 0.455090 -0.420683
O7    O     O_3   0.515292 0.209607 0.302661 -0.691284
O8    O     O_2   0.399480 0.408259 0.834116 -0.500255
O9    O     O_3   0.463149 0.212959 0.822569 -0.602343
O10   O     O_3   0.670210 0.653170 0.329170 -0.472354
O11   O     O_2   0.790066 0.591099 0.164925 -0.490235
O12   O     O_3   0.680669 0.764783 0.695714 -0.637739
O13   O     O_3   0.014701 0.289136 0.262585 -0.620090
O14   O     O_3   0.723376 0.785989 0.174895 -0.592828
O15   O     O_2   0.845380 0.761330 0.544970 -0.474731
O16   O     O_3   0.088930 0.704860 0.376040 -0.499943
O17   O     O_2   0.002131 0.889137 0.435254 -0.485148
O18   O     O_3   0.100136 0.882047 0.261009 -0.599995
O19   O     O_2   0.302330 0.539400 0.727760 -0.466766
O20   O     O_3   0.060300 0.548700 0.611500 -0.502511
O21   O     O_3   0.519500 0.346920 0.670840 -0.471035
O22   O     O_3   0.173207 0.710884 0.737947 -0.634565
O23   O     O_3   0.614310 0.373510 0.452640 -0.439375
O24   O     O_3   0.100780 0.295230 0.623970 -0.484933
P1    P     P_3+3 0.054400 0.427280 0.286870 1.051192
P2    P     P_3+3 0.668300 0.742890 0.573060 0.971289
P3    P     P_3+3 0.133438 0.842736 0.374933 0.945378
P4    P     P_3+3 0.135310 0.572810 0.713130 0.974362
P5    P     P_3+3 0.061059 0.156320 0.628159 0.959677
P6    P     P_3+3 0.658927 0.655272 0.206664 0.974356
P7    P     P_3+3 0.528234 0.240320 0.424355 1.010178
P8    P     P_3+3 0.530716 0.344003 0.792712 0.944979

loop_
_geom_bond_atom_site_label_1
_geom_bond_atom_site_label_2
_ccdc_geom_bond_type
C11   P4    S    
O17   P3    D    
C9    C11   A    
C31   O13   S    
C32   H49   S    
C5    P6    S    
C33   H3    S    
C23   F1    S    
Ba2   O24   S    
C5    C6    A    
C21   P3    S    
C28   O22   S    
C37   H20   S    
C9    C17   A    
C24   C25   A    
O21   P8    S    
O22   P4    S    
C17   H32   S    
C33   C35   S    
C22   C24   A    
C3    H28   S    
C34   H14   S    
O16   P3    S    
C36   C37   S    
C35   H7    S    
Ba2   O19   S    
C8    C40   A    
C13   C14   A    
H43   N1    S    
C1    H4    S    
Ba1   Ba2   S    
Ba1   P1    S    
O9    P8    S    
C32   H47   S    
C10   C40   A    
Ba1   O15   S    
O5    P2    S    
C7    C17   A    
C12   H8    S    
O19   P4    D    
C14   C15   A    
C10   C15   A    
O7    P7    S    
C2    P1    S    
C28   H42   S    
C7    C8    A    
C39   H27   S    
C36   H17   S    
C12   O14   S    
Ba2   O6    S    
C24   C29   A    
C4    H37   S    
C38   H22   S    
Ba1   O5    S    
O14   P6    S    
C36   O3    S    
O13   P1    S    
Ba2   O23   S    
C16   H39   S    
C12   H1    S    
C18   C27   A    
Ba2   P4    S    
C4    C16   S    
H44   N1    S    
C22   P2    S    
C18   H36   S    
O6    P7    D    
O4    P1    S    
C23   H10   S    
C34   H13   S    
C3    C5    A    
C6    C7    A    
C18   C26   A    
O1    P1    D    
O11   P6    D    
Ba1   P2    S    
C31   H45   S    
Ba1   O16   S    
C35   H5    S    
Ba2   O21   S    
C16   H40   S    
Ba1   O1    S    
C31   C32   S    
C40   H31   S    
Ba1   O23   S    
C28   H41   S    
Ba1   O10   S    
C1    C12   S    
C30   H23   S    
C16   H16   S    
C38   C39   S    
Ba2   O5    S    
Ba2   O20   S    
C20   C25   A    
C11   C13   A    
Ba1   O20   S    
C2    C8    A    
C26   P7    S    
C39   H25   S    
C4    H26   S    
C39   H24   S    
O2    P5    D    
O12   P2    S    
C4    O18   S    
C20   H33   S    
C2    C3    A    
O8    P8    D    
Ba1   O4    S    
C9    C10   A    
C29   H35   S    
C37   F2    S    
O10   P6    S    
C37   H19   S    
C38   H21   S    
C19   C21   A    
O18   P3    S    
O3    P5    S    
C34   H11   S    
C31   H46   S    
C38   O9    S    
C28   C30   S    
C35   H6    S    
C1    H9    S    
C23   O7    S    
C14   P8    S    
C27   P5    S    
C6    H29   S    
O24   P5    S    
C32   H48   S    
C23   C34   S    
C30   H34   S    
O20   P4    S    
C13   H30   S    
C19   H38   S    
Ba2   O4    S    
C27   C29   A    
C19   C22   A    
C25   C26   A    
C33   O12   S    
C20   C21   A    
C15   N1    S    
C33   H2    S    
O23   P7    S    
C30   H12   S    
O15   P2    D    
C36   H18   S    
C1    H15   S    
