data_mof_unit_65100.cif
_audit_creation_date              2012-12-11T17:18:02-0500
_audit_creation_method            fapswitch 2.2
_symmetry_space_group_name_H-M    P1
_symmetry_Int_Tables_number       1
_space_group_crystal_system       triclinic
_cell_length_a                    7.303419
_cell_length_b                    12.083582
_cell_length_c                    27.799355
_cell_angle_alpha                 90.000165
_cell_angle_beta                  93.334022
_cell_angle_gamma                 90.000408
_cell_volume                      2449.18136441

loop_
_atom_site_label
_atom_site_type_symbol
_atom_type_description
_atom_site_fract_x
_atom_site_fract_y
_atom_site_fract_z
_atom_type_partial_charge
O1    O     O_R   0.366550 0.651960 0.572490 -0.532583
O2    O     O_R   0.633450 0.348040 0.427510 -0.533694
O3    O     O_R   0.133450 0.151960 0.427510 -0.532601
O4    O     O_R   0.866550 0.848040 0.572490 -0.533699
O5    O     O_R   0.712370 0.639230 0.672140 -0.526809
O6    O     O_R   0.287630 0.360770 0.327860 -0.537323
O7    O     O_R   0.787630 0.139230 0.327860 -0.526789
O8    O     O_R   0.212370 0.860770 0.672140 -0.537313
O9    O     O_R   0.882770 0.848480 0.672480 -0.528196
O10   O     O_R   0.117230 0.151520 0.327520 -0.526406
O11   O     O_R   0.617230 0.348480 0.327520 -0.528173
O12   O     O_R   0.382770 0.651520 0.672480 -0.526397
C1    C     C_R   0.547491 0.611053 0.687008 0.758626
C2    C     C_R   0.452519 0.388869 0.312947 0.767676
C3    C     C_R   0.952507 0.111052 0.312992 0.758567
C4    C     C_R   0.047482 0.888866 0.687054 0.767692
O13   O     O_R   0.696320 0.639050 0.572850 -0.538312
O14   O     O_R   0.303680 0.360950 0.427150 -0.537969
O15   O     O_R   0.803680 0.139050 0.427150 -0.538316
O16   O     O_R   0.196320 0.860950 0.572850 -0.537951
C5    C     C_R   0.524502 0.613419 0.556445 0.752150
C6    C     C_R   0.475494 0.386547 0.443568 0.751056
C7    C     C_R   0.975497 0.113417 0.443555 0.752112
C8    C     C_R   0.024506 0.886546 0.556431 0.751101
O17   O     O_3   0.541150 0.818870 0.622480 -0.382669
O18   O     O_3   0.458850 0.181130 0.377520 -0.375755
O19   O     O_3   0.958850 0.318870 0.377520 -0.382672
O20   O     O_3   0.041150 0.681130 0.622480 -0.375763
V1    V     V_3+5 0.815990 0.737490 0.622490 1.513456
V2    V     V_3+5 0.184010 0.262510 0.377510 1.497819
V3    V     V_3+5 0.684010 0.237490 0.377510 1.513475
V4    V     V_3+5 0.315990 0.762510 0.622490 1.497896
C9    C     C_R   0.010902 0.170345 0.885763 0.567715
C10   C     C_R   0.984808 0.832190 0.113851 0.553083
C11   C     C_R   0.488979 0.670357 0.114238 0.567702
C12   C     C_R   0.515057 0.332215 0.886158 0.553110
O21   O     O_2   0.984395 0.061094 0.892655 -0.524289
O22   O     O_2   0.006510 0.941887 0.107068 -0.549005
O23   O     O_2   0.515474 0.561105 0.107346 -0.524274
O24   O     O_2   0.493317 0.441910 0.892940 -0.548996
N1    N     N_R   0.046632 0.209399 0.841014 -0.539751
N2    N     N_R   0.950247 0.792174 0.158499 -0.528205
N3    N     N_R   0.453288 0.709414 0.158989 -0.539779
N4    N     N_R   0.549674 0.292206 0.841512 -0.528200
C13   C     C_R   0.068928 0.321108 0.833985 0.535275
C14   C     C_R   0.931438 0.680274 0.165390 0.542798
C15   C     C_R   0.431005 0.821122 0.166019 0.535284
C16   C     C_R   0.568521 0.180307 0.834622 0.542813
C17   C     C_R   0.950401 0.151881 0.757076 -0.036639
C18   C     C_R   0.047634 0.848550 0.242396 -0.059708
C19   C     C_R   0.549614 0.651879 0.242918 -0.036610
C20   C     C_R   0.452404 0.348545 0.757603 -0.059723
C21   C     C_R   0.946226 0.074909 0.718981 -0.073615
C22   C     C_R   0.052943 0.925077 0.280676 -0.061026
C23   C     C_R   0.553829 0.574898 0.281010 -0.073641
C24   C     C_R   0.447149 0.425046 0.719313 -0.061137
C25   C     C_R   0.154112 0.957396 0.767645 -0.154951
C26   C     C_R   0.843870 0.043027 0.232596 -0.133261
C27   C     C_R   0.345811 0.457424 0.232366 -0.154859
C28   C     C_R   0.656004 0.543081 0.767422 -0.133366
C29   C     C_R   0.154915 0.034204 0.805130 -0.060249
C30   C     C_R   0.839738 0.966048 0.195151 -0.062366
C31   C     C_R   0.344991 0.534234 0.194881 -0.060138
C32   C     C_R   0.660128 0.466109 0.804869 -0.062439
C33   C     C_R   0.052501 0.132340 0.800732 0.309903
C34   C     C_R   0.943162 0.868205 0.199078 0.260656
C35   C     C_R   0.447444 0.632356 0.199272 0.309793
C36   C     C_R   0.556776 0.368239 0.800933 0.260703
C37   C     C_R   0.024917 0.357583 0.918824 -0.040787
C38   C     C_R   0.979371 0.645118 0.080648 -0.039801
C39   C     C_R   0.474936 0.857594 0.081176 -0.040775
C40   C     C_R   0.520489 0.145141 0.919357 -0.039827
C41   C     C_R   0.995345 0.243158 0.924624 -0.028181
C42   C     C_R   0.003446 0.759983 0.074938 -0.023304
C43   C     C_R   0.504510 0.743169 0.075375 -0.028181
C44   C     C_R   0.496403 0.260004 0.925069 -0.023309
C45   C     C_R   0.941798 0.203386 0.968639 -0.145982
C46   C     C_R   0.054604 0.800977 0.030948 -0.129680
C47   C     C_R   0.558032 0.703397 0.031358 -0.145967
C48   C     C_R   0.445221 0.300992 0.969058 -0.129679
C49   C     C_R   0.066835 0.397587 0.873100 -0.087296
C50   C     C_R   0.940734 0.603816 0.126461 -0.120694
C51   C     C_R   0.433039 0.897596 0.126901 -0.087318
C52   C     C_R   0.559165 0.103843 0.873546 -0.120678
C53   C     C_R   0.048971 0.975611 0.724600 -0.108622
C54   C     C_R   0.950445 0.024511 0.275367 -0.145709
C55   C     C_R   0.451026 0.475618 0.275401 -0.108686
C56   C     C_R   0.549541 0.524519 0.724635 -0.145697
H1    H     H_    0.231890 0.881534 0.772830 0.143871
H2    H     H_    0.768152 0.119545 0.227608 0.197525
H3    H     H_    0.267995 0.381575 0.227187 0.143822
H4    H     H_    0.731657 0.619622 0.772416 0.197526
H5    H     H_    0.232137 0.015483 0.838269 0.125712
H6    H     H_    0.760397 0.984872 0.162310 0.172371
H7    H     H_    0.267726 0.515523 0.161748 0.125694
H8    H     H_    0.739407 0.484959 0.837716 0.172409
H9    H     H_    0.908141 0.116913 0.973490 0.177042
H10   H     H_    0.085047 0.887969 0.026268 0.166895
H11   H     H_    0.591685 0.616925 0.026505 0.177043
H12   H     H_    0.414771 0.387983 0.973738 0.166897
C57   C     C_R   0.976514 0.456755 0.046626 -0.047684
C58   C     C_R   0.031238 0.546828 0.952498 0.013888
C59   C     C_R   0.523327 0.956775 0.953375 -0.047690
C60   C     C_R   0.468598 0.046841 0.047504 0.013902
C61   C     C_R   0.029340 0.617279 0.994216 0.041132
C62   C     C_R   0.974748 0.386899 0.004923 0.021170
C63   C     C_R   0.470491 0.117294 0.005787 0.041129
C64   C     C_R   0.525082 0.886914 0.995077 0.021166
C65   C     C_R   0.992274 0.572688 0.040253 0.051755
C66   C     C_R   0.012715 0.430888 0.958953 0.068841
C67   C     C_R   0.507567 0.072707 0.959750 0.051746
C68   C     C_R   0.487123 0.930900 0.041047 0.068849
C69   C     C_R   0.968677 0.415213 0.094829 0.013588
C70   C     C_R   0.048539 0.586839 0.904273 -0.087366
C71   C     C_R   0.531179 0.915238 0.905172 0.013537
C72   C     C_R   0.451296 0.086849 0.095730 -0.087393
C73   C     C_R   0.921995 0.487602 0.132348 -0.024161
C74   C     C_R   0.090630 0.513207 0.866934 -0.048726
C75   C     C_R   0.577891 0.987629 0.867656 -0.024181
C76   C     C_R   0.409219 0.013212 0.133067 -0.048731
O25   O     O_2   0.907953 0.643016 0.210109 -0.564304
O26   O     O_2   0.086834 0.358696 0.788980 -0.546171
O27   O     O_2   0.592119 0.143057 0.789908 -0.564338
O28   O     O_2   0.413189 0.858720 0.211027 -0.546014
C77   C     C_R   0.923026 0.274573 0.006886 -0.181459
C78   C     C_R   0.076372 0.730582 0.992581 -0.117024
C79   C     C_R   0.576786 0.774586 0.993111 -0.181455
C80   C     C_R   0.423449 0.230593 0.007423 -0.117001
H13   H     H_    0.129143 0.773904 0.246069 0.198833
H14   H     H_    0.869860 0.226802 0.752920 0.201181
H15   H     H_    0.370942 0.273881 0.753926 0.198883
H16   H     H_    0.630185 0.726791 0.247067 0.201218
H17   H     H_    0.864463 0.238856 0.037704 0.199371
H18   H     H_    0.136276 0.768390 0.962543 0.114364
H19   H     H_    0.635331 0.738868 0.962291 0.199386
H20   H     H_    0.363540 0.268397 0.037461 0.114383
C81   C     C_1   0.992676 0.033278 0.483346 -0.161608
C82   C     C_1   0.007335 0.966666 0.516631 -0.161236
C83   C     C_1   0.507324 0.533281 0.516653 -0.161664
C84   C     C_1   0.492666 0.466668 0.483368 -0.161240
C85   C     C_2   0.163418 0.897035 0.325634 0.824545
O29   O     O_2   0.298185 0.837278 0.323871 -0.541391
O30   O     O_R   0.111140 0.935569 0.370191 -0.672505
H21   H     H_    0.197042 0.909970 0.397950 0.288210
C86   C     C_2   0.837265 0.102627 0.673762 0.806720
O31   O     O_2   0.701105 0.161259 0.675197 -0.542340
O32   O     O_R   0.892582 0.065103 0.629352 -0.673175
H22   H     H_    0.807710 0.090571 0.601368 0.288933
C87   C     C_2   0.336919 0.396901 0.674324 0.824775
O33   O     O_2   0.202492 0.336905 0.676030 -0.541512
O34   O     O_R   0.389102 0.435584 0.629798 -0.672561
H23   H     H_    0.303513 0.409820 0.602008 0.288218
C88   C     C_2   0.662943 0.602569 0.326209 0.806714
O35   O     O_2   0.799151 0.661140 0.324742 -0.542312
O36   O     O_R   0.607760 0.565041 0.370634 -0.673203
H24   H     H_    0.692816 0.590394 0.398596 0.288963
C89   C     C_2   0.859872 0.439665 0.177799 0.611163
H25   H     H_    0.943925 0.446467 0.211096 0.037429
O37   O     O_2   0.715003 0.389497 0.177868 -0.492405
C90   C     C_2   0.161885 0.558046 0.821743 0.464922
H26   H     H_    0.291589 0.528685 0.810079 0.114262
O38   O     O_2   0.074443 0.624253 0.796493 -0.549662
C91   C     C_2   0.640009 0.939692 0.822205 0.611197
H27   H     H_    0.555977 0.946519 0.788906 0.037407
O39   O     O_2   0.784853 0.889499 0.822139 -0.492382
C92   C     C_2   0.337938 0.058044 0.178255 0.464974
H28   H     H_    0.208166 0.028740 0.189895 0.114204
O40   O     O_2   0.425432 0.124179 0.203528 -0.549625
C93   C     C_2   0.048230 0.303955 0.108154 0.386765
H29   H     H_    0.132059 0.261038 0.083598 0.012738
O41   O     O_2   0.025029 0.258852 0.146617 -0.528082
C94   C     C_2   0.996107 0.700965 0.889346 0.453410
H30   H     H_    0.080032 0.748943 0.866160 0.112239
O42   O     O_2   0.854752 0.741864 0.902078 -0.507036
C95   C     C_2   0.451602 0.803989 0.891843 0.386838
H31   H     H_    0.367726 0.761088 0.916392 0.012702
O43   O     O_2   0.474856 0.758871 0.853388 -0.528030
C96   C     C_2   0.503712 0.200977 0.110661 0.453357
H32   H     H_    0.419810 0.248932 0.133861 0.112227
O44   O     O_2   0.645032 0.241903 0.097919 -0.507043

loop_
_geom_bond_atom_site_label_1
_geom_bond_atom_site_label_2
_ccdc_geom_bond_type
C26   C30   A    
N4    C16   A    
C58   C66   A    
O1    C5    A    
C89   H25   S    
C72   C96   S    
O13   V1    S    
C93   H29   S    
O3    C7    A    
O32   H22   S    
C10   N2    A    
C40   C44   A    
O15   V3    S    
C16   O27   S    
C86   O31   D    
C28   C56   A    
C76   C92   S    
C95   O43   D    
C70   C94   S    
C62   C77   A    
C11   C43   A    
C18   C22   A    
C17   C33   A    
C61   C78   A    
C32   C36   A    
C47   H11   S    
O20   V1    S    
C18   H13   S    
O9    C4    A    
C79   H19   S    
C63   C80   A    
C17   H14   S    
O10   C3    A    
C87   O34   S    
C62   C66   A    
O4    C8    A    
O11   C2    A    
C29   H5    S    
C24   C56   A    
C57   C65   A    
O30   H21   S    
C6    C84   S    
C57   C69   A    
C58   C61   A    
C59   C67   A    
N2    C14   A    
C71   C95   S    
C12   C44   A    
C60   C72   A    
C74   C90   S    
C91   H27   S    
C46   H10   S    
O34   H23   S    
C14   O25   S    
C45   H9    S    
C59   C64   A    
O14   V2    S    
C15   C51   A    
C88   O36   S    
O14   C6    A    
C11   N3    A    
C39   C51   A    
O4    V1    S    
C20   C36   A    
C12   N4    A    
O9    V1    S    
C64   C68   A    
O17   V4    S    
O7    C3    A    
C40   C67   A    
O11   V3    S    
O18   V3    S    
O8    C4    A    
C14   C50   A    
C48   H12   S    
O19   V2    S    
C92   O40   D    
C93   O41   D    
C69   C93   S    
C85   O29   D    
C63   C67   A    
C26   C54   A    
C86   O32   S    
C94   O42   D    
C96   H32   S    
O5    V1    S    
C28   H4    S    
C31   C35   A    
C40   C52   A    
O7    V3    S    
C30   C34   A    
C73   C89   S    
O8    V4    S    
O16   C8    A    
C12   O24   S    
C31   H7    S    
C32   H8    S    
C75   C91   S    
C60   C68   A    
O15   C7    A    
N1    C33   S    
C48   C80   A    
C8    C82   S    
C49   C74   A    
O1    V4    S    
C9    O21   S    
C16   C52   A    
O2    V3    S    
C90   O38   D    
C51   C76   A    
O3    V2    S    
C11   O23   S    
N3    C35   S    
C38   C42   A    
C59   C71   A    
C58   C70   A    
C38   C65   A    
C29   C33   A    
O6    C2    A    
C18   C34   A    
C37   C66   A    
O10   V2    S    
C95   H31   S    
C19   H16   S    
C39   C68   A    
C21   C86   S    
C19   C35   A    
C37   C41   A    
C26   H2    S    
C70   C74   A    
C25   H1    S    
C10   C42   A    
C3    C54   S    
C69   C73   A    
C9    C41   A    
O6    V2    S    
C80   H20   S    
C71   C75   A    
C30   H6    S    
C4    C53   S    
C27   H3    S    
N4    C36   S    
C5    C83   S    
C46   C78   A    
C45   C77   A    
C94   H30   S    
C22   C54   A    
O16   V4    S    
C77   H17   S    
C57   C62   A    
C23   C88   S    
C61   C65   A    
N1    C13   A    
C91   O39   D    
C10   O22   S    
C20   H15   S    
O5    C1    A    
C7    C81   S    
C13   C49   A    
C44   C48   A    
C2    C55   S    
C96   O44   D    
C83   C84   T    
C25   C29   A    
C13   O26   S    
C81   C82   T    
C27   C31   A    
C28   C32   A    
C9    N1    A    
C90   H26   S    
C85   O30   S    
C88   O35   D    
C47   C79   A    
O2    C6    A    
C39   C43   A    
C15   O28   S    
C92   H28   S    
C43   C47   A    
C52   C75   A    
C17   C21   A    
C1    C56   S    
C25   C53   A    
C19   C23   A    
C64   C79   A    
C23   C55   A    
C38   C50   A    
C27   C55   A    
C37   C49   A    
C72   C76   A    
C22   C85   S    
O12   C1    A    
C78   H18   S    
C89   O37   D    
C42   C46   A    
O36   H24   S    
N2    C34   S    
C41   C45   A    
C21   C53   A    
C50   C73   A    
C24   C87   S    
C87   O33   D    
N3    C15   A    
C60   C63   A    
O12   V4    S    
C20   C24   A    
O13   C5    A    
