data_mof_unit_55417.cif
_audit_creation_date              2012-12-11T18:13:32-0500
_audit_creation_method            fapswitch 2.2
_symmetry_space_group_name_H-M    P1
_symmetry_Int_Tables_number       1
_space_group_crystal_system       triclinic
_cell_length_a                    8.286805
_cell_length_b                    12.734831
_cell_length_c                    18.776142
_cell_angle_alpha                 100.172391
_cell_angle_beta                  91.442562
_cell_angle_gamma                 98.719045
_cell_volume                      1925.03051247

loop_
_atom_site_label
_atom_site_type_symbol
_atom_type_description
_atom_site_fract_x
_atom_site_fract_y
_atom_site_fract_z
_atom_type_partial_charge
Ba1   Ba    Ba6+2 0.852780 0.548340 0.465070 1.652518
Ba2   Ba    Ba6+2 0.337060 0.451750 0.534940 1.654661
C1    C     C_3   0.551360 0.890988 0.250789 -0.383923
C2    C     C_R   0.885004 0.407324 0.096514 0.033327
C3    C     C_R   0.721213 0.366576 0.073763 -0.078322
C4    C     C_3   0.090939 0.759136 0.270099 0.332005
C5    C     C_R   0.659659 0.376331 0.005551 -0.087718
C6    C     C_R   0.761363 0.425078 0.957918 0.022845
C7    C     C_R   0.925570 0.467084 0.980068 0.025308
C8    C     C_R   0.701946 0.429822 0.888047 -0.123060
C9    C     C_R   0.806488 0.470378 0.837530 -0.044375
C10   C     C_R   0.969878 0.517731 0.860535 0.010497
C11   C     C_R   0.028294 0.516070 0.932288 0.004617
C12   C     C_3   0.582331 0.804375 0.293268 0.356305
C13   C     C_R   0.756372 0.458457 0.763515 -0.006110
C14   C     C_R   0.866779 0.495056 0.714500 -0.241038
C15   C     C_R   0.023610 0.551527 0.736644 0.041814
C16   C     C_3   0.072937 0.784211 0.194373 -0.338539
C17   C     C_R   0.076784 0.562787 0.811287 -0.036956
C18   C     C_R   0.149891 0.503202 0.073220 -0.000874
C19   C     C_R   0.209222 0.498665 0.144279 -0.005596
C20   C     C_R   0.104714 0.449793 0.192609 -0.047800
C21   C     C_R   0.946676 0.398355 0.165462 -0.028976
C22   C     C_R   0.234229 0.614348 0.838224 -0.062827
C23   C     C_3   0.458047 0.268058 0.315430 0.290900
C24   C     C_R   0.292583 0.611803 0.908896 0.033636
C25   C     C_R   0.191042 0.560277 0.955614 0.014708
C26   C     C_R   0.252295 0.553789 0.025842 0.017042
C27   C     C_R   0.452983 0.658565 0.933088 -0.099868
C28   C     C_3   0.100090 0.805370 0.666233 0.292734
C29   C     C_R   0.516681 0.649724 0.001066 -0.038456
C30   C     C_R   0.416404 0.597245 0.048321 0.002044
C31   C     C_R   0.373174 0.543295 0.166811 -0.039648
C32   C     C_R   0.475641 0.588773 0.117639 -0.109018
C33   C     C_R   0.429205 0.543712 0.238636 0.000017
C34   C     C_3   0.405790 0.223969 0.235576 -0.119875
C35   C     C_R   0.322622 0.503730 0.287389 -0.299545
C36   C     C_R   0.162020 0.455842 0.266315 0.056497
C37   C     C_R   0.760061 0.183707 0.533578 -0.256405
C38   C     C_R   0.401168 0.817473 0.494751 -0.087414
C39   C     C_R   0.397134 0.985120 0.451837 -0.124441
C40   C     C_3   0.080633 0.881656 0.736476 -0.105673
C41   C     C_R   0.322464 0.881349 0.456301 0.014729
C42   C     C_R   0.565884 0.851913 0.519474 0.066872
C43   C     C_R   0.635176 0.962702 0.523995 -0.037168
C44   C     C_R   0.547665 0.030018 0.489679 -0.048453
C45   C     C_3   0.054700 0.182016 0.735464 0.404063
C46   C     C_R   0.613624 0.140231 0.493613 0.036442
C47   C     C_R   0.849363 0.118890 0.566171 -0.042722
C48   C     C_R   0.786681 0.009080 0.562281 -0.107079
C49   C     C_3   0.955082 0.203241 0.365510 0.233538
C50   C     C_3   0.959952 0.083560 0.338040 -0.102948
C51   C     C_3   0.676574 0.702107 0.685717 0.341089
C52   C     C_3   0.620619 0.737102 0.760914 -0.350347
C53   C     C_1   0.484318 0.094299 0.686332 0.303906
C54   C     C_1   0.533351 0.137208 0.853845 0.292630
C55   C     C_1   0.685694 0.696052 0.020615 0.258083
C56   C     C_3   0.147460 0.170449 0.805596 -0.079810
C57   C     C_3   0.579625 0.190687 0.731423 0.301513
C58   C     C_3   0.651851 0.159173 0.799399 -0.287593
C59   C     C_R   0.986831 0.459611 0.050058 0.012749
H1    H     H_    0.644140 0.841707 0.346708 0.064364
H2    H     H_    0.476644 0.946280 0.282361 0.091592
H3    H     H_    0.711481 0.802365 0.792664 0.121846
H4    H     H_    0.606185 0.666206 0.788144 0.068203
H5    H     H_    0.503347 0.768234 0.757462 0.132167
H6    H     H_    0.461231 0.760919 0.303578 -0.074222
H7    H     H_    0.484511 0.852766 0.198411 0.116085
H8    H     H_    0.353180 0.301103 0.341692 0.004589
H9    H     H_    0.563424 0.334392 0.318922 0.043795
H10   H     H_    0.291434 0.164481 0.231778 0.119552
H11   H     H_    0.379406 0.291292 0.209046 0.051478
H12   H     H_    0.200252 0.933534 0.753000 0.107675
H13   H     H_    0.668959 0.937838 0.239488 0.127995
H14   H     H_    0.055300 0.707991 0.153870 0.096094
H15   H     H_    0.936749 0.126437 0.727301 -0.016275
H16   H     H_    0.234122 0.245536 0.827105 0.140446
H17   H     H_    0.221439 0.105377 0.792754 0.128461
H18   H     H_    0.682743 0.218861 0.698982 -0.063139
H19   H     H_    0.745860 0.226225 0.825837 0.064864
H20   H     H_    0.709059 0.085774 0.783909 0.032347
H21   H     H_    0.979766 0.705087 0.279703 0.130201
H22   H     H_    0.639693 0.328300 0.109097 0.087479
H23   H     H_    0.988137 0.932985 0.726665 0.072943
H24   H     H_    0.532577 0.344459 0.989699 0.094470
H25   H     H_    0.827204 0.482858 0.657857 0.054126
H26   H     H_    0.575313 0.396940 0.872714 0.106271
H27   H     H_    0.867618 0.354046 0.198313 0.093413
H28   H     H_    0.314010 0.654730 0.803930 0.092686
H29   H     H_    0.530030 0.702333 0.899150 0.066017
H30   H     H_    0.602556 0.618977 0.133145 0.119442
H31   H     H_    0.197487 0.716708 0.272917 -0.036735
H32   H     H_    0.367083 0.507876 0.342675 0.076795
H33   H     H_    0.332397 0.030799 0.420818 0.107281
H34   H     H_    0.828547 0.216979 0.376280 0.013061
H35   H     H_    0.858973 0.961355 0.588146 0.087962
H36   H     H_    0.811502 0.267319 0.534437 0.060525
H37   H     H_    0.965381 0.825653 0.190038 0.158859
H38   H     H_    0.184193 0.837289 0.182493 0.106670
H39   H     H_    0.139057 0.855880 0.625359 0.024776
H40   H     H_    0.984571 0.756048 0.644647 0.057073
H41   H     H_    0.993207 0.876699 0.836282 0.185657
H42   H     H_    0.133202 0.797530 0.814418 0.185834
H43   H     H_    0.888101 0.039626 0.431476 0.195104
H44   H     H_    0.733486 0.032180 0.369896 0.144991
H45   H     H_    0.035137 0.231339 0.415788 0.055247
H46   H     H_    0.644695 0.223140 0.208657 0.174904
H47   H     H_    0.542070 0.101174 0.215563 0.211093
H48   H     H_    0.138677 0.343662 0.742183 0.222746
H49   H     H_    0.974261 0.316042 0.789457 0.117406
H50   H     H_    0.952861 0.077995 0.842942 0.174972
H51   H     H_    0.982176 0.211772 0.881550 0.178966
H52   H     H_    0.350002 0.713820 0.564054 0.193955
H53   H     H_    0.192123 0.734589 0.523956 0.190974
H54   H     H_    0.922004 0.061305 0.279386 0.126459
H55   H     H_    0.087194 0.067545 0.344460 0.129716
H56   H     H_    0.792903 0.673000 0.691615 -0.062244
H57   H     H_    0.588034 0.633374 0.657786 0.098547
N1    N     N_3   0.029807 0.822072 0.793773 -0.516227
N2    N     N_3   0.852073 0.016011 0.376922 -0.474116
N3    N     N_3   0.532243 0.172487 0.196758 -0.486003
N4    N     N_3   0.026047 0.293448 0.740396 -0.511168
N5    N     N_3   0.040205 0.145652 0.862934 -0.505104
N6    N     N_1   0.409298 0.017895 0.651212 -0.313321
N7    N     N_1   0.442726 0.119723 0.897770 -0.288192
N8    N     N_1   0.821074 0.732947 0.036048 -0.301950
N9    N     N_3   0.310269 0.720729 0.512530 -0.430644
O1    O     O_2   0.873090 0.425890 0.325140 -0.473618
O2    O     O_2   0.171353 0.121002 0.538174 -0.466463
O3    O     O_3   0.150437 0.152289 0.676555 -0.570178
O4    O     O_3   0.122420 0.434370 0.414380 -0.478662
O5    O     O_3   0.578370 0.633800 0.536380 -0.484696
O6    O     O_2   0.341510 0.231850 0.465510 -0.453570
O7    O     O_3   0.501912 0.184753 0.348269 -0.663493
O8    O     O_2   0.423275 0.462721 0.755069 -0.497182
O9    O     O_3   0.475838 0.267884 0.751360 -0.600935
O10   O     O_3   0.659500 0.627100 0.368810 -0.469203
O11   O     O_2   0.770209 0.547095 0.242485 -0.512893
O12   O     O_3   0.698048 0.791602 0.650840 -0.650799
O13   O     O_3   0.009775 0.255273 0.309706 -0.663228
O14   O     O_3   0.682459 0.737539 0.253922 -0.603487
O15   O     O_2   0.848200 0.768190 0.534530 -0.487518
O16   O     O_3   0.081160 0.685950 0.404810 -0.483820
O17   O     O_2   0.985562 0.874731 0.448495 -0.463379
O18   O     O_3   0.110316 0.855594 0.321099 -0.611510
O19   O     O_2   0.316610 0.574140 0.674900 -0.460182
O20   O     O_3   0.067290 0.565720 0.585630 -0.490150
O21   O     O_3   0.530210 0.372990 0.631200 -0.458749
O22   O     O_3   0.222871 0.744556 0.676379 -0.645769
O23   O     O_3   0.611340 0.366290 0.463630 -0.478421
O24   O     O_3   0.108550 0.314140 0.595200 -0.449875
P1    P     P_3+3 0.041040 0.394770 0.336330 0.971493
P2    P     P_3+3 0.672880 0.754030 0.556100 0.976309
P3    P     P_3+3 0.123945 0.825327 0.408360 0.971345
P4    P     P_3+3 0.148670 0.605320 0.663680 0.966738
P5    P     P_3+3 0.064840 0.174948 0.595406 0.998317
P6    P     P_3+3 0.635364 0.608802 0.275249 0.935372
P7    P     P_3+3 0.521881 0.229254 0.442171 0.929716
P8    P     P_3+3 0.550039 0.391430 0.725676 0.955146

loop_
_geom_bond_atom_site_label_1
_geom_bond_atom_site_label_2
_ccdc_geom_bond_type
Ba2   O23   S    
Ba2   P4    S    
C4    H21   S    
C53   C57   S    
C47   P5    S    
C1    H7    S    
Ba1   O1    S    
H47   N3    S    
Ba1   O5    S    
C22   H28   S    
C5    C6    A    
C52   H4    S    
C43   C44   A    
C24   C25   A    
C16   H14   S    
C7    C59   A    
C42   P2    S    
C33   C35   A    
C22   C24   A    
C45   H15   S    
O6    P7    D    
C3    H22   S    
C51   H56   S    
C40   N1    S    
C37   H36   S    
C19   C31   A    
O12   P2    S    
Ba2   O21   S    
C13   C14   A    
C12   H1    S    
C28   H39   S    
C57   O9    S    
C10   C17   A    
Ba1   P1    S    
Ba1   Ba2   S    
C18   C59   A    
C1    H13   S    
C7    C11   A    
C32   H30   S    
Ba1   O15   S    
C56   H16   S    
C31   C33   A    
O9    P8    S    
C9    C13   A    
O1    P1    D    
C38   C41   A    
O19   P4    D    
C29   C30   A    
C6    C7    A    
Ba2   O5    S    
C39   C44   A    
H44   N2    S    
C41   P3    S    
O20   P4    S    
O13   P1    S    
C34   H10   S    
C49   O13   S    
C12   O14   S    
C57   C58   S    
C19   C20   A    
C14   H25   S    
C39   C41   A    
O4    P1    S    
C36   P1    S    
C27   H29   S    
Ba2   O4    S    
C50   H55   S    
C4    C16   S    
C44   C46   A    
C8    H26   S    
Ba2   O6    S    
O8    P8    D    
C45   O3    S    
H50   N5    S    
C49   C50   S    
C26   C30   A    
C40   H23   S    
H51   N5    S    
C57   H18   S    
C55   N8    T    
C3    C5    A    
C2    C21   A    
C51   H57   S    
C14   C15   A    
O16   P3    S    
C18   C26   A    
Ba1   O4    S    
Ba2   O20   S    
C51   C52   S    
C38   N9    S    
C46   P7    S    
C2    C59   A    
C54   C58   S    
O21   P8    S    
C30   C32   A    
C33   P6    S    
C13   P8    S    
C35   C36   A    
Ba1   O16   S    
C58   H20   S    
C39   H33   S    
C12   H6    S    
O5    P2    S    
C56   N5    S    
C35   H32   S    
Ba1   O23   S    
O24   P5    S    
C10   C11   A    
Ba1   P2    S    
C23   O7    S    
C1    C12   S    
H52   N9    S    
O18   P3    S    
C50   N2    S    
O14   P6    S    
O7    P7    S    
C21   H27   S    
Ba1   O20   S    
C23   H8    S    
C16   H38   S    
H46   N3    S    
C15   P4    S    
Ba1   O10   S    
C42   C43   A    
C50   H54   S    
Ba2   O24   S    
C4    O18   S    
C53   N6    T    
C58   H19   S    
C40   H12   S    
O23   P7    S    
C37   C47   A    
C51   O12   S    
H42   N1    S    
C2    C3    A    
C45   N4    S    
O2    P5    D    
C9    C10   A    
C52   H5    S    
C1    H2    S    
Ba2   O19   S    
O10   P6    S    
C29   C55   S    
C17   C22   A    
O22   P4    S    
C27   C29   A    
H49   N4    S    
C45   C56   S    
H53   N9    S    
O11   P6    D    
C48   H35   S    
C5    H24   S    
C52   H3    S    
C43   C48   A    
C49   H45   S    
C4    H31   S    
C28   H40   S    
C15   C17   A    
C31   C32   A    
C34   N3    S    
C28   C40   S    
O15   P2    D    
O17   P3    D    
H48   N4    S    
C8    C9    A    
C56   H17   S    
C23   C34   S    
C38   C42   A    
C18   C19   A    
C24   C27   A    
C6    C8    A    
C47   C48   A    
C25   C26   A    
C20   C21   A    
C11   C25   A    
O3    P5    S    
C23   H9    S    
C16   H37   S    
C28   O22   S    
C54   N7    T    
H41   N1    S    
C34   H11   S    
C49   H34   S    
C37   C46   A    
H43   N2    S    
C20   C36   A    
