data_mof_unit_58724.cif
_audit_creation_date              2012-12-10T17:24:46-0500
_audit_creation_method            fapswitch 2.2
_symmetry_space_group_name_H-M    P1
_symmetry_Int_Tables_number       1
_space_group_crystal_system       triclinic
_cell_length_a                    23.497448
_cell_length_b                    10.79068
_cell_length_c                    9.676708
_cell_angle_alpha                 87.908729
_cell_angle_beta                  89.624687
_cell_angle_gamma                 94.409432
_cell_volume                      2444.56324466

loop_
_atom_site_label
_atom_site_type_symbol
_atom_type_description
_atom_site_fract_x
_atom_site_fract_y
_atom_site_fract_z
_atom_type_partial_charge
C1    C     C_R   0.503899 0.263491 0.503142 0.885592
C2    C     C_R   0.962652 0.287397 0.611842 -0.138263
C3    C     C_R   0.022030 0.287181 0.609803 -0.128917
C4    C     C_R   0.055793 0.387804 0.548612 -0.031030
C5    C     C_R   0.029310 0.489048 0.488170 -0.010496
C6    C     C_R   0.062748 0.590387 0.426308 -0.033447
C7    C     C_R   0.035902 0.690787 0.366258 -0.125056
C8    C     C_R   0.976535 0.691016 0.368348 -0.135795
C9    C     C_R   0.115583 0.390672 0.547367 0.592200
C10   C     C_R   0.122381 0.589022 0.427506 0.593758
C11   C     C_R   0.238881 0.444417 0.387088 0.317491
C12   C     C_R   0.391140 0.501282 0.500666 0.921735
C13   C     C_R   0.298144 0.448196 0.391114 -0.217824
C14   C     C_R   0.328334 0.501403 0.501582 -0.229268
C15   C     C_R   0.297893 0.553232 0.609438 0.288177
C16   C     C_R   0.238072 0.549261 0.606420 0.404234
C17   C     C_R   0.208472 0.494282 0.494247 0.108683
C18   C     C_R   0.758584 0.427687 0.398182 -0.176126
C19   C     C_R   0.699203 0.427424 0.396815 0.233702
C20   C     C_R   0.671036 0.492589 0.497717 -0.143221
C21   C     C_R   0.703217 0.553696 0.600002 -0.213380
C22   C     C_R   0.762525 0.553811 0.600687 0.348471
C23   C     C_R   0.499377 0.736889 0.497607 0.839404
C24   C     C_R   0.790361 0.491152 0.498765 0.227051
C25   C     C_R   0.605335 0.127410 0.598286 0.223641
C26   C     C_R   0.656797 0.071110 0.590335 -0.210570
C27   C     C_R   0.657623 0.948482 0.549332 0.476199
C28   C     C_R   0.606051 0.881189 0.524821 -0.128646
C29   C     C_R   0.554198 0.939435 0.520244 -0.057306
C30   C     C_R   0.554372 0.067818 0.544329 -0.003594
C31   C     C_R   0.504011 0.128676 0.512239 -0.169671
C32   C     C_R   0.453304 0.060045 0.475486 0.247071
C33   C     C_R   0.452115 0.930974 0.468849 0.220373
C34   C     C_R   0.608689 0.497516 0.499326 0.832882
C35   C     C_R   0.502237 0.871375 0.492329 -0.147496
C36   C     C_R   0.585252 0.662448 0.126451 0.463014
C37   C     C_R   0.627400 0.726644 0.042210 -0.310956
C38   C     C_R   0.624180 0.726290 0.901038 0.351070
C39   C     C_R   0.579773 0.657148 0.842355 -0.100554
C40   C     C_R   0.539631 0.577980 0.919743 0.030862
C41   C     C_R   0.540758 0.578894 0.068921 0.079071
C42   C     C_R   0.461894 0.425520 0.079620 0.478771
C43   C     C_R   0.462596 0.423698 0.930830 0.278295
C44   C     C_R   0.883072 0.589410 0.434780 0.600463
C45   C     C_R   0.876229 0.391085 0.554604 0.584541
C46   C     C_R   0.935820 0.388248 0.552753 -0.024580
C47   C     C_R   0.969260 0.489310 0.490338 -0.008440
C48   C     C_R   0.942798 0.590848 0.430525 -0.029285
Cu1   Cu    Cu3+1 0.500000 0.499990 0.640660 1.058699
Cu2   Cu    Cu3+1 0.500000 0.500010 0.359340 1.097966
H1    H     H_    0.937896 0.208537 0.660223 0.197962
H2    H     H_    0.682289 0.602553 0.678760 0.223084
H3    H     H_    0.695571 0.119300 0.627377 0.183938
H4    H     H_    0.607267 0.783080 0.507916 0.135858
H5    H     H_    0.041360 0.208222 0.656798 0.200916
H6    H     H_    0.661241 0.785491 0.087547 0.162801
H7    H     H_    0.579441 0.669819 0.734003 0.206893
H8    H     H_    0.060658 0.769712 0.318003 0.203634
H9    H     H_    0.957210 0.770055 0.321522 0.197500
H10   H     H_    0.320634 0.407988 0.307759 0.231957
H11   H     H_    0.780320 0.377822 0.321147 0.189933
N1    N     N_R   0.851295 0.490833 0.496679 -0.452675
N2    N     N_R   0.147388 0.490565 0.488189 -0.465620
N3    N     N_R   0.500540 0.501210 0.147910 -0.197479
N4    N     N_R   0.500560 0.501290 0.852040 -0.203692
O1    O     O_R   0.500000 0.319640 0.618810 -0.514476
O2    O     O_2   0.843410 0.295347 0.614011 -0.516647
O3    O     O_2   0.141838 0.295151 0.605623 -0.473262
O4    O     O_2   0.155216 0.685493 0.369635 -0.465935
O5    O     O_R   0.500000 0.319660 0.381240 -0.514199
O6    O     O_R   0.417880 0.499950 0.618810 -0.526305
O7    O     O_R   0.417880 0.499980 0.381240 -0.535860
O8    O     O_R   0.500000 0.680340 0.618760 -0.603039
O9    O     O_R   0.500000 0.680360 0.381190 -0.508820
O10   O     O_R   0.582120 0.500020 0.618760 -0.593920
O11   O     O_R   0.582120 0.500050 0.381190 -0.511556
O12   O     O_2   0.856866 0.685493 0.377616 -0.495715
Br1   Br    Br    0.659523 0.329655 0.260279 -0.447994
Br2   Br    Br    0.804320 0.639725 0.742139 -0.401907
Br3   Br    Br    0.384321 0.142690 0.440239 -0.319603
Br4   Br    Br    0.606194 0.251234 0.734863 -0.429100
O13   O     O_3   0.707397 0.888786 0.543463 -0.679098
H12   H     H_    0.739976 0.948681 0.565131 0.351741
Br5   Br    Br    0.382036 0.835611 0.425173 -0.352807
O14   O     O_3   0.423587 0.349878 0.159252 -0.656829
H13   H     H_    0.390377 0.322126 0.103231 0.353764
O15   O     O_3   0.586501 0.693005 0.261641 -0.691538
H14   H     H_    0.623213 0.738675 0.285208 0.309370
O16   O     O_3   0.662858 0.796487 0.816777 -0.702524
H15   H     H_    0.692075 0.840608 0.874451 0.361509
Br6   Br    Br    0.411811 0.304100 0.840767 -0.352557
Br7   Br    Br    0.200318 0.370173 0.233144 -0.333653
Br8   Br    Br    0.335552 0.637692 0.760108 -0.284860
O17   O     O_3   0.210254 0.600852 0.714195 -0.627385
H16   H     H_    0.168487 0.591192 0.701003 0.338700

loop_
_geom_bond_atom_site_label_1
_geom_bond_atom_site_label_2
_ccdc_geom_bond_type
O15   H14   S    
C4    C9    A    
Cu2   N3    S    
C19   C20   A    
C10   N2    A    
C7    C8    A    
C13   H10   S    
C45   C46   A    
C2    C46   A    
C5    C47   A    
C38   O16   S    
C26   C27   A    
C29   C30   A    
Cu1   N4    S    
C18   C24   A    
C28   C29   A    
C22   Br2   S    
Cu2   O9    S    
C8    H9    S    
C38   C39   A    
C15   C16   A    
C39   H7    S    
C45   N1    A    
C1    C31   S    
C18   C19   A    
Cu2   O7    S    
C37   H6    S    
C3    H5    S    
C11   Br7   S    
C11   C17   A    
C31   C32   A    
C16   C17   A    
C45   O2    S    
Cu1   O10   S    
C7    H8    S    
C34   O10   A    
C20   C34   S    
C12   O7    A    
C21   C22   A    
C25   Br4   S    
C36   C41   A    
C23   O8    A    
C36   O15   S    
Cu1   O1    S    
C39   C40   A    
C28   H4    S    
C44   N1    A    
C25   C26   A    
O14   H13   S    
C43   Br6   S    
C19   Br1   S    
C8    C48   A    
C15   Br8   S    
C37   C38   A    
Cu2   O11   S    
C32   Br3   S    
C47   C48   A    
C30   C31   A    
C43   N4    A    
C1    O1    A    
C42   O14   S    
C40   C41   A    
C12   O6    A    
C12   C14   S    
Cu1   Cu2   S    
C23   C35   S    
C40   N4    A    
C22   C24   A    
C42   C43   A    
C23   O9    A    
C3    C4    A    
C26   H3    S    
C42   N3    A    
C25   C30   A    
C46   C47   A    
C36   C37   A    
C24   N1    S    
C9    N2    A    
C27   O13   S    
C4    C5    A    
C6    C10   A    
C18   H11   S    
C6    C7    A    
C44   O12   S    
C29   C35   A    
C16   O17   S    
C1    O5    A    
C32   C33   A    
C2    C3    A    
Cu2   O5    S    
C9    O3    S    
C17   N2    S    
C11   C13   A    
C5    C6    A    
C33   C35   A    
Cu1   O8    S    
O17   H16   S    
C33   Br5   S    
C2    H1    S    
C10   O4    S    
C20   C21   A    
O13   H12   S    
Cu1   O6    S    
C27   C28   A    
C14   C15   A    
C41   N3    A    
O16   H15   S    
C13   C14   A    
C21   H2    S    
C44   C48   A    
C34   O11   A    
