data_mof_unit_13989.cif
_audit_creation_date              2012-12-10T20:38:25-0500
_audit_creation_method            fapswitch 2.2
_symmetry_space_group_name_H-M    P1
_symmetry_Int_Tables_number       1
_space_group_crystal_system       triclinic
_cell_length_a                    9.853383
_cell_length_b                    10.651219
_cell_length_c                    16.695209
_cell_angle_alpha                 90.112472
_cell_angle_beta                  85.580958
_cell_angle_gamma                 90.038775
_cell_volume                      1746.95874051

loop_
_atom_site_label
_atom_site_type_symbol
_atom_type_description
_atom_site_fract_x
_atom_site_fract_y
_atom_site_fract_z
_atom_type_partial_charge
C1    C     C_R   0.499604 0.740075 0.503121 0.880343
C2    C     C_R   0.527541 0.542332 0.262873 -0.048304
C3    C     C_R   0.374672 0.936162 0.518093 0.005307
C4    C     C_R   0.481446 0.504378 0.653172 0.844500
C5    C     C_R   0.497088 0.871188 0.517798 -0.110460
C6    C     C_R   0.615906 0.935157 0.535123 -0.227158
C7    C     C_R   0.615314 0.065198 0.536369 -0.246890
C8    C     C_R   0.496140 0.129176 0.519860 -0.085520
C9    C     C_R   0.373478 0.064233 0.520277 0.054882
C10   C     C_3   0.257100 0.075319 0.467843 -0.572442
C11   C     C_3   0.258630 0.932197 0.464620 0.342473
C12   C     C_R   0.356114 0.503765 0.787353 -0.208471
C13   C     C_R   0.923363 0.586356 0.544309 0.129662
C14   C     C_R   0.933886 0.423353 0.449303 0.509893
C15   C     C_R   0.079004 0.424446 0.449284 -0.250556
C16   C     C_R   0.499398 0.259994 0.503858 0.879394
C17   C     C_R   0.065703 0.586182 0.544340 0.212361
C18   C     C_3   0.060665 0.603390 0.633038 -0.489401
C19   C     C_3   0.906565 0.604072 0.633103 -0.516613
C20   C     C_R   0.518283 0.505253 0.346784 0.860704
C21   C     C_R   0.469821 0.539613 0.737248 -0.021062
C22   C     C_R   0.565058 0.623689 0.764914 -0.213448
C23   C     C_R   0.430081 0.657802 0.157135 -0.163744
C24   C     C_R   0.549963 0.668090 0.843037 -0.156633
C25   C     C_R   0.440788 0.626286 0.894948 0.202038
C26   C     C_R   0.341957 0.546717 0.866225 -0.168842
C27   C     C_3   0.405414 0.916733 0.342174 0.125200
C28   C     C_3   0.369624 0.964521 0.260193 -0.355897
C29   C     C_3   0.497426 0.994864 0.206175 -0.959279
C30   C     C_3   0.894917 0.223696 0.400429 0.079556
C31   C     C_3   0.970218 0.174420 0.323097 -0.381936
C32   C     C_3   0.975533 0.031179 0.322306 -0.925173
C33   C     C_R   0.419838 0.610961 0.234491 -0.212024
C34   C     C_R   0.647429 0.523811 0.213624 -0.195483
C35   C     C_R   0.656497 0.568605 0.135126 -0.180133
C36   C     C_R   0.546398 0.632897 0.105948 0.205247
C37   C     C_2   0.434981 0.652289 0.981069 -0.235123
C38   C     C_2   0.549186 0.659075 0.019843 -0.231927
H1    H     H_    0.649135 0.657834 0.725488 0.146497
H2    H     H_    0.328597 0.631353 0.272726 0.182333
H3    H     H_    0.103654 0.695384 0.649921 0.197498
H4    H     H_    0.857515 0.522282 0.664906 0.219447
H5    H     H_    0.861261 0.696936 0.649677 0.192453
H6    H     H_    0.732774 0.473667 0.235455 0.171691
H7    H     H_    0.648162 0.658529 0.986414 0.145501
H8    H     H_    0.256577 0.514320 0.905594 0.124565
H9    H     H_    0.346004 0.711841 0.137366 0.128661
H10   H     H_    0.279709 0.441690 0.765796 0.139268
H11   H     H_    0.336815 0.639686 0.014212 0.145583
H12   H     H_    0.747343 0.549157 0.096341 0.126090
H13   H     H_    0.624411 0.733734 0.862798 0.127988
H14   H     H_    0.473580 0.834013 0.333428 0.150989
H15   H     H_    0.464087 0.990838 0.371089 0.132943
H16   H     H_    0.309290 0.892248 0.230620 0.228804
H17   H     H_    0.306262 0.050530 0.268329 0.217590
H18   H     H_    0.557416 0.069456 0.233876 0.261905
H19   H     H_    0.468018 0.028641 0.147071 0.268597
H20   H     H_    0.561586 0.909672 0.196328 0.274671
H21   H     H_    0.794731 0.175768 0.407973 0.179766
H22   H     H_    0.951162 0.197409 0.453467 0.093504
H23   H     H_    0.710645 0.886105 0.541830 0.167677
H24   H     H_    0.917188 0.206721 0.270453 0.235657
H25   H     H_    0.075672 0.211868 0.317349 0.206426
H26   H     H_    0.024536 0.996012 0.375515 0.284404
H27   H     H_    0.035379 0.998358 0.267167 0.265556
H28   H     H_    0.871074 0.991692 0.322774 0.258788
H29   H     H_    0.709586 0.114477 0.544117 0.156192
H30   H     H_    0.164674 0.113379 0.501742 0.171691
H31   H     H_    0.284408 0.123705 0.409979 0.205701
H32   H     H_    0.166077 0.890664 0.496525 0.098944
H33   H     H_    0.140163 0.364210 0.408840 0.159117
H34   H     H_    0.100516 0.520795 0.664379 0.212998
N1    N     N_R   0.857140 0.500860 0.500530 -0.143449
N2    N     N_R   0.142780 0.500820 0.500530 -0.121993
O1    O     O_R   0.385310 0.683210 0.499990 -0.594320
O2    O     O_3   0.869216 0.353846 0.393275 -0.619536
O3    O     O_R   0.614650 0.683240 0.500000 -0.628606
O4    O     O_R   0.371780 0.500000 0.615800 -0.619469
O5    O     O_R   0.601120 0.500040 0.615800 -0.624033
O6    O     O_R   0.385350 0.316760 0.500000 -0.611664
O7    O     O_R   0.614690 0.316790 0.500010 -0.608470
O8    O     O_R   0.398880 0.499960 0.384200 -0.616593
O9    O     O_R   0.628220 0.500000 0.384200 -0.566401
O10   O     O_3   0.284476 0.877186 0.386858 -0.625734
Zn1   Zn    Zn3+2 0.346870 0.499980 0.499990 0.953550
Zn2   Zn    Zn3+2 0.653130 0.500020 0.500010 0.972182

loop_
_geom_bond_atom_site_label_1
_geom_bond_atom_site_label_2
_ccdc_geom_bond_type
C20   O8    A    
C1    O3    A    
C35   C36   A    
C12   H10   S    
C11   H32   S    
C7    C8    A    
C37   C38   D    
C1    C5    S    
C6    H23   S    
C28   C29   S    
C18   C19   S    
C30   C31   S    
C37   H11   S    
C34   C35   A    
C38   H7    S    
C25   C37   S    
O1    Zn1   S    
C8    C9    A    
C23   C33   A    
C30   H22   S    
C9    C10   S    
O7    Zn2   S    
C19   H4    S    
C2    C34   A    
C24   H13   S    
C8    C16   S    
C21   C22   A    
C31   H24   S    
C28   H17   S    
C19   H5    S    
C18   H34   S    
C33   H2    S    
C23   H9    S    
C13   C19   S    
C2    C20   S    
C1    O1    A    
C14   N1    A    
C31   H25   S    
C34   H6    S    
C24   C25   A    
C32   H26   S    
C4    O5    A    
C18   H3    S    
C28   H16   S    
C25   C26   A    
C12   C21   A    
C12   C26   A    
C16   O6    A    
C14   O2    S    
C4    O4    A    
O6    Zn1   S    
C3    C9    A    
C30   O2    S    
C31   C32   S    
C30   H21   S    
C15   N2    A    
C35   H12   S    
C17   C18   S    
O4    Zn1   S    
C29   H19   S    
O3    Zn2   S    
C17   N2    A    
C22   C24   A    
C27   H14   S    
C2    C33   A    
C32   H28   S    
C27   O10   S    
C13   N1    A    
C3    C5    A    
C27   H15   S    
C6    C7    A    
C29   H18   S    
C10   H30   S    
C11   O10   S    
O8    Zn1   S    
C15   H33   S    
C13   C17   A    
C36   C38   S    
C4    C21   S    
C5    C6    A    
C22   H1    S    
C16   O7    A    
N2    Zn1   S    
N1    Zn2   S    
C3    C11   S    
C10   C11   S    
C26   H8    S    
C7    H29   S    
C10   H31   S    
O9    Zn2   S    
C29   H20   S    
C23   C36   A    
C20   O9    A    
C27   C28   S    
C14   C15   A    
O5    Zn2   S    
C32   H27   S    
