data_mof_unit_30547.cif
_audit_creation_date              2012-12-11T16:24:00-0500
_audit_creation_method            fapswitch 2.2
_symmetry_space_group_name_H-M    P1
_symmetry_Int_Tables_number       1
_space_group_crystal_system       triclinic
_cell_length_a                    14.74163
_cell_length_b                    14.767249
_cell_length_c                    33.289929
_cell_angle_alpha                 96.069917
_cell_angle_beta                  96.23901
_cell_angle_gamma                 61.152208
_cell_volume                      6298.24314286

loop_
_atom_site_label
_atom_site_type_symbol
_atom_type_description
_atom_site_fract_x
_atom_site_fract_y
_atom_site_fract_z
_atom_type_partial_charge
C1    C     C_R   0.390948 0.699557 0.446088 0.540082
C2    C     C_R   0.327956 0.349178 0.308774 0.048845
C3    C     C_R   0.410941 0.266636 0.328170 -0.176069
C4    C     C_R   0.431688 0.275178 0.369867 -0.147064
C5    C     C_R   0.391524 0.250500 0.166391 -0.113148
C6    C     C_R   0.383359 0.231735 0.124583 -0.121995
C7    C     C_R   0.211031 0.380176 0.121356 -0.131580
C8    C     C_R   0.219272 0.398587 0.163241 -0.104741
C9    C     C_R   0.308280 0.331804 0.185839 0.038672
C10   C     C_1   0.311923 0.341268 0.229125 0.004697
C11   C     C_1   0.317255 0.345696 0.265463 0.050095
C12   C     C_R   0.405771 0.386431 0.433977 0.548880
C13   C     C_R   0.291395 0.294057 0.101848 0.022897
C14   C     C_R   0.757373 0.372629 0.410422 0.020613
C15   C     C_R   0.790243 0.434482 0.393765 -0.130301
C16   C     C_R   0.820537 0.412875 0.354226 -0.115362
C17   C     C_R   0.818824 0.328874 0.330723 0.034785
C18   C     C_R   0.795603 0.261286 0.348655 -0.120057
C19   C     C_R   0.764971 0.283073 0.388239 -0.130988
C20   C     C_R   0.838296 0.307653 0.205441 0.349609
C21   C     C_R   0.830708 0.318630 0.286909 0.347457
C22   C     C_R   0.829811 0.388392 0.142352 -0.103164
C23   C     C_R   0.700898 0.409896 0.447579 0.538375
C24   C     C_R   0.860555 0.379695 0.103151 0.263608
C25   C     C_R   0.917782 0.194746 0.100378 -0.180649
C26   C     C_R   0.889406 0.204012 0.139764 -0.139033
C27   C     C_R   0.849755 0.300136 0.161679 -0.009671
C28   C     C_R   0.908160 0.281185 0.082338 0.032359
C29   C     C_R   0.370940 0.754195 0.408990 0.018415
C30   C     C_R   0.277020 0.783255 0.385608 -0.122058
C31   C     C_R   0.267046 0.810925 0.346053 -0.106863
C32   C     C_R   0.350686 0.810321 0.329227 0.032934
C33   C     C_R   0.441060 0.790760 0.353841 -0.119648
C34   C     C_R   0.393531 0.701417 0.561340 0.552849
C35   C     C_R   0.451139 0.762857 0.393448 -0.132192
C36   C     C_R   0.343974 0.827925 0.204265 0.346558
C37   C     C_R   0.346701 0.820731 0.285482 0.348665
C38   C     C_R   0.258540 0.831855 0.135204 -0.118647
C39   C     C_R   0.238703 0.862618 0.095700 -0.130561
C40   C     C_R   0.382034 0.901315 0.104871 -0.130167
C41   C     C_R   0.401957 0.870403 0.144445 -0.120284
C42   C     C_R   0.337121 0.840232 0.160541 0.035914
C43   C     C_R   0.297027 0.902418 0.080869 0.022911
C44   C     C_R   0.369483 0.372007 0.585145 -0.021016
C45   C     C_R   0.407137 0.389212 0.549039 0.548962
C46   C     C_R   0.288825 0.456429 0.605066 -0.122478
C47   C     C_R   0.266104 0.449404 0.644061 0.265014
C48   C     C_R   0.327354 0.356309 0.663609 0.043250
C49   C     C_R   0.402119 0.269506 0.642247 -0.182185
C50   C     C_R   0.423082 0.277262 0.603348 -0.159835
C51   C     C_R   0.315182 0.347896 0.788045 0.340132
C52   C     C_R   0.320912 0.351000 0.707083 0.366705
C53   C     C_R   0.216793 0.402777 0.850397 -0.121733
C54   C     C_R   0.206582 0.383601 0.889296 -0.131802
C55   C     C_R   0.385506 0.247680 0.892400 -0.130334
C56   C     C_R   0.701548 0.413293 0.562626 0.547245
C57   C     C_R   0.395756 0.266950 0.853565 -0.120758
C58   C     C_R   0.310038 0.341290 0.831491 0.035833
C59   C     C_R   0.289402 0.302476 0.909801 0.022335
C60   C     C_R   0.753544 0.378801 0.602904 0.016844
C61   C     C_R   0.810354 0.423552 0.625770 0.283192
C62   C     C_R   0.834783 0.407015 0.667196 -0.083856
C63   C     C_R   0.808884 0.341914 0.685271 -0.010002
C64   C     C_R   0.761410 0.290453 0.661950 -0.133228
C65   C     C_R   0.733877 0.308673 0.621163 -0.175668
C66   C     C_R   0.888676 0.215138 0.822332 -0.111040
C67   C     C_R   0.369690 0.366824 0.392533 -0.039167
C68   C     C_R   0.916127 0.202302 0.863642 -0.127587
C69   C     C_R   0.869037 0.384350 0.874326 -0.124143
C70   C     C_R   0.841524 0.396953 0.833073 -0.110637
C71   C     C_R   0.854267 0.311765 0.806908 0.040864
C72   C     C_1   0.838443 0.322244 0.764048 -0.018617
C73   C     C_1   0.826070 0.331131 0.728106 -0.018989
C74   C     C_R   0.910023 0.286090 0.889812 0.020625
C75   C     C_R   0.375856 0.755654 0.602137 0.021280
C76   C     C_R   0.281038 0.786440 0.619091 -0.174896
C77   C     C_R   0.269971 0.814811 0.660248 -0.123579
C78   C     C_R   0.281974 0.446449 0.373165 -0.091255
C79   C     C_R   0.353319 0.813044 0.685075 -0.001100
C80   C     C_R   0.445502 0.789732 0.668332 -0.096655
C81   C     C_R   0.456782 0.763945 0.626655 0.264603
C82   C     C_R   0.394122 0.885172 0.832217 -0.112145
C83   C     C_R   0.375190 0.913273 0.873050 -0.125817
C84   C     C_R   0.229357 0.878095 0.863673 -0.126835
C85   C     C_R   0.248575 0.849925 0.822896 -0.110089
C86   C     C_R   0.329080 0.856244 0.806928 0.039702
C87   C     C_1   0.339860 0.840341 0.764131 -0.018711
C88   C     C_1   0.346449 0.828560 0.728088 -0.015741
C89   C     C_R   0.261448 0.437853 0.331417 0.396790
C90   C     C_R   0.290411 0.913320 0.888872 0.019863
C91   C     C_R   0.963299 0.264368 0.045568 0.567281
C92   C     C_R   0.272770 0.259437 0.060052 0.543002
C93   C     C_R   0.259286 0.959627 0.043789 0.545378
C94   C     C_R   0.962496 0.267762 0.930770 0.545558
C95   C     C_R   0.270876 0.264009 0.945371 0.545744
C96   C     C_R   0.256186 0.964881 0.928997 0.543848
Cr1   Cr    Cr6+3 0.576280 0.580550 0.506370 1.044539
Cr2   Cr    Cr6+3 0.346780 0.572400 0.496520 1.009082
Cr3   Cr    Cr6+3 0.576960 0.347070 0.497150 1.007036
Cr4   Cr    Cr6+3 0.087320 0.083240 0.984860 1.012898
Cr5   Cr    Cr6+3 0.087720 0.316210 0.996740 1.019492
Cr6   Cr    Cr6+3 0.317350 0.090340 0.995890 1.013539
H1    H     H_    0.446657 0.164941 0.110489 0.129881
H2    H     H_    0.740886 0.233453 0.400435 0.130205
H3    H     H_    0.840216 0.465136 0.341452 0.144758
H4    H     H_    0.794738 0.195282 0.331385 0.136438
H5    H     H_    0.794530 0.463927 0.158283 0.138045
H6    H     H_    0.954086 0.118246 0.085174 0.142322
H7    H     H_    0.904196 0.134808 0.153763 0.149500
H8    H     H_    0.213401 0.778440 0.396918 0.140458
H9    H     H_    0.524241 0.741624 0.410888 0.129160
H10   H     H_    0.173525 0.861273 0.077707 0.129777
H11   H     H_    0.460910 0.198773 0.183748 0.115606
H12   H     H_    0.195545 0.827750 0.328071 0.150915
H13   H     H_    0.506351 0.790996 0.341858 0.138273
H14   H     H_    0.208593 0.806798 0.146492 0.136682
H15   H     H_    0.428870 0.930895 0.094128 0.128901
H16   H     H_    0.464022 0.876331 0.163095 0.133442
H17   H     H_    0.248344 0.530918 0.591818 0.135304
H18   H     H_    0.485321 0.210944 0.588546 0.136014
H19   H     H_    0.131694 0.427598 0.902072 0.130797
H20   H     H_    0.448159 0.196665 0.656415 0.132282
H21   H     H_    0.462541 0.197620 0.310801 0.126813
H22   H     H_    0.149804 0.461818 0.834386 0.133384
H23   H     H_    0.451073 0.185491 0.907723 0.130205
H24   H     H_    0.469285 0.219601 0.840107 0.134392
H25   H     H_    0.948052 0.125568 0.874564 0.128608
H26   H     H_    0.898423 0.148832 0.802220 0.111268
H27   H     H_    0.741603 0.239479 0.675686 0.129461
H28   H     H_    0.691513 0.272120 0.604584 0.146823
H29   H     H_    0.814419 0.472153 0.821363 0.113405
H30   H     H_    0.863367 0.450359 0.893693 0.129853
H31   H     H_    0.499699 0.212548 0.383876 0.145310
H32   H     H_    0.873196 0.445755 0.685239 0.125980
H33   H     H_    0.423395 0.940366 0.891594 0.129191
H34   H     H_    0.456764 0.890073 0.820047 0.112178
H35   H     H_    0.510269 0.787681 0.687820 0.115970
H36   H     H_    0.216946 0.783208 0.600984 0.130058
H37   H     H_    0.198026 0.827311 0.803480 0.116921
H38   H     H_    0.163487 0.877341 0.874897 0.128366
H39   H     H_    0.197952 0.833474 0.673013 0.121722
H40   H     H_    0.232792 0.517973 0.389816 0.150600
H41   H     H_    0.154642 0.462069 0.178121 0.126822
H42   H     H_    0.139555 0.429817 0.104651 0.108618
H43   H     H_    0.786471 0.503301 0.410316 0.131300
N1    N     N_R   0.828451 0.393257 0.228234 -0.226939
N2    N     N_R   0.233954 0.417223 0.726206 -0.174648
N3    N     N_R   0.404828 0.283022 0.729201 -0.244521
N4    N     N_R   0.401903 0.281276 0.768860 -0.238375
N5    N     N_R   0.824414 0.398764 0.268118 -0.219929
N6    N     N_R   0.840416 0.232849 0.264160 -0.228911
N7    N     N_R   0.844952 0.227133 0.224186 -0.224489
N8    N     N_R   0.267560 0.821130 0.220847 -0.223834
N9    N     N_R   0.269083 0.817246 0.260609 -0.215591
N10   N     N_R   0.423497 0.827141 0.268941 -0.229641
N11   N     N_R   0.421788 0.831376 0.229109 -0.230145
N12   N     N_R   0.230986 0.415445 0.765882 -0.238938
O1    O     O_R   0.679450 0.499830 0.463150 -0.526357
O2    O     O_R   0.356040 0.477400 0.534170 -0.505690
O3    O     O_R   0.495910 0.323070 0.537100 -0.517430
O4    O     O_R   0.663920 0.359620 0.542290 -0.519653
O5    O     O_3   0.500010 0.500010 0.500010 -0.241554
O6    O     O_R   0.170070 0.978950 0.027680 -0.520139
O7    O     O_R   0.001760 0.175230 0.026640 -0.512612
O8    O     O_R   0.984760 0.333570 0.037150 -0.479265
O9    O     O_R   0.183410 0.309240 0.041890 -0.508704
O10   O     O_R   0.340240 0.172500 0.045430 -0.519218
O11   O     O_R   0.309670 0.000990 0.032050 -0.501620
O12   O     O_R   0.480650 0.664000 0.464630 -0.510014
O13   O     O_R   0.168330 0.982130 0.939200 -0.520009
O14   O     O_R   0.000140 0.178170 0.944610 -0.501632
O15   O     O_R   0.983010 0.336750 0.948660 -0.517085
O16   O     O_R   0.181800 0.312190 0.959860 -0.503355
O17   O     O_R   0.338500 0.175680 0.956950 -0.519259
O18   O     O_R   0.308050 0.003930 0.950020 -0.500870
O19   O     O_3   0.164130 0.163270 0.992500 -0.240325
O20   O     O_R   0.323930 0.675950 0.455370 -0.518611
O21   O     O_R   0.354700 0.475360 0.451930 -0.501849
O22   O     O_R   0.494470 0.320860 0.448390 -0.514775
O23   O     O_R   0.662580 0.357570 0.460050 -0.503371
O24   O     O_R   0.680900 0.502040 0.551870 -0.447218
O25   O     O_R   0.481990 0.666040 0.546870 -0.448274
O26   O     O_R   0.325370 0.678160 0.544080 -0.534187
O27   O     O_3   0.841614 0.467611 0.084698 -0.551052
C97   C     C_3   0.902257 0.512049 0.104558 0.020210
H44   H     H_    0.952450 0.512572 0.082092 0.160790
H45   H     H_    0.955205 0.468635 0.130446 0.114053
C98   C     C_3   0.831166 0.624013 0.119203 -0.269335
H46   H     H_    0.782779 0.668548 0.092997 0.177289
H47   H     H_    0.778609 0.625721 0.141121 0.170736
C99   C     C_3   0.893849 0.675636 0.139592 -0.477681
H48   H     H_    0.941223 0.633554 0.166418 0.164051
H49   H     H_    0.840257 0.756791 0.149720 0.159223
H50   H     H_    0.945911 0.676362 0.118020 0.143459
O28   O     O_3   0.198489 0.537935 0.665802 -0.548495
C100  C     C_3   0.097197 0.583653 0.646509 0.013903
H51   H     H_    0.044482 0.578732 0.666610 0.163734
H52   H     H_    0.089330 0.545242 0.616603 0.105524
C101  C     C_3   0.061416 0.697722 0.641047 -0.259670
H53   H     H_    0.065475 0.737466 0.670942 0.177382
H54   H     H_    0.113816 0.703622 0.621116 0.155913
C102  C     C_3   0.950411 0.751826 0.622230 -0.484762
H55   H     H_    0.945061 0.714532 0.591927 0.149461
H56   H     H_    0.926796 0.834365 0.618680 0.142198
H57   H     H_    0.896241 0.748301 0.641983 0.155783
O29   O     O_3   0.836814 0.489050 0.609210 -0.550446
C103  C     C_3   0.921275 0.430484 0.584476 0.009928
H58   H     H_    0.928475 0.486017 0.566695 0.155022
H59   H     H_    0.907188 0.376298 0.562041 0.117703
C104  C     C_3   0.023869 0.371094 0.609810 -0.289059
H60   H     H_    0.032650 0.423821 0.634359 0.168126
H61   H     H_    0.023030 0.306726 0.624002 0.155011
C105  C     C_3   0.116966 0.325536 0.583800 -0.477073
H62   H     H_    0.110565 0.270631 0.559618 0.149703
H63   H     H_    0.189485 0.283123 0.602978 0.159961
H64   H     H_    0.121565 0.387990 0.569728 0.141055
O30   O     O_3   0.551548 0.733401 0.611157 -0.528807
C106  C     C_3   0.568648 0.819727 0.610516 0.016040
H65   H     H_    0.653593 0.789704 0.609683 0.162673
H66   H     H_    0.544824 0.872848 0.638256 0.106584
C107  C     C_3   0.514521 0.879498 0.572516 -0.262795
H67   H     H_    0.542939 0.826529 0.545110 0.176943
H68   H     H_    0.429371 0.909563 0.572470 0.149997
C108  C     C_3   0.535533 0.970560 0.570838 -0.490115
H69   H     H_    0.506083 0.025295 0.597694 0.144496
H70   H     H_    0.495261 0.012434 0.543130 0.151776
H71   H     H_    0.620107 0.942616 0.570017 0.144734
F1    F     F_    0.180350 0.518201 0.312882 -0.626858

loop_
_geom_bond_atom_site_label_1
_geom_bond_atom_site_label_2
_ccdc_geom_bond_type
C66   C68   A    
C87   C88   T    
Cr6   O10   S    
C96   O18   A    
C55   C59   A    
C24   O27   S    
C41   C42   A    
C74   C94   S    
Cr5   O16   S    
C45   O2    A    
C108  H69   S    
C18   H4    S    
C65   H28   S    
C97   H44   S    
C7    C8    A    
C85   C86   A    
C25   C28   A    
Cr3   O22   S    
C45   O3    A    
Cr1   O24   S    
C26   C27   A    
C29   C30   A    
C102  H56   S    
C30   H8    S    
C98   C99   S    
C50   H18   S    
C21   N6    A    
C47   O28   S    
C95   O17   A    
C38   C42   A    
C107  C108  S    
C78   H40   S    
C5    C6    A    
C97   H45   S    
C56   O24   A    
C93   O6    A    
C68   C74   A    
C15   C16   A    
C23   O1    A    
C100  H51   S    
Cr1   O12   S    
O27   C97   S    
Cr5   O15   S    
C98   H47   S    
C18   C19   A    
Cr2   O26   S    
C37   N10   A    
C79   C88   S    
C94   O15   A    
Cr3   O4    S    
C1    O20   A    
C40   C43   A    
C55   H23   S    
C93   O11   A    
C3    H21   S    
C16   C17   A    
C102  H57   S    
Cr4   O19   S    
C103  C104  S    
N6    N7    A    
Cr1   O5    S    
C70   C71   A    
C41   H16   S    
Cr2   O21   S    
C9    C10   S    
C85   H37   S    
C31   H12   S    
C83   H33   S    
C34   C75   S    
C72   C73   T    
C105  H63   S    
C40   H15   S    
C101  H53   S    
C52   N3    A    
N1    N5    A    
Cr3   O3    S    
Cr4   O14   S    
C82   H34   S    
C22   H5    S    
C69   C70   A    
C67   C78   A    
C59   C95   S    
C100  C101  S    
C2    C11   S    
C37   N9    A    
C7    H42   S    
Cr2   O5    S    
C44   C46   A    
C36   N8    A    
C57   C58   A    
C54   C59   A    
C77   C79   A    
C78   C89   A    
C69   C74   A    
C38   C39   A    
C12   C67   S    
C33   H13   S    
C32   C37   S    
C102  H55   S    
Cr5   O9    S    
Cr4   O13   S    
C99   H48   S    
Cr1   O25   S    
C84   C85   A    
C100  H52   S    
C57   H24   S    
C15   H43   S    
C86   C87   S    
C8    C9    A    
C97   C98   S    
C39   C43   A    
O28   C100  S    
C63   C73   S    
C25   C26   A    
C105  H62   S    
C56   O4    A    
C51   N12   A    
C17   C21   S    
C63   C64   A    
C98   H46   S    
Cr6   O18   S    
C14   C23   S    
C2    C89   A    
Cr5   O8    S    
C75   C76   A    
C99   H49   S    
C66   C71   A    
C5    C9    A    
C62   C63   A    
C94   O14   A    
C101  C102  S    
Cr3   O5    S    
C38   H14   S    
C19   H2    S    
C106  H66   S    
C47   C48   A    
C26   H7    S    
C7    C13   A    
C81   O30   S    
C1    C29   S    
C17   C18   A    
C34   O26   A    
Cr4   O7    S    
C51   C58   S    
C6    H1    S    
C76   C77   A    
Cr2   O20   S    
C90   C96   S    
C68   H25   S    
C84   H38   S    
C23   O23   A    
C16   H3    S    
C39   H10   S    
C54   H19   S    
C60   C65   A    
C82   C83   A    
C52   N2    A    
C104  H61   S    
C22   C27   A    
C55   C57   A    
C13   C92   S    
C22   C24   A    
C91   O7    A    
C89   F1    S    
C3    C4    A    
N2    N12   A    
C108  H71   S    
C35   H9    S    
C44   C45   S    
C36   N11   A    
C106  C107  S    
C101  H54   S    
C105  H64   S    
C44   C50   A    
C83   C90   A    
C29   C35   A    
C46   C47   A    
C40   C41   A    
Cr6   O11   S    
C5    H11   S    
O29   C103  S    
C14   C19   A    
C91   O8    A    
C31   C32   A    
C75   C81   A    
C24   C28   A    
C80   C81   A    
C53   H22   S    
C108  H70   S    
C36   C42   S    
C107  H67   S    
C4    C67   A    
C53   C58   A    
C53   C54   A    
C20   C27   S    
C76   H36   S    
Cr6   O17   S    
C104  C105  S    
Cr4   O6    S    
C61   O29   S    
C43   C93   S    
C32   C33   A    
C62   H32   S    
C2    C3    A    
O30   C106  S    
C99   H50   S    
Cr3   O23   S    
C107  H68   S    
C82   C86   A    
Cr2   O2    S    
Cr1   O1    S    
C6    C13   A    
C92   O10   A    
C21   N5    A    
C106  H65   S    
C30   C31   A    
C69   H30   S    
C48   C49   A    
C49   H20   S    
C64   C65   A    
C1    O12   A    
C70   H29   S    
C33   C35   A    
C66   H26   S    
C46   H17   S    
C34   O25   A    
C8    H41   S    
C20   N1    A    
N3    N4    A    
C104  H60   S    
C95   O16   A    
C61   C62   A    
C77   H39   S    
C20   N7    A    
C10   C11   T    
C84   C90   A    
C79   C80   A    
C92   O9    A    
C48   C52   S    
C12   O22   A    
C56   C60   S    
C64   H27   S    
C51   N4    A    
C49   C50   A    
N10   N11   A    
C103  H59   S    
C103  H58   S    
C14   C15   A    
C60   C61   A    
Cr5   O19   S    
C96   O13   A    
C28   C91   S    
C71   C72   S    
C12   O21   A    
Cr6   O19   S    
C80   H35   S    
C25   H6    S    
C4    H31   S    
N8    N9    A    
