data_mof_unit_44540.cif
_audit_creation_date              2012-12-10T20:38:19-0500
_audit_creation_method            fapswitch 2.2
_symmetry_space_group_name_H-M    P1
_symmetry_Int_Tables_number       1
_space_group_crystal_system       triclinic
_cell_length_a                    9.832597
_cell_length_b                    10.63116
_cell_length_c                    16.708937
_cell_angle_alpha                 90.165172
_cell_angle_beta                  84.683132
_cell_angle_gamma                 90.187401
_cell_volume                      1739.08710306

loop_
_atom_site_label
_atom_site_type_symbol
_atom_type_description
_atom_site_fract_x
_atom_site_fract_y
_atom_site_fract_z
_atom_type_partial_charge
C1    C     C_R   0.500123 0.740753 0.501849 0.901906
C2    C     C_R   0.351107 0.581047 0.777243 -0.207994
C3    C     C_R   0.444289 0.669376 0.158865 -0.161839
C4    C     C_R   0.428984 0.620002 0.235732 -0.211923
C5    C     C_R   0.654851 0.527170 0.214708 -0.201238
C6    C     C_R   0.669130 0.574815 0.136926 -0.172053
C7    C     C_R   0.561995 0.642358 0.107944 0.206556
C8    C     C_2   0.453853 0.637094 0.983985 -0.233592
C9    C     C_2   0.565291 0.663152 0.021483 -0.244235
C10   C     C_R   0.532875 0.546409 0.263459 -0.032524
C11   C     C_R   0.378046 0.936395 0.533747 0.090178
C12   C     C_R   0.480594 0.501887 0.653506 0.850871
C13   C     C_R   0.500031 0.872171 0.518250 -0.129143
C14   C     C_R   0.622333 0.934467 0.530175 -0.275118
C15   C     C_R   0.622764 0.064756 0.537678 0.112707
C16   C     C_R   0.498050 0.130336 0.533091 -0.179870
C17   C     C_R   0.375502 0.062745 0.547532 0.014785
C18   C     C_3   0.234169 0.073041 0.519707 0.294974
C19   C     C_3   0.247088 0.934751 0.495835 -0.476920
C20   C     C_R   0.923347 0.595915 0.535841 0.217692
C21   C     C_R   0.934454 0.414094 0.456338 -0.127028
C22   C     C_R   0.078827 0.414836 0.455728 -0.173195
C23   C     C_R   0.498789 0.260468 0.509293 0.885336
C24   C     C_R   0.066010 0.595660 0.536068 0.221563
C25   C     C_3   0.057736 0.632234 0.622498 -0.537075
C26   C     C_3   0.903392 0.633747 0.622014 -0.501200
C27   C     C_R   0.519500 0.505973 0.346772 0.861947
C28   C     C_R   0.468568 0.523730 0.739730 -0.031151
C29   C     C_R   0.580930 0.501249 0.783225 -0.211880
C30   C     C_R   0.577829 0.539698 0.862626 -0.145906
C31   C     C_R   0.462399 0.602031 0.899199 0.203050
C32   C     C_R   0.347831 0.619326 0.856890 -0.172951
H1    H     H_    0.671755 0.455388 0.755587 0.147206
H2    H     H_    0.760576 0.553376 0.098071 0.122445
H3    H     H_    0.718539 0.884540 0.528223 0.170579
H4    H     H_    0.221998 0.137298 0.468477 0.087498
H5    H     H_    0.169330 0.872222 0.527652 0.222173
H6    H     H_    0.262934 0.920169 0.429689 0.148769
H7    H     H_    0.884872 0.342873 0.422848 0.149808
H8    H     H_    0.138513 0.344275 0.421716 0.145934
H9    H     H_    0.094772 0.556752 0.660440 0.215309
H10   H     H_    0.336582 0.641016 0.273837 0.155807
H11   H     H_    0.102198 0.726640 0.632021 0.209482
H12   H     H_    0.851080 0.560285 0.660760 0.213999
H13   H     H_    0.858970 0.729504 0.629813 0.203142
H14   H     H_    0.737619 0.473684 0.236248 0.146343
H15   H     H_    0.664269 0.673655 0.987457 0.147302
H16   H     H_    0.256876 0.664297 0.885129 0.127826
H17   H     H_    0.362192 0.724855 0.138337 0.127481
H18   H     H_    0.264054 0.600779 0.744417 0.150225
H19   H     H_    0.354746 0.625569 0.017706 0.149615
H20   H     H_    0.664879 0.518497 0.895338 0.126366
N1    N     N_R   0.857140 0.500860 0.500530 -0.103885
N2    N     N_R   0.142780 0.500820 0.500530 -0.109516
O1    O     O_R   0.385310 0.683210 0.499990 -0.613004
O2    O     O_R   0.614650 0.683240 0.500000 -0.620991
O3    O     O_R   0.371780 0.500000 0.615800 -0.630507
O4    O     O_R   0.601120 0.500040 0.615800 -0.615573
O5    O     O_R   0.385350 0.316760 0.500000 -0.654445
O6    O     O_R   0.614690 0.316790 0.500010 -0.581134
O7    O     O_R   0.398880 0.499960 0.384200 -0.614004
O8    O     O_R   0.628220 0.500000 0.384200 -0.614009
Zn1   Zn    Zn3+2 0.346870 0.499980 0.499990 0.922387
Zn2   Zn    Zn3+2 0.653130 0.500020 0.500010 0.950826
N3    N     N_3   0.749978 0.128616 0.544411 -0.420109
H21   H     H_    0.817182 0.104966 0.494471 0.185165
H22   H     H_    0.791362 0.095176 0.595672 0.190229
O9    O     O_3   0.131461 0.082664 0.584690 -0.639973
C33   C     C_3   0.126228 0.203812 0.619244 0.109673
H23   H     H_    0.063834 0.265602 0.583972 0.161899
H24   H     H_    0.229254 0.245996 0.622574 0.160617
C34   C     C_3   0.057568 0.192947 0.704866 -0.328455
H25   H     H_    0.956189 0.146759 0.703611 0.225102
H26   H     H_    0.121631 0.133430 0.740961 0.226444
C35   C     C_3   0.037947 0.321137 0.745213 -0.988241
H27   H     H_    0.137487 0.370689 0.745706 0.270287
H28   H     H_    0.993439 0.308748 0.808231 0.266920
H29   H     H_    0.966523 0.378505 0.712978 0.262261

loop_
_geom_bond_atom_site_label_1
_geom_bond_atom_site_label_2
_ccdc_geom_bond_type
C10   C27   S    
C25   H11   S    
C3    H17   S    
C26   H12   S    
C22   N2    A    
C23   O5    A    
C11   C19   S    
C20   C26   S    
C12   C28   S    
C28   C29   A    
C27   O8    A    
C1    O2    A    
C3    C7    A    
C5    C6    A    
N1    Zn2   S    
C16   C17   A    
N2    Zn1   S    
C18   O9    S    
C24   N2    A    
C15   C16   A    
C15   N3    S    
C29   H1    S    
C2    C32   A    
C18   C19   S    
C33   H24   S    
O8    Zn2   S    
C2    H18   S    
C26   H13   S    
O9    C33   S    
C20   C24   A    
C8    C9    D    
N3    H22   S    
O1    Zn1   S    
O2    Zn2   S    
C27   O7    A    
C12   O4    A    
C13   C14   A    
C32   H16   S    
C34   C35   S    
O3    Zn1   S    
O4    Zn2   S    
C23   O6    A    
C24   C25   S    
C34   H26   S    
C25   H9    S    
C14   H3    S    
C20   N1    A    
C25   C26   S    
C6    H2    S    
C33   C34   S    
C35   H27   S    
C29   C30   A    
C19   H5    S    
C19   H6    S    
C31   C32   A    
C21   H7    S    
C22   H8    S    
O7    Zn1   S    
C17   C18   S    
C35   H28   S    
C8    H19   S    
C12   O3    A    
C9    H15   S    
C16   C23   S    
C1    C13   S    
C4    C10   A    
C3    C4    A    
C7    C9    S    
C30   H20   S    
C11   C17   A    
C8    C31   S    
C34   H25   S    
C6    C7    A    
C5    H14   S    
O5    Zn1   S    
O6    Zn2   S    
C1    O1    A    
C5    C10   A    
C21   N1    A    
C11   C13   A    
C30   C31   A    
C4    H10   S    
C33   H23   S    
C35   H29   S    
N3    H21   S    
C14   C15   A    
C2    C28   A    
C21   C22   A    
C18   H4    S    
