data_mof_unit_46393.cif
_audit_creation_date              2012-10-26T19:03:00-0400
_audit_creation_method            fapswitch 2.2
_symmetry_space_group_name_H-M    P1
_symmetry_Int_Tables_number       1
_space_group_crystal_system       triclinic
_cell_length_a                    15.085964
_cell_length_b                    11.055604
_cell_length_c                    9.886559
_cell_angle_alpha                 112.202191
_cell_angle_beta                  98.680049
_cell_angle_gamma                 90.626137
_cell_volume                      1505.01530668

loop_
_atom_site_label
_atom_site_type_symbol
_atom_type_description
_atom_site_fract_x
_atom_site_fract_y
_atom_site_fract_z
_atom_type_partial_charge
C1    C     C_R   0.493110 0.253193 0.438924 0.571584
C2    C     C_2   0.493261 0.489827 0.918395 0.025150
C3    C     C_R   0.329288 0.498582 0.500432 0.552925
C4    C     C_R   0.670688 0.501254 0.499523 0.553569
C5    C     C_R   0.810697 0.599073 0.465896 -0.026943
C6    C     C_R   0.189284 0.400741 0.534332 -0.026325
C7    C     C_R   0.766967 0.502140 0.498491 0.001599
C8    C     C_R   0.232967 0.497520 0.501381 0.001930
C9    C     C_R   0.814888 0.405793 0.532228 -0.041146
C10   C     C_R   0.184920 0.593479 0.467023 -0.040373
C11   C     C_R   0.908188 0.405536 0.534454 -0.002512
C12   C     C_R   0.505836 0.746872 0.561098 0.569378
C13   C     C_R   0.091654 0.593815 0.465029 -0.002468
C14   C     C_R   0.952917 0.500281 0.499401 0.037686
C15   C     C_R   0.046970 0.499198 0.500324 0.037546
C16   C     C_R   0.904078 0.596202 0.463638 0.032794
C17   C     C_R   0.095843 0.403392 0.536264 0.032728
C18   C     C_R   0.957891 0.312288 0.570994 -0.131813
C19   C     C_R   0.041943 0.687046 0.428457 -0.131651
C20   C     C_3   0.759461 0.707870 0.438529 -0.394894
C21   C     C_3   0.240618 0.292293 0.562349 -0.395352
C22   C     C_1   0.767056 0.305575 0.561474 0.197072
C23   C     C_R   0.049738 0.311440 0.572277 -0.130257
C24   C     C_1   0.232508 0.693172 0.436627 0.198196
C25   C     C_3   0.534831 0.983249 0.757707 -0.404172
C26   C     C_3   0.490646 0.018164 0.243908 -0.403419
C27   C     C_3   0.608473 0.655508 0.957828 -0.220371
C28   C     C_3   0.391391 0.344698 0.042187 -0.219496
C29   C     C_R   0.950148 0.688066 0.427477 -0.130415
C30   C     C_2   0.488009 0.111476 0.401488 -0.007296
C31   C     C_2   0.506599 0.888624 0.598459 -0.011313
C32   C     C_2   0.483201 0.068967 0.511001 -0.123044
C33   C     C_2   0.482443 0.930166 0.487683 -0.113977
C34   C     C_2   0.506733 0.510184 0.081609 0.023946
Cu1   Cu    Cu3+1 0.515770 0.521810 0.644910 0.942849
Cu2   Cu    Cu3+1 0.484230 0.478190 0.355090 0.940197
H1    H     H_    0.926330 0.238781 0.599515 0.129098
H2    H     H_    0.791905 0.804705 0.516870 0.129177
H3    H     H_    0.759293 0.699142 0.322846 0.121493
H4    H     H_    0.311448 0.292134 0.545561 0.143621
H5    H     H_    0.240533 0.301212 0.678035 0.121329
H6    H     H_    0.208426 0.195289 0.484041 0.129914
H7    H     H_    0.556674 0.932232 0.833145 0.145983
H8    H     H_    0.592230 0.050736 0.765663 0.144386
H9    H     H_    0.477545 0.040787 0.797634 0.120802
H10   H     H_    0.499228 0.070559 0.170104 0.151592
H11   H     H_    0.548188 0.956112 0.242267 0.124118
H12   H     H_    0.073458 0.760490 0.399789 0.129626
H13   H     H_    0.426920 0.954962 0.197445 0.131088
H14   H     H_    0.639460 0.699264 0.890492 0.163362
H15   H     H_    0.578730 0.734842 0.042149 0.080702
H16   H     H_    0.662305 0.612998 0.012052 0.097885
H17   H     H_    0.360471 0.300816 0.109473 0.166083
H18   H     H_    0.337546 0.387468 0.988320 0.097756
H19   H     H_    0.420959 0.265394 0.957535 0.079208
H20   H     H_    0.083732 0.237409 0.602373 0.115558
H21   H     H_    0.916160 0.762125 0.397429 0.115424
H22   H     H_    0.462983 0.859130 0.375095 0.159846
H23   H     H_    0.481659 0.139288 0.622373 0.142171
H24   H     H_    0.441967 0.416743 0.841604 0.128576
H25   H     H_    0.558051 0.583233 0.158384 0.130634
H26   H     H_    0.688716 0.708278 0.455824 0.146143
N1    N     N_2   0.460520 0.445420 0.137370 -0.239549
N2    N     N_2   0.539480 0.554580 0.862630 -0.238419
N3    N     N_1   0.728890 0.225935 0.584615 -0.308860
N4    N     N_1   0.270368 0.772429 0.412457 -0.314983
O1    O     O_R   0.508410 0.332340 0.577400 -0.503958
O2    O     O_R   0.491590 0.667660 0.422600 -0.507979
O3    O     O_R   0.481780 0.295500 0.332650 -0.503553
O4    O     O_R   0.518220 0.704500 0.667350 -0.501633
O5    O     O_R   0.383570 0.518390 0.622380 -0.503330
O6    O     O_R   0.616430 0.481610 0.377620 -0.502955
O7    O     O_R   0.356940 0.481550 0.377630 -0.491443
O8    O     O_R   0.643060 0.518450 0.622370 -0.490822

loop_
_geom_bond_atom_site_label_1
_geom_bond_atom_site_label_2
_ccdc_geom_bond_type
C25   C31   S    
C3    O5    A    
C28   H17   S    
C31   C33   D    
Cu1   O8    S    
C33   H22   S    
C11   C18   A    
C24   N4    T    
C6    C17   A    
Cu2   N1    S    
C20   H2    S    
C4    O8    A    
Cu1   Cu2   S    
C27   H14   S    
Cu1   O1    S    
C32   C33   S    
C25   H7    S    
Cu2   O2    S    
Cu1   O5    S    
C23   H20   S    
C22   N3    T    
C5    C20   S    
C17   C23   A    
Cu2   O3    S    
C30   C32   D    
C27   H15   S    
C9    C11   A    
C2    C34   S    
Cu1   N2    S    
C21   H4    S    
C12   O4    A    
C26   H11   S    
C4    C7    S    
C21   H5    S    
C25   H8    S    
C8    C10   A    
C1    C30   S    
C1    O1    A    
C28   H19   S    
C29   H21   S    
C10   C13   A    
C26   C30   S    
C14   C16   A    
C13   C15   A    
C12   C31   S    
C20   H26   S    
C3    O7    A    
C11   C14   A    
C2    H24   S    
C9    C22   S    
Cu2   O7    S    
C13   C19   A    
Cu2   O6    S    
C18   C23   A    
C19   C29   A    
C28   N1    S    
C25   H9    S    
C4    O6    A    
C27   H16   S    
C7    C9    A    
C3    C8    S    
C27   N2    S    
C26   H13   S    
C15   C17   A    
C20   H3    S    
C28   H18   S    
C5    C7    A    
C34   N1    D    
C5    C16   A    
C6    C8    A    
C19   H12   S    
C32   H23   S    
C10   C24   S    
C16   C29   A    
C14   C15   A    
C6    C21   S    
C12   O2    A    
C34   H25   S    
C1    O3    A    
C26   H10   S    
C21   H6    S    
Cu1   O4    S    
C2    N2    D    
C18   H1    S    
