data_mof_unit_5529.cif
_audit_creation_date              2012-12-10T17:24:13-0500
_audit_creation_method            fapswitch 2.2
_symmetry_space_group_name_H-M    P1
_symmetry_Int_Tables_number       1
_space_group_crystal_system       triclinic
_cell_length_a                    19.328185
_cell_length_b                    10.886915
_cell_length_c                    9.60928
_cell_angle_alpha                 90.793373
_cell_angle_beta                  89.924459
_cell_angle_gamma                 92.77311
_cell_volume                      2019.46415416

loop_
_atom_site_label
_atom_site_type_symbol
_atom_type_description
_atom_site_fract_x
_atom_site_fract_y
_atom_site_fract_z
_atom_type_partial_charge
C1    C     C_R   0.506192 0.263108 0.500079 0.856297
C2    C     C_R   0.292035 0.524768 0.500094 -0.076565
C3    C     C_R   0.930150 0.519177 0.492260 0.413413
C4    C     C_R   0.070470 0.530854 0.491646 0.412502
C5    C     C_R   0.818638 0.439465 0.593195 -0.177838
C6    C     C_R   0.746082 0.429076 0.595206 0.158522
C7    C     C_R   0.708429 0.496610 0.498182 -0.056083
C8    C     C_R   0.744450 0.565992 0.396764 -0.229138
C9    C     C_R   0.816522 0.572280 0.393518 -0.160819
C10   C     C_R   0.854073 0.510728 0.493072 0.020571
C11   C     C_R   0.534837 0.122367 0.757734 -0.134353
C12   C     C_R   0.367774 0.508093 0.500427 0.768689
C13   C     C_R   0.522189 0.065618 0.883781 -0.156175
C14   C     C_R   0.490506 0.949249 0.886702 -0.139527
C15   C     C_R   0.474224 0.886835 0.763115 -0.128462
C16   C     C_R   0.491770 0.939379 0.632821 0.035729
C17   C     C_R   0.513037 0.065121 0.630899 0.034596
C18   C     C_R   0.512476 0.128612 0.502951 -0.314353
C19   C     C_R   0.508316 0.061177 0.377503 0.373541
C20   C     C_R   0.491404 0.935421 0.378372 0.325517
C21   C     C_R   0.488764 0.871839 0.505201 -0.299210
C22   C     C_R   0.589133 0.668892 0.145765 -0.047501
C23   C     C_R   0.494253 0.737094 0.501401 0.824963
C24   C     C_R   0.631358 0.753649 0.074819 -0.212240
C25   C     C_R   0.630936 0.754184 0.931452 -0.203846
C26   C     C_R   0.588356 0.669825 0.858311 -0.133785
C27   C     C_R   0.542763 0.584466 0.926383 0.162935
C28   C     C_R   0.542951 0.584209 0.075701 0.117516
C29   C     C_R   0.460532 0.415912 0.073833 0.530384
C30   C     C_R   0.461198 0.416509 0.924433 -0.203656
C31   C     C_R   0.632328 0.497717 0.499755 0.732480
C32   C     C_R   0.255421 0.568758 0.618040 0.160639
C33   C     C_R   0.182926 0.568960 0.613260 -0.179953
C34   C     C_R   0.146559 0.534281 0.492018 0.025561
C35   C     C_R   0.183199 0.502149 0.372505 -0.161209
C36   C     C_R   0.254978 0.497448 0.376653 -0.243651
Cu1   Cu    Cu3+1 0.500000 0.499990 0.640660 0.908172
Cu2   Cu    Cu3+1 0.500000 0.500010 0.359340 0.979364
H1    H     H_    0.563407 0.209754 0.762525 0.160797
H2    H     H_    0.535502 0.113815 0.978999 0.189150
H3    H     H_    0.480332 0.906144 0.984825 0.194319
H4    H     H_    0.445896 0.799635 0.772640 0.153030
H5    H     H_    0.596033 0.672442 0.255232 0.187397
H6    H     H_    0.665710 0.817748 0.131769 0.130611
H7    H     H_    0.664871 0.818837 0.876156 0.153111
H8    H     H_    0.594697 0.673672 0.748764 0.206501
H9    H     H_    0.154771 0.599236 0.704153 0.151228
H10   H     H_    0.431704 0.346961 0.865617 0.151557
H11   H     H_    0.156248 0.477212 0.276700 0.154943
H12   H     H_    0.281376 0.470922 0.282585 0.165926
H13   H     H_    0.847581 0.388356 0.667554 0.152768
H14   H     H_    0.716767 0.617298 0.320810 0.144392
H15   H     H_    0.842889 0.627528 0.314966 0.155226
N1    N     N_R   0.034724 0.544807 0.371845 -0.239483
N2    N     N_R   0.965769 0.539704 0.372281 -0.237941
N3    N     N_R   0.965939 0.505037 0.611823 -0.239373
N4    N     N_R   0.034789 0.511248 0.611605 -0.239454
N5    N     N_R   0.500660 0.501210 0.147910 -0.235545
N6    N     N_R   0.500680 0.501290 0.852040 -0.210312
O1    O     O_R   0.499990 0.319640 0.618810 -0.600579
O2    O     O_R   0.500000 0.319660 0.381240 -0.464828
O3    O     O_R   0.400140 0.499970 0.618820 -0.570255
O4    O     O_R   0.400150 0.500000 0.381250 -0.571110
O5    O     O_R   0.500000 0.680340 0.618760 -0.621726
O6    O     O_R   0.500010 0.680360 0.381190 -0.548191
O7    O     O_R   0.599850 0.500000 0.618750 -0.590560
O8    O     O_R   0.599860 0.500030 0.381180 -0.614677
C37   C     C_3   0.290351 0.623827 0.746971 -0.384271
C38   C     C_3   0.292319 0.529691 0.862601 -0.824739
H16   H     H_    0.316552 0.445009 0.825186 0.257044
H17   H     H_    0.322886 0.569385 0.951408 0.229893
H18   H     H_    0.239002 0.504933 0.899284 0.242593
H19   H     H_    0.343006 0.663140 0.724370 0.206579
H20   H     H_    0.261382 0.703393 0.785322 0.185708
O9    O     O_3   0.477954 0.874433 0.253338 -0.557765
C39   C     C_3   0.406031 0.876142 0.224832 0.090183
H21   H     H_    0.396861 0.954697 0.156048 0.157761
H22   H     H_    0.372918 0.884950 0.319636 0.115327
C40   C     C_3   0.381710 0.757809 0.149430 -0.812739
H23   H     H_    0.414483 0.739840 0.057283 0.233532
H24   H     H_    0.383892 0.679056 0.220546 0.270825
H25   H     H_    0.327306 0.764926 0.114667 0.198130
O10   O     O_3   0.427231 0.321541 0.147662 -0.514376
C41   C     C_3   0.359520 0.292879 0.098779 0.038689
H26   H     H_    0.360838 0.235115 0.002663 0.138576
H27   H     H_    0.331156 0.377357 0.079365 0.122576
C42   C     C_3   0.319998 0.218829 0.208969 -0.760008
H28   H     H_    0.320782 0.269717 0.309788 0.248267
H29   H     H_    0.265458 0.200490 0.175568 0.195835
H30   H     H_    0.344362 0.130146 0.224828 0.229999
C43   C     C_3   0.711739 0.338322 0.694450 -0.419624
C44   C     C_3   0.708859 0.391778 0.841753 -0.782827
H31   H     H_    0.762004 0.409757 0.883446 0.246273
H32   H     H_    0.681472 0.478892 0.842921 0.270128
H33   H     H_    0.680620 0.325187 0.910106 0.227321
H34   H     H_    0.659003 0.308717 0.658981 0.196757
H35   H     H_    0.741181 0.253093 0.695928 0.191456
O11   O     O_3   0.526421 0.116359 0.253332 -0.531949
C45   C     C_3   0.598544 0.104998 0.230994 0.065814
H36   H     H_    0.628110 0.075197 0.323700 0.106068
H37   H     H_    0.605829 0.035157 0.147640 0.161105
C46   C     C_3   0.631347 0.227945 0.185690 -0.781558
H38   H     H_    0.634454 0.292469 0.275860 0.255634
H39   H     H_    0.684649 0.215093 0.146695 0.192708
H40   H     H_    0.600300 0.268430 0.102401 0.245127

loop_
_geom_bond_atom_site_label_1
_geom_bond_atom_site_label_2
_ccdc_geom_bond_type
C31   O7    A    
C42   H28   S    
C16   C21   A    
C35   C36   A    
C41   C42   S    
C2    C12   S    
Cu1   O3    S    
C7    C8    A    
C31   O8    A    
C1    C18   S    
Cu1   Cu2   S    
C30   H10   S    
C41   H27   S    
C29   O10   S    
C5    C6    A    
C37   H20   S    
C6    C43   S    
N3    N4    A    
C46   H40   S    
C2    C32   A    
C34   C35   A    
C38   H17   S    
C13   H2    S    
C43   H34   S    
Cu2   N5    S    
C3    N2    A    
O10   C41   S    
C8    C9    A    
C4    N4    A    
C35   H11   S    
C39   C40   S    
C9    C10   A    
C8    H14   S    
C32   C37   S    
Cu2   O2    S    
C22   C28   A    
C13   C14   A    
C30   N6    A    
C46   H38   S    
C19   O11   S    
C33   C34   A    
C39   H21   S    
C4    C34   S    
C7    C31   S    
C24   C25   A    
C1    O1    A    
C43   C44   S    
C40   H24   S    
C12   O4    A    
C18   C19   A    
C37   H19   S    
C44   H33   S    
C43   H35   S    
C20   O9    S    
C38   H18   S    
C46   H39   S    
O9    C39   S    
C29   C30   A    
C12   O3    A    
C3    N3    A    
C45   H36   S    
Cu2   O6    S    
Cu1   O7    S    
C20   C21   A    
C44   H32   S    
C17   C18   A    
C26   C27   A    
C41   H26   S    
C11   H1    S    
Cu1   N6    S    
C14   H3    S    
C23   O5    A    
C45   H37   S    
C21   C23   S    
C33   H9    S    
C22   C24   A    
C9    H15   S    
C25   H7    S    
Cu1   O5    S    
C36   H12   S    
C29   N5    A    
Cu2   O4    S    
C2    C36   A    
N1    N2    A    
C11   C17   A    
C4    N1    A    
C37   C38   S    
C15   H4    S    
C39   H22   S    
C1    O2    A    
C40   H25   S    
C6    C7    A    
C28   N5    A    
C32   C33   A    
C23   O6    A    
C19   C20   A    
C42   H29   S    
C25   C26   A    
C5    C10   A    
C3    C10   S    
C27   N6    A    
C11   C13   A    
C16   C17   A    
C24   H6    S    
C44   H31   S    
C38   H16   S    
Cu1   O1    S    
C26   H8    S    
C40   H23   S    
C45   C46   S    
Cu2   O8    S    
O11   C45   S    
C42   H30   S    
C27   C28   A    
C14   C15   A    
C5    H13   S    
C22   H5    S    
C15   C16   A    
