data_mof_unit_48329.cif
_audit_creation_date              2012-12-11T15:08:44-0500
_audit_creation_method            fapswitch 2.2
_symmetry_space_group_name_H-M    P1
_symmetry_Int_Tables_number       1
_space_group_crystal_system       triclinic
_cell_length_a                    19.578122
_cell_length_b                    11.224494
_cell_length_c                    18.71271
_cell_angle_alpha                 90.000345
_cell_angle_beta                  90.864331
_cell_angle_gamma                 90.000304
_cell_volume                      4111.73457335

loop_
_atom_site_label
_atom_site_type_symbol
_atom_type_description
_atom_site_fract_x
_atom_site_fract_y
_atom_site_fract_z
_atom_type_partial_charge
C1    C     C_R   0.272838 0.043698 0.854073 0.535031
C2    C     C_3   0.688757 0.528712 0.955070 -0.233021
C3    C     C_R   0.225849 0.541924 0.355109 0.547588
C4    C     C_R   0.469269 0.821454 0.645817 0.568351
C5    C     C_R   0.530730 0.821454 0.354183 0.568396
C6    C     C_R   0.969272 0.321454 0.645818 0.568329
C7    C     C_R   0.030730 0.321454 0.354183 0.568277
C8    C     C_R   0.259350 0.636660 0.645346 0.532680
C9    C     C_R   0.740648 0.636664 0.354656 0.532694
C10   C     C_R   0.759351 0.136661 0.645346 0.532678
C11   C     C_R   0.240649 0.136661 0.354654 0.532660
C12   C     C_3   0.480090 0.916202 0.035535 -0.107500
C13   C     C_3   0.811243 0.028713 0.044929 -0.233018
C14   C     C_3   0.519911 0.916202 0.964465 -0.107501
C15   C     C_3   0.980090 0.416201 0.035535 -0.107494
C16   C     C_3   0.019911 0.416202 0.964466 -0.107497
C17   C     C_3   0.432079 0.817688 0.006192 -0.160255
C18   C     C_3   0.567921 0.817688 0.993808 -0.160256
C19   C     C_3   0.932079 0.317688 0.006191 -0.160261
C20   C     C_3   0.067921 0.317688 0.993809 -0.160259
C21   C     C_3   0.471833 0.819394 0.935972 0.057168
C22   C     C_3   0.528167 0.819394 0.064028 0.057173
C23   C     C_3   0.971834 0.319394 0.935972 0.057165
C24   C     C_3   0.188757 0.028712 0.955070 -0.233023
C25   C     C_3   0.028167 0.319393 0.064028 0.057160
C26   C     C_3   0.320686 0.551991 0.964494 -0.236715
C27   C     C_3   0.679314 0.551987 0.035506 -0.236720
C28   C     C_3   0.820686 0.051990 0.964494 -0.236719
C29   C     C_3   0.179314 0.051987 0.035506 -0.236715
C30   C     C_3   0.179820 0.524637 0.025091 -0.211268
C31   C     C_3   0.820181 0.524637 0.974908 -0.211269
C32   C     C_3   0.679820 0.024637 0.025091 -0.211269
C33   C     C_R   0.727162 0.043698 0.145927 0.535026
C34   C     C_3   0.320181 0.024637 0.974908 -0.211269
C35   C     C_3   0.241125 0.708941 0.056560 -0.257301
C36   C     C_3   0.758875 0.708940 0.943441 -0.257304
C37   C     C_3   0.741125 0.208941 0.056560 -0.257302
C38   C     C_3   0.258875 0.208940 0.943441 -0.257302
C39   C     C_3   0.240737 0.575341 0.070353 0.063115
C40   C     C_3   0.759264 0.575341 0.929647 0.063116
C41   C     C_3   0.740737 0.075342 0.070353 0.063111
C42   C     C_3   0.259263 0.075341 0.929647 0.063114
C43   C     C_3   0.255367 0.609894 0.932313 0.054437
C44   C     C_R   0.772838 0.543698 0.854073 0.535030
C45   C     C_3   0.744633 0.609893 0.067687 0.054440
C46   C     C_3   0.755367 0.109894 0.932313 0.054435
C47   C     C_3   0.244633 0.109893 0.067687 0.054432
C48   C     C_3   0.195165 0.525169 0.944537 -0.251498
C49   C     C_3   0.804835 0.525169 0.055463 -0.251500
C50   C     C_3   0.695165 0.025169 0.944537 -0.251497
C51   C     C_3   0.304835 0.025169 0.055462 -0.251497
C52   C     C_3   0.239424 0.726482 0.974518 -0.222652
C53   C     C_3   0.760576 0.726481 0.025483 -0.222648
C54   C     C_3   0.739424 0.226482 0.974518 -0.222647
C55   C     C_R   0.227162 0.543697 0.145927 0.535032
C56   C     C_3   0.260576 0.226481 0.025483 -0.222648
C57   C     C_3   0.511362 0.686514 0.461788 0.145408
C58   C     C_3   0.488635 0.686514 0.538210 0.145389
C59   C     C_3   0.011364 0.186514 0.461789 0.145398
C60   C     C_3   0.988638 0.186514 0.538211 0.145428
C61   C     C_R   0.443745 0.816909 0.862386 0.533553
C62   C     C_R   0.556255 0.816909 0.137614 0.533580
C63   C     C_R   0.943746 0.316909 0.862386 0.533549
C64   C     C_R   0.056255 0.316909 0.137614 0.533516
C65   C     C_3   0.563020 0.895725 0.473941 -0.288380
C66   C     C_3   0.519411 0.721333 0.964701 -0.111832
C67   C     C_3   0.436981 0.895726 0.526060 -0.288380
C68   C     C_3   0.063022 0.395724 0.473941 -0.288365
C69   C     C_3   0.936984 0.395725 0.526063 -0.288366
C70   C     C_3   0.440025 0.871301 0.444644 -0.292199
C71   C     C_3   0.559976 0.871299 0.555356 -0.292205
C72   C     C_3   0.940026 0.371301 0.444647 -0.292203
C73   C     C_3   0.059979 0.371298 0.555356 -0.292195
C74   C     C_3   0.510186 0.818314 0.430442 -0.006850
C75   C     C_3   0.489813 0.818314 0.569558 -0.006861
C76   C     C_3   0.010188 0.318314 0.430443 -0.006882
C77   C     C_3   0.480588 0.721333 0.035298 -0.111833
C78   C     C_3   0.989817 0.318314 0.569559 -0.006866
C79   C     C_3   0.174752 0.640891 0.460588 -0.219447
C80   C     C_3   0.825248 0.640891 0.539413 -0.219414
C81   C     C_3   0.674752 0.140890 0.460588 -0.219371
C82   C     C_3   0.325248 0.140889 0.539411 -0.219398
C83   C     C_3   0.180077 0.655926 0.540184 -0.213872
C84   C     C_3   0.819921 0.655926 0.459818 -0.213886
C85   C     C_3   0.680075 0.155920 0.540184 -0.213852
C86   C     C_3   0.319922 0.155927 0.459817 -0.213842
C87   C     C_3   0.249201 0.451113 0.474300 -0.226337
C88   C     C_3   0.019412 0.221333 0.964701 -0.111832
C89   C     C_3   0.750799 0.451115 0.525702 -0.226331
C90   C     C_3   0.749203 0.951113 0.474300 -0.226346
C91   C     C_3   0.250799 0.951111 0.525698 -0.226349
C92   C     C_3   0.297752 0.648700 0.446994 -0.271189
C93   C     C_3   0.702247 0.648699 0.553010 -0.271187
C94   C     C_3   0.797752 0.148700 0.446993 -0.271186
C95   C     C_3   0.202248 0.148697 0.553006 -0.271184
C96   C     C_3   0.236708 0.569636 0.431915 0.044224
C97   C     C_3   0.763291 0.569638 0.568088 0.044200
C98   C     C_3   0.736709 0.069636 0.431915 0.044159
C99   C     C_3   0.980588 0.221332 0.035298 -0.111833
C100  C     C_3   0.263292 0.069634 0.568084 0.044179
C101  C     C_3   0.248131 0.601487 0.569973 0.051016
C102  C     C_3   0.751866 0.601491 0.430029 0.051010
C103  C     C_3   0.748132 0.101488 0.569973 0.050987
C104  C     C_3   0.251868 0.101488 0.430026 0.050981
C105  C     C_3   0.242651 0.467799 0.556215 -0.271951
C106  C     C_3   0.757342 0.467803 0.443785 -0.271944
C107  C     C_3   0.742655 0.967800 0.556216 -0.271957
C108  C     C_3   0.257348 0.967800 0.443782 -0.271954
C109  C     C_R   0.262445 0.641797 0.855016 0.526623
C110  C     C_3   0.311243 0.528713 0.044930 -0.233025
C111  C     C_R   0.737555 0.641795 0.144984 0.526634
C112  C     C_R   0.762445 0.141797 0.855016 0.526620
C113  C     C_R   0.237555 0.141795 0.144984 0.526606
C114  C     C_3   0.311019 0.644878 0.528052 -0.224205
C115  C     C_3   0.688979 0.644881 0.471954 -0.224205
C116  C     C_3   0.811019 0.144883 0.528050 -0.224190
C117  C     C_3   0.188980 0.144877 0.471950 -0.224198
C118  C     C_R   0.274151 0.041923 0.644890 0.547573
C119  C     C_R   0.725850 0.041924 0.355110 0.547559
C120  C     C_R   0.774151 0.541924 0.644894 0.547591
Cr1   Cr    Cr6+3 0.229620 0.836040 0.749110 1.032876
Cr2   Cr    Cr6+3 0.613980 0.676590 0.250790 1.063414
Cr3   Cr    Cr6+3 0.886020 0.176590 0.749210 1.063757
Cr4   Cr    Cr6+3 0.113980 0.176590 0.250790 1.064079
Cr5   Cr    Cr6+3 0.770380 0.836040 0.250890 1.032940
Cr6   Cr    Cr6+3 0.729620 0.336040 0.749110 1.032863
Cr7   Cr    Cr6+3 0.270380 0.336040 0.250890 1.032821
Cr8   Cr    Cr6+3 0.387630 0.990680 0.750730 1.004153
Cr9   Cr    Cr6+3 0.612370 0.990680 0.249270 1.004158
Cr10  Cr    Cr6+3 0.887630 0.490680 0.750730 1.004138
Cr11  Cr    Cr6+3 0.112370 0.490680 0.249270 1.004135
Cr12  Cr    Cr6+3 0.386020 0.676590 0.749210 1.063672
H1    H     H_    0.377786 0.804145 0.017180 0.092689
H2    H     H_    0.712354 0.747165 0.918317 0.107742
H3    H     H_    0.197325 0.925720 0.535442 0.171485
H4    H     H_    0.283943 0.418969 0.585209 0.133997
H5    H     H_    0.716046 0.418978 0.414795 0.134025
H6    H     H_    0.783948 0.918973 0.585208 0.134000
H7    H     H_    0.216056 0.918970 0.414788 0.133971
H8    H     H_    0.317628 0.434236 0.056545 0.132114
H9    H     H_    0.682372 0.434234 0.943453 0.132119
H10   H     H_    0.817628 0.934236 0.056545 0.132126
H11   H     H_    0.182372 0.934234 0.943453 0.132122
H12   H     H_    0.352782 0.573535 0.075807 0.116541
H13   H     H_    0.787646 0.247166 0.081684 0.107743
H14   H     H_    0.647218 0.573534 0.924193 0.116549
H15   H     H_    0.852782 0.073535 0.075807 0.116567
H16   H     H_    0.147218 0.073533 0.924193 0.116554
H17   H     H_    0.365277 0.611351 0.956722 0.133635
H18   H     H_    0.634723 0.611346 0.043278 0.133637
H19   H     H_    0.865277 0.111350 0.956722 0.133636
H20   H     H_    0.134723 0.111346 0.043278 0.133634
H21   H     H_    0.331854 0.466771 0.936725 0.118319
H22   H     H_    0.668147 0.466767 0.063274 0.118307
H23   H     H_    0.831854 0.966770 0.936725 0.118326
H24   H     H_    0.212354 0.247165 0.918317 0.107742
H25   H     H_    0.168147 0.966767 0.063274 0.118339
H26   H     H_    0.664061 0.939178 0.046176 0.097978
H27   H     H_    0.335939 0.939179 0.953823 0.097977
H28   H     H_    0.164061 0.439178 0.046176 0.097975
H29   H     H_    0.835939 0.439179 0.953823 0.097977
H30   H     H_    0.708075 0.935636 0.925455 0.112489
H31   H     H_    0.291925 0.935636 0.074544 0.112490
H32   H     H_    0.208076 0.435636 0.925455 0.112488
H33   H     H_    0.791925 0.435636 0.074544 0.112486
H34   H     H_    0.522073 0.410656 0.355503 0.355815
H35   H     H_    0.274115 0.796375 0.958607 0.108284
H36   H     H_    0.477909 0.410249 0.644089 0.355902
H37   H     H_    0.022112 0.909601 0.356552 0.356005
H38   H     H_    0.977920 0.910106 0.643971 0.355867
H39   H     H_    0.725883 0.796372 0.041395 0.108284
H40   H     H_    0.774115 0.296375 0.958607 0.108285
H41   H     H_    0.225884 0.296373 0.041395 0.108284
H42   H     H_    0.186491 0.752731 0.959711 0.132912
H43   H     H_    0.813508 0.752732 0.040291 0.132916
H44   H     H_    0.686491 0.252731 0.959711 0.132907
H45   H     H_    0.622214 0.804143 0.982820 0.092690
H46   H     H_    0.313508 0.252731 0.040290 0.132908
H47   H     H_    0.633674 0.081014 0.033147 0.136632
H48   H     H_    0.366326 0.081016 0.966854 0.136634
H49   H     H_    0.133674 0.581014 0.033146 0.136643
H50   H     H_    0.866326 0.581015 0.966854 0.136639
H51   H     H_    0.149136 0.554903 0.913953 0.127440
H52   H     H_    0.850865 0.554905 0.086046 0.127443
H53   H     H_    0.649135 0.054904 0.913953 0.127439
H54   H     H_    0.350865 0.054905 0.086047 0.127437
H55   H     H_    0.564104 0.666869 0.465452 0.138978
H56   H     H_    0.877786 0.304144 0.017178 0.092689
H57   H     H_    0.435893 0.666869 0.534544 0.138960
H58   H     H_    0.064106 0.166870 0.465454 0.138984
H59   H     H_    0.935895 0.166872 0.534548 0.138996
H60   H     H_    0.614463 0.888336 0.453841 0.116565
H61   H     H_    0.385538 0.888335 0.546159 0.116566
H62   H     H_    0.114465 0.388334 0.453840 0.116576
H63   H     H_    0.885544 0.388326 0.546165 0.116574
H64   H     H_    0.600036 0.807800 0.572448 0.141340
H65   H     H_    0.399963 0.807804 0.427551 0.141349
H66   H     H_    0.100039 0.307797 0.572447 0.141338
H67   H     H_    0.122214 0.304144 0.982821 0.092689
H68   H     H_    0.899964 0.307803 0.427555 0.141319
H69   H     H_    0.465026 0.997365 0.065156 0.115549
H70   H     H_    0.534976 0.997364 0.934845 0.115553
H71   H     H_    0.965025 0.497364 0.065156 0.115564
H72   H     H_    0.034976 0.497365 0.934846 0.115557
H73   H     H_    0.432845 0.955160 0.414039 0.127099
H74   H     H_    0.567156 0.955157 0.585962 0.127088
H75   H     H_    0.932846 0.455160 0.414042 0.127065
H76   H     H_    0.067161 0.455155 0.585963 0.127071
H77   H     H_    0.452567 0.989339 0.534317 0.147253
H78   H     H_    0.196286 0.753555 0.080734 0.127532
H79   H     H_    0.547434 0.989339 0.465685 0.147263
H80   H     H_    0.952569 0.489340 0.534321 0.147210
H81   H     H_    0.047435 0.489338 0.465686 0.147194
H82   H     H_    0.126180 0.599751 0.446529 0.143993
H83   H     H_    0.873818 0.599746 0.553470 0.144033
H84   H     H_    0.626180 0.099752 0.446527 0.144097
H85   H     H_    0.373820 0.099747 0.553470 0.144065
H86   H     H_    0.171834 0.730133 0.434844 0.138267
H87   H     H_    0.828168 0.730132 0.565158 0.138352
H88   H     H_    0.671836 0.230134 0.434846 0.138440
H89   H     H_    0.803714 0.753555 0.919268 0.127519
H90   H     H_    0.328167 0.230130 0.565157 0.138380
H91   H     H_    0.174671 0.750572 0.552474 0.162911
H92   H     H_    0.825328 0.750571 0.447528 0.162903
H93   H     H_    0.674659 0.250564 0.552477 0.162951
H94   H     H_    0.325328 0.250573 0.447528 0.162952
H95   H     H_    0.135553 0.613376 0.565877 0.125156
H96   H     H_    0.864444 0.613373 0.434124 0.125132
H97   H     H_    0.635553 0.113357 0.565874 0.125180
H98   H     H_    0.364447 0.113378 0.434123 0.125214
H99   H     H_    0.719389 0.878723 0.453233 0.108744
H100  H     H_    0.696286 0.253555 0.080734 0.127506
H101  H     H_    0.280612 0.878721 0.546763 0.108743
H102  H     H_    0.219388 0.378722 0.453232 0.108734
H103  H     H_    0.780614 0.378732 0.546761 0.108738
H104  H     H_    0.693243 0.934023 0.575374 0.113335
H105  H     H_    0.306761 0.934027 0.424624 0.113341
H106  H     H_    0.193238 0.434026 0.575372 0.113337
H107  H     H_    0.806751 0.434026 0.424621 0.113328
H108  H     H_    0.341521 0.614597 0.418736 0.220396
H109  H     H_    0.658478 0.614593 0.581268 0.220387
H110  H     H_    0.841523 0.114596 0.418735 0.220387
H111  H     H_    0.303714 0.253555 0.919268 0.127514
H112  H     H_    0.158479 0.114594 0.581265 0.220408
H113  H     H_    0.288563 0.739986 0.427762 0.104333
H114  H     H_    0.711436 0.739983 0.572245 0.104326
H115  H     H_    0.788564 0.239984 0.427757 0.104307
H116  H     H_    0.211437 0.239982 0.572240 0.104315
H117  H     H_    0.534600 0.639549 0.935745 0.127294
H118  H     H_    0.465399 0.639549 0.064254 0.127280
H119  H     H_    0.034601 0.139549 0.935745 0.127302
H120  H     H_    0.965399 0.139548 0.064253 0.127318
H121  H     H_    0.333143 0.726270 0.548910 0.092104
H122  H     H_    0.287646 0.747166 0.081684 0.107743
H123  H     H_    0.666856 0.726275 0.451098 0.092097
H124  H     H_    0.833143 0.226275 0.548909 0.092090
H125  H     H_    0.166858 0.226271 0.451093 0.092093
H126  H     H_    0.349713 0.574973 0.538340 0.203493
H127  H     H_    0.650284 0.574979 0.461666 0.203526
H128  H     H_    0.849713 0.074980 0.538339 0.203526
H129  H     H_    0.150287 0.074973 0.461660 0.203489
H130  H     H_    0.302675 0.425723 0.464556 0.171490
H131  H     H_    0.697328 0.425712 0.535452 0.171500
H132  H     H_    0.802677 0.925723 0.464555 0.171509
O1    O     O_R   0.214130 0.708570 0.829890 -0.528136
O2    O     O_R   0.542830 0.717300 0.331620 -0.422380
O3    O     O_R   0.957170 0.217300 0.668380 -0.422202
O4    O     O_R   0.042830 0.217300 0.331620 -0.422040
O5    O     O_R   0.320870 0.624890 0.673130 -0.488605
O6    O     O_R   0.679130 0.624890 0.326870 -0.488664
O7    O     O_R   0.820870 0.124890 0.673130 -0.488587
O8    O     O_R   0.179130 0.124890 0.326870 -0.488513
O9    O     O_3   0.334430 0.834430 0.749680 -0.306033
O10   O     O_3   0.665570 0.834430 0.250320 -0.306013
O11   O     O_3   0.834430 0.334430 0.749680 -0.306038
O12   O     O_R   0.785870 0.708570 0.170110 -0.528118
O13   O     O_3   0.165570 0.334430 0.250320 -0.306069
O14   O     O_R   0.236050 0.959150 0.825270 -0.507202
O15   O     O_R   0.763950 0.959150 0.174730 -0.507185
O16   O     O_R   0.736050 0.459150 0.825270 -0.507208
O17   O     O_R   0.263950 0.459150 0.174730 -0.507221
O18   O     O_R   0.332100 0.076650 0.832310 -0.532581
O19   O     O_R   0.667900 0.076650 0.167690 -0.532596
O20   O     O_R   0.832100 0.576650 0.832310 -0.532576
O21   O     O_R   0.167900 0.576650 0.167690 -0.532556
O22   O     O_R   0.446500 0.918620 0.826240 -0.504849
O23   O     O_R   0.714130 0.208570 0.829890 -0.528140
O24   O     O_R   0.553500 0.918620 0.173760 -0.504845
O25   O     O_R   0.946500 0.418620 0.826240 -0.504852
O26   O     O_R   0.053500 0.418620 0.173760 -0.504857
O27   O     O_R   0.457310 0.715830 0.831280 -0.510674
O28   O     O_R   0.542690 0.715830 0.168720 -0.510721
O29   O     O_R   0.957310 0.215830 0.831280 -0.510661
O30   O     O_R   0.042690 0.215830 0.168720 -0.510603
O31   O     O_R   0.321000 0.623520 0.824130 -0.522438
O32   O     O_R   0.679000 0.623520 0.175870 -0.522461
O33   O     O_R   0.821000 0.123520 0.824130 -0.522430
O34   O     O_R   0.285870 0.208570 0.170110 -0.528157
O35   O     O_R   0.179000 0.123520 0.175870 -0.522402
O36   O     O_R   0.213990 0.710040 0.667000 -0.527096
O37   O     O_R   0.786010 0.710040 0.333000 -0.527089
O38   O     O_R   0.713990 0.210040 0.667000 -0.527095
O39   O     O_R   0.286010 0.210040 0.333000 -0.527103
O40   O     O_R   0.235920 0.960520 0.674260 -0.479847
O41   O     O_R   0.764080 0.960520 0.325740 -0.479840
O42   O     O_R   0.735920 0.460520 0.674260 -0.479867
O43   O     O_R   0.264080 0.460520 0.325740 -0.479862
O44   O     O_R   0.331960 0.078120 0.669410 -0.533281
O45   O     O_R   0.446360 0.919990 0.675230 -0.516434
O46   O     O_R   0.668040 0.078120 0.330590 -0.533267
O47   O     O_R   0.831960 0.578120 0.669410 -0.533296
O48   O     O_R   0.168040 0.578120 0.330590 -0.533304
O49   O     O_2   0.434541 0.477832 0.457488 -0.305227
O50   O     O_2   0.434007 0.597186 0.347540 -0.314620
O51   O     O_3   0.542795 0.478979 0.381403 -0.492864
O52   O     O_2   0.565454 0.477838 0.542502 -0.305381
O53   O     O_2   0.565990 0.597174 0.652459 -0.314348
O54   O     O_3   0.457199 0.478983 0.618596 -0.492965
O55   O     O_2   0.934545 0.977849 0.457505 -0.306046
O56   O     O_R   0.553640 0.919990 0.324770 -0.516407
O57   O     O_2   0.934010 0.097152 0.347537 -0.313851
O58   O     O_3   0.042801 0.978984 0.381401 -0.493059
O59   O     O_2   0.065456 0.977842 0.542502 -0.305855
O60   O     O_2   0.065993 0.097172 0.652461 -0.314212
O61   O     O_3   0.957203 0.978983 0.618600 -0.492891
O62   O     O_R   0.946360 0.419990 0.675230 -0.516448
O63   O     O_R   0.053640 0.419990 0.324770 -0.516478
O64   O     O_R   0.457170 0.717300 0.668380 -0.422245
S1    S     S_3+6 0.476230 0.558627 0.411299 0.006165
S2    S     S_3+6 0.523766 0.558626 0.588697 0.006180
S3    S     S_3+6 0.976234 0.058625 0.411301 0.006116
S4    S     S_3+6 0.023769 0.058627 0.588700 0.006090

loop_
_geom_bond_atom_site_label_1
_geom_bond_atom_site_label_2
_ccdc_geom_bond_type
C37   H100  S    
C9    O6    A    
C31   H29   S    
C113  O34   A    
C46   C112  S    
C11   O8    A    
C34   C42   S    
C33   O19   A    
C14   C21   S    
C90   C107  S    
Cr2   O10   S    
C81   H84   S    
C54   H44   S    
C5    C74   S    
Cr9   O19   S    
C36   C53   S    
C18   H45   S    
C89   C106  S    
C70   C74   S    
C35   H122  S    
C91   C100  S    
C94   H115  S    
C85   C103  S    
C83   H91   S    
C59   C60   S    
Cr9   O10   S    
C85   H97   S    
Cr1   O1    S    
Cr11  O21   S    
C19   C99   S    
C61   O27   A    
C81   H88   S    
Cr4   O4    S    
C17   C21   S    
C19   C23   S    
C19   H56   S    
C49   H52   S    
C16   C20   S    
C85   H93   S    
C13   H10   S    
C68   H81   S    
C87   H130  S    
Cr4   O35   S    
C48   H32   S    
C73   H76   S    
C10   O7    A    
C17   H1    S    
C120  O47   A    
C104  C117  S    
C116  H124  S    
C66   C77   S    
C18   C66   S    
C26   H17   S    
C10   O38   A    
C15   H71   S    
C45   C111  S    
C82   H90   S    
O57   S3    D    
C107  H6    S    
C103  C116  S    
C79   C96   S    
C115  H127  S    
Cr7   O34   S    
C67   H77   S    
C62   O24   A    
Cr8   O9    S    
C57   H55   S    
C88   C99   S    
C65   C74   S    
C2    C40   S    
C108  H105  S    
C81   C98   S    
C55   O17   A    
C103  C107  S    
C77   H118  S    
C16   H72   S    
C2    H14   S    
Cr8   O44   S    
C21   C66   S    
C50   H30   S    
C84   C102  S    
C3    O48   A    
Cr8   O18   S    
C86   C104  S    
C56   H46   S    
C95   C117  S    
C38   H111  S    
C60   C78   S    
C34   C51   S    
C29   C47   S    
C30   C48   S    
C43   C52   S    
C6    C78   S    
C22   C62   S    
C24   H11   S    
C59   S3    S    
C4    O64   A    
Cr1   O36   S    
C64   O26   A    
C6    O62   A    
C8    O36   A    
C119  O46   A    
C32   C41   S    
C89   H131  S    
C90   H132  S    
Cr5   O37   S    
C34   H27   S    
C27   H22   S    
C45   C53   S    
Cr3   O33   S    
Cr4   O30   S    
Cr3   O11   S    
C92   C96   S    
C54   H40   S    
C109  O1    A    
C53   H39   S    
C106  H5    S    
C109  O31   A    
C111  O12   A    
C62   O28   A    
Cr8   O45   S    
C25   C64   S    
C69   C72   S    
C87   C105  S    
C73   H66   S    
Cr12  O27   S    
C61   O22   A    
C11   C104  S    
C27   H18   S    
C23   C88   S    
C7    O63   A    
C67   C75   S    
C13   H15   S    
Cr3   O29   S    
C93   C97   S    
C6    O3    A    
C53   H43   S    
Cr3   O7    S    
C92   H108  S    
C119  O41   A    
C18   C22   S    
C36   H2    S    
C108  H7    S    
Cr11  O63   S    
C7    C76   S    
C16   C23   S    
C91   H101  S    
C28   C46   S    
C67   C70   S    
C89   H103  S    
C51   H54   S    
C93   H109  S    
C57   C58   S    
C44   O16   A    
C82   H85   S    
Cr12  O9    S    
C14   H70   S    
Cr10  O25   S    
O52   S2    D    
C30   C39   S    
C37   C41   S    
Cr9   O56   S    
Cr12  O64   S    
C38   C56   S    
C28   H19   S    
C26   H21   S    
C68   H62   S    
O59   S4    D    
C43   C109  S    
C59   C76   S    
C60   S4    S    
C81   C85   S    
O50   S1    D    
C47   C56   S    
C107  H104  S    
H37   O58   S    
C52   H42   S    
C24   C42   S    
C34   H48   S    
C80   C84   S    
C80   H87   S    
C13   C41   S    
Cr2   O32   S    
C70   H73   S    
C15   C19   S    
Cr2   O2    S    
C10   C103  S    
C35   H78   S    
C52   H35   S    
C80   C97   S    
C20   C25   S    
C94   C98   S    
C44   O20   A    
C55   O21   A    
C31   C40   S    
O49   S1    D    
C24   C29   S    
C4    C75   S    
C102  C115  S    
Cr10  O62   S    
C25   C99   S    
C79   H82   S    
C39   C55   S    
C9    C102  S    
C12   C17   S    
C28   H23   S    
C13   C28   S    
C51   H31   S    
C2    C27   S    
C112  O23   A    
C38   H24   S    
C83   C101  S    
C8    C101  S    
O51   S1    S    
C21   C61   S    
C95   H112  S    
C117  H129  S    
C27   C45   S    
C23   C63   S    
C5    O2    A    
C113  O35   A    
C92   H113  S    
C101  C114  S    
C31   C49   S    
C80   H83   S    
Cr5   O10   S    
Cr9   O24   S    
Cr1   O40   S    
C86   H98   S    
Cr1   O14   S    
C84   H92   S    
Cr12  O5    S    
C94   C116  S    
C95   C100  S    
C47   C51   S    
Cr4   O8    S    
C82   C86   S    
C35   C39   S    
C49   H33   S    
Cr6   O38   S    
C45   C49   S    
Cr7   O43   S    
C46   C54   S    
C17   C77   S    
Cr2   O28   S    
C69   H80   S    
Cr7   O13   S    
C110  H12   S    
C88   H119  S    
C31   H50   S    
C30   H49   S    
C100  C118  S    
C104  C108  S    
C47   C113  S    
C114  H121  S    
C91   C108  S    
C22   C77   S    
C99   H120  S    
C48   H51   S    
C29   H25   S    
Cr4   O13   S    
Cr6   O42   S    
O53   S2    D    
Cr11  O48   S    
Cr12  O31   S    
C56   H41   S    
C33   C41   S    
C1    O14   A    
C79   C83   S    
O55   S3    D    
C20   C88   S    
Cr1   O9    S    
Cr11  O13   S    
C15   C25   S    
C93   H114  S    
Cr2   O6    S    
Cr3   O3    S    
C1    C42   S    
C91   H3    S    
C35   C52   S    
C120  O42   A    
C59   H58   S    
H34   O51   S    
C5    O56   A    
C58   C75   S    
Cr5   O12   S    
Cr6   O11   S    
C12   C22   S    
C14   C18   S    
C63   O29   A    
C72   C76   S    
C98   C119  S    
C83   H95   S    
C30   H28   S    
C87   H102  S    
C38   C42   S    
Cr7   O39   S    
C1    O18   A    
C4    O45   A    
C15   C16   S    
C58   S2    S    
O61   S4    S    
C93   C115  S    
Cr10  O20   S    
C71   H74   S    
C118  O44   A    
C73   C78   S    
C32   H47   S    
C3    C96   S    
C43   C48   S    
C26   C110  S    
C116  H128  S    
C66   H117  S    
Cr6   O23   S    
Cr5   O41   S    
C69   C78   S    
C26   C43   S    
C72   H75   S    
C32   H26   S    
Cr10  O47   S    
C39   C110  S    
C101  C105  S    
C36   C40   S    
H36   O54   S    
C24   H16   S    
C79   H86   S    
Cr5   O15   S    
C68   C73   S    
C65   C71   S    
Cr6   O16   S    
C89   C97   S    
C57   C74   S    
C20   H67   S    
C9    O37   A    
C8    O5    A    
C95   H116  S    
C72   H68   S    
C117  H125  S    
C11   O39   A    
C65   H60   S    
C40   C44   S    
C105  H106  S    
C87   C96   S    
C58   H57   S    
C118  O40   A    
C12   H69   S    
C114  H126  S    
C32   C50   S    
C105  H4    S    
C37   C54   S    
C12   C14   S    
C70   H65   S    
C86   H94   S    
C90   H99   S    
C84   H96   S    
C33   O15   A    
C57   S1    S    
C111  O32   A    
Cr11  O26   S    
C82   C100  S    
H38   O61   S    
Cr9   O46   S    
C69   H63   S    
O60   S4    D    
C46   C50   S    
C112  O33   A    
C106  H107  S    
Cr7   O17   S    
C97   C120  S    
C110  H8    S    
C94   H110  S    
Cr8   O22   S    
C29   H20   S    
C71   C75   S    
C68   C76   S    
C71   H64   S    
C60   H59   S    
O58   S3    S    
C36   H89   S    
C102  C106  S    
C7    O4    A    
C65   H79   S    
C115  H123  S    
C63   O25   A    
C2    H9    S    
C3    O43   A    
O54   S2    S    
C64   O30   A    
C37   H13   S    
Cr10  O11   S    
C67   H61   S    
C50   H53   S    
C92   C114  S    
C90   C98   S    
