data_mof_unit_63090.cif
_audit_creation_date              2012-12-10T19:17:49-0500
_audit_creation_method            fapswitch 2.2
_symmetry_space_group_name_H-M    P1
_symmetry_Int_Tables_number       1
_space_group_crystal_system       triclinic
_cell_length_a                    15.993869
_cell_length_b                    14.804992
_cell_length_c                    10.6632
_cell_angle_alpha                 90.289672
_cell_angle_beta                  90.009515
_cell_angle_gamma                 89.993879
_cell_volume                      2524.89724074

loop_
_atom_site_label
_atom_site_type_symbol
_atom_type_description
_atom_site_fract_x
_atom_site_fract_y
_atom_site_fract_z
_atom_type_partial_charge
C1    C     C_R   0.340894 0.500003 0.500054 0.834255
C2    C     C_R   0.659106 0.499997 0.499946 0.834255
C3    C     C_1   0.823300 0.499992 0.499924 -0.051208
C4    C     C_1   0.176700 0.500008 0.500076 -0.051208
C5    C     C_R   0.956359 0.581714 0.491194 -0.159393
C6    C     C_R   0.043641 0.418286 0.508806 -0.159393
C7    C     C_R   0.043620 0.581719 0.491244 -0.165164
C8    C     C_R   0.956380 0.418281 0.508756 -0.165164
C9    C     C_R   0.912770 0.499995 0.499949 0.146100
C10   C     C_R   0.087230 0.500005 0.500051 0.146100
C11   C     C_R   0.499805 0.499719 0.258928 0.850616
C12   C     C_R   0.500195 0.500281 0.741072 0.850616
C13   C     C_1   0.251760 0.500009 0.500076 -0.144014
C14   C     C_1   0.748239 0.499991 0.499924 -0.144014
C15   C     C_R   0.508761 0.952565 0.613904 0.399819
C16   C     C_R   0.491238 0.047434 0.386096 0.399819
C17   C     C_R   0.491270 0.951738 0.386094 0.401803
C18   C     C_R   0.508729 0.048262 0.613905 0.401803
C19   C     C_R   0.500021 0.902667 0.499998 -0.350064
C20   C     C_R   0.499979 0.097333 0.500002 -0.350064
C21   C     C_3   0.430968 0.543885 0.042090 -0.285726
C22   C     C_3   0.569032 0.456115 0.957910 -0.285726
C23   C     C_3   0.500754 0.586853 0.960160 -0.231731
C24   C     C_3   0.499246 0.413147 0.039839 -0.231731
C25   C     C_3   0.432722 0.459186 0.958134 0.459358
C26   C     C_3   0.567278 0.540814 0.041865 0.459358
C27   C     C_3   0.500812 0.501038 0.877302 -0.077112
C28   C     C_3   0.499188 0.498962 0.122698 -0.077112
C29   C     C_1   0.500008 0.802424 0.499998 0.175229
C30   C     C_1   0.499991 0.197576 0.500002 0.175229
Cu1   Cu    Cu3+1 0.500000 0.589220 0.500000 1.006781
Cu2   Cu    Cu3+1 0.500000 0.410780 0.500000 1.006781
H1    H     H_    0.373971 0.577859 0.078451 0.163765
H2    H     H_    0.626029 0.422140 0.921548 0.163765
H3    H     H_    0.503170 0.657547 0.926107 0.180088
H4    H     H_    0.496830 0.342453 0.073892 0.180088
H5    H     H_    0.077013 0.645189 0.484441 0.147916
H6    H     H_    0.922987 0.354811 0.515559 0.147916
H7    H     H_    0.922949 0.645180 0.484358 0.149700
H8    H     H_    0.077051 0.354820 0.515642 0.149700
N1    N     N_1   0.500000 0.276710 0.500000 -0.153528
N2    N     N_1   0.500000 0.723290 0.500000 -0.153528
O1    O     O_R   0.380310 0.575320 0.500020 -0.575815
O2    O     O_R   0.619690 0.424680 0.499980 -0.575815
O3    O     O_R   0.619690 0.575320 0.499980 -0.562931
O4    O     O_R   0.380310 0.424680 0.500020 -0.562931
O5    O     O_R   0.499980 0.575330 0.316850 -0.555290
O6    O     O_R   0.500020 0.424670 0.683150 -0.555290
O7    O     O_R   0.500020 0.575330 0.683150 -0.595085
O8    O     O_R   0.499980 0.424670 0.316850 -0.595085
O9    O     O_3   0.517579 0.090530 0.729345 -0.636935
H9    H     H_    0.516620 0.156892 0.719990 0.331846
O10   O     O_3   0.482421 0.909470 0.270655 -0.636935
H10   H     H_    0.483380 0.843108 0.280009 0.331846
O11   O     O_3   0.482357 0.088864 0.270658 -0.640110
H11   H     H_    0.483078 0.155296 0.280009 0.324750
O12   O     O_3   0.517643 0.911136 0.729342 -0.640110
H12   H     H_    0.516922 0.844704 0.719991 0.324750
O13   O     O_3   0.361963 0.416346 0.909032 -0.711663
H13   H     H_    0.329574 0.396061 0.982948 0.323740
O14   O     O_3   0.638037 0.583654 0.090968 -0.711663
H14   H     H_    0.670426 0.603939 0.017052 0.323740

loop_
_geom_bond_atom_site_label_1
_geom_bond_atom_site_label_2
_ccdc_geom_bond_type
C6    C10   A    
C7    C10   A    
Cu2   N1    S    
C30   N1    T    
C5    C9    A    
C3    C9    S    
Cu1   N2    S    
C23   C27   S    
C29   N2    T    
C15   C18   A    
C15   O12   S    
C11   O5    A    
Cu1   Cu2   S    
C12   O6    A    
C16   C20   A    
Cu2   O4    S    
C21   H1    S    
O11   H11   S    
C5    H7    S    
C12   O7    A    
C7    H5    S    
C16   O11   S    
C22   C26   S    
O13   H13   S    
C11   O8    A    
Cu1   O5    S    
O10   H10   S    
C20   C30   S    
C15   C19   A    
Cu2   O6    S    
Cu2   O8    S    
O12   H12   S    
C24   H4    S    
C3    C14   T    
Cu1   O1    S    
C8    H6    S    
Cu1   O7    S    
C2    C14   S    
C11   C28   S    
C17   C19   A    
C21   C28   S    
C18   O9    S    
C23   H3    S    
C22   C27   S    
C21   C23   S    
C2    O3    A    
Cu2   O2    S    
O14   H14   S    
C22   H2    S    
C22   C24   S    
C1    O4    A    
C25   C27   S    
C12   C27   S    
C4    C10   S    
O9    H9    S    
C19   C29   S    
C17   O10   S    
C6    H8    S    
C1    C13   S    
C24   C25   S    
C18   C20   A    
Cu1   O3    S    
C23   C26   S    
C4    C13   T    
C5    C7    A    
C21   C25   S    
C8    C9    A    
C6    C8    A    
C25   O13   S    
C26   C28   S    
C1    O1    A    
C24   C28   S    
C2    O2    A    
C16   C17   A    
C26   O14   S    
