data_mof_unit_18266.cif
_audit_creation_date              2012-10-26T19:45:53-0400
_audit_creation_method            fapswitch 2.2
_symmetry_space_group_name_H-M    P1
_symmetry_Int_Tables_number       1
_space_group_crystal_system       triclinic
_cell_length_a                    10.827067
_cell_length_b                    9.604864
_cell_length_c                    15.891752
_cell_angle_alpha                 90.055949
_cell_angle_beta                  92.820565
_cell_angle_gamma                 90.001848
_cell_volume                      1650.62023615

loop_
_atom_site_label
_atom_site_type_symbol
_atom_type_description
_atom_site_fract_x
_atom_site_fract_y
_atom_site_fract_z
_atom_type_partial_charge
C1    C     C_R   0.262311 0.499998 0.499645 0.533180
C2    C     C_R   0.936123 0.626510 0.499477 -0.144008
C3    C     C_R   0.871670 0.500001 0.499626 0.018410
C4    C     C_R   0.128326 0.499997 0.499277 0.017426
C5    C     C_R   0.420807 0.074425 0.445312 0.147151
C6    C     C_R   0.420795 0.925415 0.445315 0.147538
C7    C     C_R   0.499511 0.499924 0.340494 0.532312
C8    C     C_R   0.577873 0.926117 0.553655 -0.008272
C9    C     C_R   0.577877 0.074053 0.553653 -0.007803
C10   C     C_R   0.737691 0.500001 0.500054 0.549257
C11   C     C_R   0.499879 0.500076 0.659615 0.552664
C12   C     C_3   0.607106 0.448479 0.954356 -0.231274
C13   C     C_3   0.431552 0.651067 0.048037 0.194129
C14   C     C_3   0.380826 0.382502 0.045611 0.199146
C15   C     C_3   0.378613 0.396988 0.944524 -0.054224
C16   C     C_3   0.459127 0.653313 0.950543 -0.058759
C17   C     C_1   0.494956 0.500374 0.748968 -0.043659
C18   C     C_3   0.479144 0.499597 0.083074 0.157347
C19   C     C_3   0.480237 0.501824 0.916359 0.027432
C20   C     C_3   0.373961 0.747579 0.893837 -0.423672
C21   C     C_3   0.250006 0.420564 0.899219 -0.408526
C22   C     C_3   0.251437 0.724879 0.137128 -0.308069
C23   C     C_3   0.617357 0.466310 0.052207 0.012798
C24   C     C_3   0.228695 0.378415 0.164693 -0.297803
C25   C     C_3   0.416583 0.228885 0.068374 -0.393439
C26   C     C_3   0.496299 0.781726 0.090827 -0.379478
C27   C     C_3   0.712698 0.584725 0.075123 -0.391507
C28   C     C_3   0.680170 0.333522 0.093360 -0.390253
C29   C     C_3   0.330556 0.146066 0.382669 -0.340671
C30   C     C_3   0.330501 0.853624 0.382676 -0.341907
C31   C     C_1   0.488841 0.501010 0.824152 -0.077088
C32   C     C_1   0.485999 0.499446 0.175518 -0.051755
C33   C     C_1   0.493687 0.499679 0.251052 -0.078135
C34   C     C_R   0.063871 0.373493 0.499152 -0.146829
C35   C     C_R   0.063890 0.626503 0.499297 -0.146889
C36   C     C_R   0.936104 0.373490 0.499333 -0.144014
Cu1   Cu    Cu3+1 0.500020 0.640660 0.500000 0.916930
Cu2   Cu    Cu3+1 0.500020 0.359340 0.500000 0.918227
H1    H     H_    0.640736 0.871012 0.596893 0.108226
H2    H     H_    0.888150 0.725471 0.499635 0.127331
H3    H     H_    0.285421 0.697090 0.874378 0.133216
H4    H     H_    0.355026 0.846906 0.926642 0.123229
H5    H     H_    0.420351 0.774904 0.835222 0.136624
H6    H     H_    0.197255 0.505105 0.927817 0.145843
H7    H     H_    0.257451 0.444267 0.831399 0.139189
H8    H     H_    0.194257 0.323626 0.901474 0.103034
H9    H     H_    0.238521 0.686680 0.009293 0.249191
H10   H     H_    0.157339 0.683659 0.146556 0.141085
H11   H     H_    0.244332 0.839872 0.131735 0.115381
H12   H     H_    0.640750 0.129295 0.596887 0.108591
H13   H     H_    0.311467 0.698358 0.193193 0.147041
H14   H     H_    0.187790 0.349215 0.040674 0.239284
H15   H     H_    0.127171 0.369106 0.170826 0.111844
H16   H     H_    0.257525 0.467363 0.204599 0.159179
H17   H     H_    0.271393 0.281397 0.190061 0.126571
H18   H     H_    0.333076 0.161335 0.065733 0.115687
H19   H     H_    0.476116 0.178444 0.022761 0.088448
H20   H     H_    0.459156 0.220534 0.133105 0.130893
H21   H     H_    0.438057 0.875657 0.079531 0.127853
H22   H     H_    0.510924 0.769326 0.159935 0.129757
H23   H     H_    0.405572 0.295557 0.916857 0.113777
H24   H     H_    0.584334 0.814096 0.065262 0.088930
H25   H     H_    0.700140 0.626981 0.139123 0.138515
H26   H     H_    0.810272 0.549202 0.074610 0.119804
H27   H     H_    0.712262 0.668502 0.027796 0.103875
H28   H     H_    0.651897 0.234077 0.064551 0.111280
H29   H     H_    0.781259 0.330689 0.084497 0.117093
H30   H     H_    0.668572 0.328696 0.162221 0.140246
H31   H     H_    0.327552 0.258439 0.382164 0.196063
H32   H     H_    0.351932 0.116884 0.317406 0.082088
H33   H     H_    0.234378 0.115325 0.394900 0.078289
H34   H     H_    0.549467 0.705773 0.944041 0.116182
H35   H     H_    0.327383 0.741251 0.382184 0.194875
H36   H     H_    0.234346 0.884502 0.394897 0.078966
H37   H     H_    0.351904 0.882580 0.317414 0.081701
H38   H     H_    0.684368 0.503098 0.924346 0.114836
H39   H     H_    0.618466 0.337429 0.936172 0.108960
H40   H     H_    0.111847 0.274551 0.499140 0.127627
H41   H     H_    0.111881 0.725445 0.499401 0.127628
H42   H     H_    0.888116 0.274530 0.499372 0.127326
N1    N     N_R   0.500030 0.852070 0.500020 -0.222826
N2    N     N_R   0.500030 0.147930 0.500020 -0.223022
N3    N     N_2   0.297542 0.666328 0.060203 -0.462902
N4    N     N_2   0.254637 0.401479 0.076540 -0.465974
O1    O     O_R   0.319660 0.618740 0.500000 -0.520040
O2    O     O_R   0.319660 0.381260 0.500000 -0.520150
O3    O     O_R   0.500020 0.618840 0.379440 -0.510708
O4    O     O_R   0.500020 0.381160 0.379440 -0.508729
O5    O     O_R   0.680370 0.618830 0.500010 -0.505059
O6    O     O_R   0.680370 0.381170 0.500010 -0.505322
O7    O     O_R   0.500010 0.618730 0.620560 -0.493835
O8    O     O_R   0.500010 0.381270 0.620560 -0.492897

loop_
_geom_bond_atom_site_label_1
_geom_bond_atom_site_label_2
_ccdc_geom_bond_type
C2    C35   A    
C22   H10   S    
C5    N2    A    
C14   C18   S    
C16   H34   S    
C25   H18   S    
C14   N4    S    
C19   C31   S    
C20   H3    S    
C24   H17   S    
C15   C19   S    
C12   C23   S    
C13   C18   S    
Cu2   O2    S    
Cu1   O1    S    
C28   H30   S    
C29   H32   S    
C5    C6    A    
C30   H36   S    
C24   H16   S    
Cu2   O8    S    
H14   N4    S    
C11   O8    A    
C7    O3    A    
C10   O5    A    
C8    C9    A    
C8    H1    S    
H9    N3    S    
C26   H21   S    
C21   H7    S    
C9    N2    A    
C4    C35   A    
C6    N1    A    
Cu2   N2    S    
C7    C33   S    
Cu1   N1    S    
C25   H19   S    
C29   H31   S    
C1    O1    A    
C4    C34   A    
Cu1   O7    S    
C18   C23   S    
C28   H29   S    
C36   H42   S    
C30   H35   S    
C24   H15   S    
C8    N1    A    
Cu2   O4    S    
C28   H28   S    
Cu1   Cu2   S    
C27   H27   S    
C11   O7    A    
C21   H6    S    
C7    O4    A    
C16   C20   S    
C12   H39   S    
C15   H23   S    
C23   C28   S    
C27   H25   S    
C22   H11   S    
C6    C30   S    
C23   C27   S    
C12   H38   S    
C17   C31   T    
C13   C26   S    
C18   C32   S    
C25   H20   S    
C5    C29   S    
C20   H5    S    
C21   H8    S    
C1    O2    A    
Cu2   O6    S    
C11   C17   S    
Cu1   O3    S    
C9    H12   S    
C20   H4    S    
C13   N3    S    
Cu1   O5    S    
C1    C4    S    
C22   N3    S    
C2    C3    A    
C24   N4    S    
C3    C10   S    
C32   C33   T    
C30   H37   S    
C3    C36   A    
C16   C19   S    
C12   C19   S    
C35   H41   S    
C34   C36   A    
C14   C25   S    
C26   H24   S    
C27   H26   S    
C2    H2    S    
C15   C21   S    
C10   O6    A    
C13   C16   S    
C14   C15   S    
C26   H22   S    
C34   H40   S    
C22   H13   S    
C29   H33   S    
