data_mof_unit_48242.cif
_audit_creation_date              2012-12-10T20:46:34-0500
_audit_creation_method            fapswitch 2.2
_symmetry_space_group_name_H-M    P1
_symmetry_Int_Tables_number       1
_space_group_crystal_system       triclinic
_cell_length_a                    10.421379
_cell_length_b                    8.932575
_cell_length_c                    8.105894
_cell_angle_alpha                 89.986248
_cell_angle_beta                  102.214024
_cell_angle_gamma                 90.016236
_cell_volume                      737.495131458

loop_
_atom_site_label
_atom_site_type_symbol
_atom_type_description
_atom_site_fract_x
_atom_site_fract_y
_atom_site_fract_z
_atom_type_partial_charge
Br1   Br    Br    0.823473 0.794378 0.394457 -0.488567
Br2   Br    Br    0.176736 0.789713 0.618640 -0.483502
C1    C     C_R   0.499949 0.217957 0.500001 0.920154
C2    C     C_1   0.499815 0.934830 0.499948 -0.108119
C3    C     C_3   0.924020 0.317813 0.806765 -0.692875
C4    C     C_3   0.049872 0.275883 0.304419 -0.714151
C5    C     C_R   0.499846 0.782056 0.499951 0.988023
C6    C     C_R   0.256041 0.506030 0.432757 0.932196
C7    C     C_R   0.744279 0.503648 0.567408 0.932140
C8    C     C_2   0.114489 0.529208 0.401431 -0.024816
C9    C     C_2   0.886374 0.526172 0.599033 -0.037632
C10   C     C_2   0.068070 0.636167 0.492527 0.176606
C11   C     C_2   0.931680 0.635373 0.509758 0.178913
C12   C     C_1   0.499860 0.065190 0.499991 -0.151289
H1    H     H_    0.066112 0.466568 0.756775 0.265301
H2    H     H_    0.004061 0.242177 0.869812 0.250850
H3    H     H_    0.845976 0.247799 0.728837 0.239194
H4    H     H_    0.884949 0.378070 0.905474 0.252561
H5    H     H_    0.931190 0.465663 0.253412 0.254554
H6    H     H_    0.979302 0.215159 0.205059 0.250831
H7    H     H_    0.034209 0.240028 0.429939 0.267496
H8    H     H_    0.150708 0.245431 0.292012 0.241493
N1    N     N_1   0.500020 0.500000 0.073650 -0.009202
N2    N     N_1   0.499980 0.500000 0.926350 -0.009414
N3    N     N_2   0.975264 0.423584 0.701707 -0.331048
N4    N     N_2   0.028858 0.435515 0.283274 -0.322650
O1    O     O_R   0.499990 0.285340 0.636850 -0.612792
O2    O     O_R   0.500010 0.714660 0.363150 -0.592905
O3    O     O_R   0.500010 0.285340 0.363150 -0.613097
O4    O     O_R   0.499990 0.714660 0.636850 -0.591744
O5    O     O_R   0.317810 0.500000 0.585760 -0.602841
O6    O     O_R   0.682190 0.500000 0.414240 -0.604182
O7    O     O_R   0.317820 0.500000 0.312020 -0.601636
O8    O     O_R   0.682180 0.500000 0.687980 -0.611798
Zn1   Zn    Zn3+2 0.499990 0.500000 0.682780 1.024711
Zn2   Zn    Zn3+2 0.500010 0.500000 0.317220 1.029234

loop_
_geom_bond_atom_site_label_1
_geom_bond_atom_site_label_2
_ccdc_geom_bond_type
N1    N2    T    
C4    H6    S    
Br2   C10   S    
C8    N4    S    
C1    O1    A    
C5    O4    A    
C7    C9    S    
O3    Zn2   S    
C4    N4    S    
C1    C12   S    
C8    C10   D    
O4    Zn1   S    
C2    C5    S    
C3    N3    S    
O6    Zn2   S    
C6    O5    A    
N1    Zn2   S    
C6    O7    A    
C2    C12   T    
C7    O8    A    
O5    Zn1   S    
H1    N3    S    
N2    Zn1   S    
Br1   C11   S    
C9    N3    S    
C4    H8    S    
C9    C11   D    
O7    Zn2   S    
C3    H3    S    
C10   C11   S    
O2    Zn2   S    
C6    C8    S    
O8    Zn1   S    
C1    O3    A    
H5    N4    S    
C3    H2    S    
C3    H4    S    
C7    O6    A    
O1    Zn1   S    
C4    H7    S    
C5    O2    A    
