data_mof_unit_22158.cif
_audit_creation_date              2012-12-10T17:23:34-0500
_audit_creation_method            fapswitch 2.2
_symmetry_space_group_name_H-M    P1
_symmetry_Int_Tables_number       1
_space_group_crystal_system       triclinic
_cell_length_a                    10.250308
_cell_length_b                    10.59644
_cell_length_c                    15.676851
_cell_angle_alpha                 90.646278
_cell_angle_beta                  82.28635
_cell_angle_gamma                 95.44125
_cell_volume                      1679.75591105

loop_
_atom_site_label
_atom_site_type_symbol
_atom_type_description
_atom_site_fract_x
_atom_site_fract_y
_atom_site_fract_z
_atom_type_partial_charge
C1    C     C_R   0.555612 0.734016 0.491399 0.881973
C2    C     C_3   0.547608 0.389432 0.973835 -0.004757
C3    C     C_3   0.578874 0.597051 0.961954 0.141674
C4    C     C_3   0.421106 0.401417 0.037941 0.140982
C5    C     C_1   0.502377 0.490609 0.750353 -0.130082
C6    C     C_1   0.497477 0.508642 0.249599 -0.124649
C7    C     C_3   0.376720 0.501712 0.979830 0.145972
C8    C     C_3   0.623247 0.496754 0.020065 0.146528
C9    C     C_3   0.503344 0.489356 0.916730 -0.043557
C10   C     C_3   0.496614 0.509140 0.083173 -0.044297
C11   C     C_1   0.503887 0.486623 0.825563 0.043616
C12   C     C_R   0.443887 0.265599 0.504581 0.890555
C13   C     C_1   0.495995 0.512178 0.174361 0.043761
C14   C     C_2   0.586287 0.869754 0.475138 -0.071888
C15   C     C_2   0.412064 0.128429 0.497568 -0.042289
C16   C     C_3   0.399578 0.731967 0.061524 -0.366028
C17   C     C_3   0.357432 0.811886 0.990897 -0.349766
C18   C     C_3   0.311173 0.936343 0.027127 -0.796555
C19   C     C_3   0.600371 0.266636 0.938103 -0.368451
C20   C     C_3   0.642818 0.186495 0.008488 -0.348072
C21   C     C_3   0.689196 0.062260 0.971916 -0.798131
C22   C     C_3   0.295598 0.055081 0.552756 -0.425911
C23   C     C_2   0.494322 0.930424 0.442494 -0.206257
C24   C     C_3   0.212199 0.134505 0.617832 -0.339922
C25   C     C_3   0.111377 0.050027 0.677643 -0.827143
C26   C     C_3   0.713025 0.936827 0.499934 -0.396425
C27   C     C_3   0.820569 0.951939 0.421868 -0.312973
C28   C     C_3   0.952328 0.006484 0.448316 -0.837833
C29   C     C_2   0.497988 0.067597 0.442917 -0.196295
C30   C     C_2   0.928564 0.510471 0.508065 0.152760
C31   C     C_2   0.071286 0.487862 0.492884 0.139685
C32   C     C_R   0.500641 0.497636 0.661657 0.897644
C33   C     C_R   0.499305 0.502154 0.338325 0.895909
C34   C     C_3   0.452364 0.609050 0.026039 -0.004827
H1    H     H_    0.582247 0.119105 0.404685 0.176956
H2    H     H_    0.313538 0.707818 0.111585 0.225468
H3    H     H_    0.478506 0.787007 0.092253 0.211350
H4    H     H_    0.609613 0.008932 0.941132 0.269658
H5    H     H_    0.778286 0.080875 0.923397 0.279684
H6    H     H_    0.714366 0.003620 0.024571 0.267504
H7    H     H_    0.725096 0.238435 0.037248 0.263242
H8    H     H_    0.559241 0.165318 0.060449 0.240292
H9    H     H_    0.521354 0.211674 0.907407 0.210632
H10   H     H_    0.686265 0.290965 0.887965 0.224713
H11   H     H_    0.044088 0.991194 0.639955 0.268294
H12   H     H_    0.404220 0.878811 0.426129 0.176966
H13   H     H_    0.162443 0.986997 0.715650 0.269069
H14   H     H_    0.051307 0.109993 0.722908 0.262705
H15   H     H_    0.277332 0.192266 0.657680 0.225065
H16   H     H_    0.157241 0.198327 0.583129 0.261581
H17   H     H_    0.229918 0.006053 0.509343 0.219174
H18   H     H_    0.335402 0.981363 0.589283 0.225902
H19   H     H_    0.941429 0.098774 0.481546 0.271576
H20   H     H_    0.987899 0.939505 0.492000 0.261013
H21   H     H_    0.027113 0.021398 0.390304 0.270441
H22   H     H_    0.833856 0.858149 0.391047 0.242620
H23   H     H_    0.128179 0.618953 0.578290 0.187495
H24   H     H_    0.790797 0.016121 0.373860 0.226854
H25   H     H_    0.695267 0.030892 0.528955 0.216525
H26   H     H_    0.747888 0.881100 0.550468 0.227503
H27   H     H_    0.872602 0.383612 0.419965 0.186414
H28   H     H_    0.221952 0.918031 0.075571 0.281913
H29   H     H_    0.390722 0.989716 0.057913 0.269928
H30   H     H_    0.286264 0.994793 0.974289 0.265694
H31   H     H_    0.441133 0.832783 0.938982 0.240108
H32   H     H_    0.275183 0.759899 0.962130 0.263261
I1    I     I_    0.712537 0.740320 0.893111 -0.359752
I2    I     I_    0.287702 0.257999 0.106792 -0.354083
I3    I     I_    0.815683 0.506243 0.060333 -0.273535
I4    I     I_    0.184307 0.491998 0.939490 -0.277793
I5    I     I_    0.132126 0.347560 0.400233 -0.345222
I6    I     I_    0.867751 0.647483 0.602981 -0.351543
N1    N     N_2   0.842700 0.448880 0.465440 -0.203244
N2    N     N_2   0.157300 0.551120 0.534560 -0.204569
O1    O     O_R   0.431060 0.692470 0.506960 -0.621574
O2    O     O_R   0.568940 0.307530 0.493040 -0.624945
O3    O     O_R   0.651120 0.659650 0.484770 -0.577794
O4    O     O_R   0.348880 0.340350 0.515230 -0.587980
O5    O     O_R   0.389990 0.516420 0.634310 -0.601893
O6    O     O_R   0.610010 0.483580 0.365690 -0.602725
O7    O     O_R   0.610050 0.483600 0.612130 -0.572646
O8    O     O_R   0.389950 0.516400 0.387870 -0.575530
Zn1   Zn    Zn3+2 0.353060 0.521920 0.514810 0.977171
Zn2   Zn    Zn3+2 0.646940 0.478080 0.485190 0.983111

loop_
_geom_bond_atom_site_label_1
_geom_bond_atom_site_label_2
_ccdc_geom_bond_type
H23   N2    S    
C1    O3    A    
C19   C20   S    
N2    Zn1   S    
O6    Zn2   S    
C18   H30   S    
O2    Zn2   S    
C7    I4    S    
C20   H7    S    
C32   O7    A    
C8    I3    S    
C23   C29   S    
C5    C11   T    
C30   C31   S    
C18   H29   S    
C16   C34   S    
O4    Zn1   S    
C15   C22   S    
C21   H4    S    
C16   C17   S    
C12   O4    A    
C33   O8    A    
C25   H13   S    
N1    Zn2   S    
C16   H3    S    
C5    C32   S    
C31   I5    S    
C23   H12   S    
C4    C7    S    
C28   H21   S    
C19   H9    S    
C15   C29   D    
C24   H16   S    
C3    I1    S    
C1    O1    A    
C24   C25   S    
C3    C8    S    
C4    I2    S    
C30   N1    D    
C28   H20   S    
C27   H22   S    
C18   H28   S    
C31   N2    D    
C3    C34   S    
H27   N1    S    
C27   H24   S    
C14   C23   D    
C2    C4    S    
C3    C9    S    
C30   I6    S    
C21   H5    S    
C12   C15   S    
C17   C18   S    
C17   H32   S    
C10   C34   S    
C14   C26   S    
C9    C11   S    
C25   H14   S    
C12   O2    A    
C26   C27   S    
C7    C34   S    
C22   C24   S    
C4    C10   S    
C25   H11   S    
O7    Zn2   S    
C19   H10   S    
C22   H18   S    
C26   H25   S    
C24   H15   S    
C7    C9    S    
C2    C19   S    
C2    C8    S    
C10   C13   S    
C20   H8    S    
C28   H19   S    
C33   O6    A    
C29   H1    S    
C17   H31   S    
O3    Zn2   S    
C6    C33   S    
C16   H2    S    
C32   O5    A    
O5    Zn1   S    
O1    Zn1   S    
C21   H6    S    
C20   C21   S    
C8    C10   S    
O8    Zn1   S    
C27   C28   S    
C1    C14   S    
C2    C9    S    
C26   H26   S    
C22   H17   S    
C6    C13   T    
