data_mof_unit_15643.cif
_audit_creation_date              2013-03-05T15:40:04-0500
_audit_creation_method            fapswitch 2.2
_symmetry_space_group_name_H-M    P1
_symmetry_Int_Tables_number       1
_space_group_crystal_system       triclinic
_cell_length_a                    7.764516
_cell_length_b                    8.592428
_cell_length_c                    10.541382
_cell_angle_alpha                 90.308105
_cell_angle_beta                  87.538385
_cell_angle_gamma                 93.138558
_cell_volume                      701.573203448

loop_
_atom_site_label
_atom_site_type_symbol
_atom_site_description
_atom_site_fract_x
_atom_site_fract_y
_atom_site_fract_z
_atom_type_partial_charge
O1    O     O_R   0.389250 0.738570 0.508180 -0.575665
O2    O     O_R   0.678390 0.711630 0.486820 -0.614216
C1    C     C_R   0.544113 0.794345 0.491480 0.971822
O3    O     O_R   0.355470 0.513470 0.691600 -0.586342
O4    O     O_R   0.644610 0.486520 0.670240 -0.631592
C2    C     C_R   0.505594 0.502588 0.738132 0.918130
Zn1   Zn    Zn3+2 0.306940 0.517990 0.514260 1.056097
Zn2   Zn    Zn3+2 0.693060 0.482010 0.485740 1.040660
O5    O     O_R   0.321610 0.288370 0.513180 -0.606289
O6    O     O_R   0.610750 0.261430 0.491820 -0.610931
O7    O     O_R   0.355390 0.513480 0.329760 -0.569341
O8    O     O_R   0.644530 0.486530 0.308400 -0.574442
C3    C     C_R   0.454130 0.205715 0.497373 0.892821
C4    C     C_R   0.491590 0.481088 0.262898 0.879699
C5    C     C_2   0.595491 0.367198 0.062831 0.227913
C6    C     C_2   0.465514 0.426920 0.133972 -0.015016
C7    C     C_2   0.595064 0.380991 0.924643 -0.147124
C8    C     C_2   0.519627 0.499521 0.871883 -0.282546
H1    H     H_    0.657656 0.294141 0.866059 0.186643
H2    H     H_    0.460554 0.591049 0.926918 0.171740
C9    C     C_2   0.564624 0.957613 0.490595 -0.382019
H3    H     H_    0.690969 0.006984 0.515126 0.182404
C10   C     C_2   0.428258 0.044501 0.475892 0.116464
N1    N     N_2   0.950320 0.457950 0.466680 -0.136570
H4    H     H_    0.012687 0.382702 0.406410 0.242174
N2    N     N_2   0.049680 0.542050 0.533320 -0.148093
H5    H     H_    0.987310 0.617434 0.593441 0.209281
N3    N     N_R   0.735022 0.291302 0.118057 0.226655
O9    O     O_R   0.882221 0.285418 0.055176 -0.279581
O10   O     O_R   0.704420 0.200416 0.215754 -0.368856
N4    N     N_R   0.293828 0.428268 0.085897 0.212414
O11   O     O_R   0.236588 0.314494 0.014327 -0.303202
O12   O     O_R   0.193470 0.540700 0.115203 -0.322240
Br1   Br    Br    0.205617 0.975809 0.411246 -0.380853

loop_
_geom_bond_atom_site_label_1
_geom_bond_atom_site_label_2
_geom_bond_distance
_ccdc_geom_bond_type
O4    Zn2   1.965588 S    
N4    O12   1.301716 A    
N4    O11   1.302189 A    
Zn2   O8    1.923818 S    
C10   Br1   1.945841 S    
N3    O10   1.301627 A    
O2    C1    1.292637 A    
N2    H5    1.029219 S    
C9    H3    1.088234 S    
C6    N4    1.446991 S    
Zn1   O7    1.965588 S    
C5    N3    1.439974 S    
Zn1   N2    2.020744 S    
O3    Zn1   1.923819 S    
Zn2   O6    1.967214 S    
N3    O9    1.299660 A    
Zn2   N1    2.020744 S    
O8    C4    1.298088 A    
C7    C8    1.337557 D    
C8    H2    1.084979 S    
C9    C10   1.343279 D    
O4    C2    1.282665 A    
C2    C8    1.419280 S    
O7    C4    1.287901 A    
C4    C6    1.452983 S    
C1    C9    1.403226 S    
C5    C6    1.353437 D    
Zn1   O5    1.982439 S    
N1    H4    1.029375 S    
C3    C10   1.407316 S    
O3    C2    1.292136 A    
C5    C7    1.462302 S    
O5    C3    1.286438 A    
C7    H1    1.087862 S    
O1    Zn1   1.967213 S    
O2    Zn2   1.982439 S    
N1    N2    1.261307 D    
O1    C1    1.275198 A    
O6    C3    1.281360 A    
