data_mof_unit_44596.cif
_audit_creation_date              2013-03-05T16:46:36-0500
_audit_creation_method            fapswitch 2.2
_symmetry_space_group_name_H-M    P1
_symmetry_Int_Tables_number       1
_space_group_crystal_system       triclinic
_cell_length_a                    12.961162
_cell_length_b                    8.933229
_cell_length_c                    8.125355
_cell_angle_alpha                 89.998766
_cell_angle_beta                  96.557788
_cell_angle_gamma                 89.998346
_cell_volume                      934.639003684

loop_
_atom_site_label
_atom_site_type_symbol
_atom_site_description
_atom_site_fract_x
_atom_site_fract_y
_atom_site_fract_z
_atom_type_partial_charge
O1    O     O_R   0.499990 0.285340 0.636850 -0.617499
O2    O     O_R   0.500010 0.714660 0.363150 -0.613075
O3    O     O_R   0.500010 0.285340 0.363150 -0.617545
O4    O     O_R   0.499990 0.714660 0.636850 -0.613098
N1    N     N_1   0.500020 0.500000 0.073640 -0.039076
N2    N     N_1   0.499980 0.500000 0.926360 -0.039107
C1    C     C_R   0.500001 0.218068 0.500001 0.930896
C2    C     C_R   0.499999 0.781929 0.499999 0.945656
O5    O     O_R   0.346350 0.500000 0.614250 -0.627561
O6    O     O_R   0.653650 0.500000 0.385750 -0.627568
O7    O     O_R   0.346360 0.500000 0.340500 -0.620053
O8    O     O_R   0.653640 0.500000 0.659500 -0.620158
C3    C     C_R   0.297718 0.495176 0.467914 0.887049
C4    C     C_R   0.702286 0.495265 0.532097 0.887143
Zn1   Zn    Zn3+2 0.499990 0.500000 0.682780 0.981065
Zn2   Zn    Zn3+2 0.500010 0.500000 0.317220 0.981116
C5    C     C_R   0.814375 0.489067 0.552973 -0.071778
C6    C     C_R   0.185633 0.488887 0.447094 -0.071720
C7    C     C_R   0.020159 0.486271 0.278517 -0.207841
C8    C     C_R   0.979859 0.485476 0.721563 -0.207550
C9    C     C_R   0.127274 0.469726 0.290093 0.187288
C10   C     C_R   0.872709 0.469366 0.709936 0.187073
C11   C     C_R   0.135708 0.500409 0.590120 -0.310167
C12   C     C_R   0.864321 0.501061 0.410016 -0.310198
C13   C     C_R   0.029005 0.496554 0.578515 0.136702
C14   C     C_R   0.971020 0.496946 0.421611 0.136777
H1    H     H_    0.974933 0.483903 0.158780 0.140585
H2    H     H_    0.025107 0.482502 0.841270 0.140529
C15   C     C_1   0.500000 0.065211 0.500002 -0.190921
C16   C     C_1   0.500000 0.934795 0.499998 -0.193307
H3    H     H_    0.820392 0.508594 0.288336 0.176440
H4    H     H_    0.179645 0.507419 0.711829 0.176462
C17   C     C_3   0.825275 0.420759 0.862523 -0.866893
H5    H     H_    0.884296 0.369583 0.954634 0.214493
H6    H     H_    0.788995 0.517602 0.919388 0.251513
H7    H     H_    0.767314 0.330701 0.831298 0.252735
C18   C     C_3   0.174568 0.421046 0.137418 -0.867132
H8    H     H_    0.233112 0.331760 0.168676 0.253041
H9    H     H_    0.115563 0.368627 0.046159 0.214549
H10   H     H_    0.210037 0.518116 0.079613 0.251135

loop_
_geom_bond_atom_site_label_1
_geom_bond_atom_site_label_2
_geom_bond_distance
_ccdc_geom_bond_type
C18   H8    1.110137 S    
O1    Zn1   1.953593 S    
C6    C9    1.417195 A    
O2    Zn2   1.953593 S    
O7    Zn2   2.021838 S    
C5    C10   1.417374 A    
O8    Zn1   2.021837 S    
O4    C2    1.263957 A    
C2    C16   1.365582 S    
C11   H4    1.085163 S    
O4    Zn1   1.953577 S    
C17   H5    1.106136 S    
O5    Zn1   2.005561 S    
C12   H3    1.085192 S    
C9    C18   1.509143 S    
C18   H9    1.106583 S    
C13   C14   1.404051 A    
O6    Zn2   2.005561 S    
O7    C3    1.272884 A    
C4    C5    1.444369 S    
C15   C16   1.165039 T    
C3    C6    1.444348 S    
C1    C15   1.365505 S    
C7    C9    1.388633 A    
O8    C4    1.272806 A    
C18   H10   1.110503 S    
O3    C1    1.263969 A    
C11   C13   1.375843 A    
N1    N2    1.196643 T    
C5    C12   1.396981 A    
C8    C13   1.391281 A    
C8    C10   1.388670 A    
C6    C11   1.397010 A    
C17   H7    1.110176 S    
C7    H1    1.077196 S    
O6    C4    1.281387 A    
C10   C17   1.509229 S    
C7    C14   1.391307 A    
O5    C3    1.281316 A    
N1    Zn2   1.979188 S    
C8    H2    1.077233 S    
C17   H6    1.110256 S    
N2    Zn1   1.979189 S    
O1    C1    1.263974 A    
O2    C2    1.263964 A    
O3    Zn2   1.953578 S    
C12   C14   1.375858 A    
