data_mof_unit_57986.cif
_audit_creation_date              2012-12-10T16:53:00-0500
_audit_creation_method            fapswitch 2.2
_symmetry_space_group_name_H-M    P1
_symmetry_Int_Tables_number       1
_space_group_crystal_system       triclinic
_cell_length_a                    7.829296
_cell_length_b                    8.577639
_cell_length_c                    11.520597
_cell_angle_alpha                 91.258246
_cell_angle_beta                  85.779489
_cell_angle_gamma                 92.9522
_cell_volume                      770.436963661

loop_
_atom_site_label
_atom_site_type_symbol
_atom_type_description
_atom_site_fract_x
_atom_site_fract_y
_atom_site_fract_z
_atom_type_partial_charge
C1    C     C_R   0.545012 0.794310 0.497455 0.938599
C2    C     C_2   0.431127 0.042578 0.502406 -0.384383
C3    C     C_3   0.951556 0.243764 0.357618 0.215642
C4    C     C_3   0.063426 0.150228 0.271077 -0.890381
C5    C     C_3   0.048446 0.756236 0.642382 0.215642
C6    C     C_3   0.936576 0.849773 0.728921 -0.890387
C7    C     C_R   0.454988 0.205690 0.502545 0.938599
C8    C     C_R   0.501702 0.500398 0.717762 0.880690
C9    C     C_R   0.498298 0.499602 0.282238 0.880689
C10   C     C_1   0.504236 0.500142 0.838155 -0.163855
C11   C     C_1   0.495764 0.499858 0.161845 -0.163854
C12   C     C_1   0.502198 0.500044 0.940534 0.001482
C13   C     C_1   0.497802 0.499956 0.059466 0.001482
C14   C     C_2   0.568873 0.957422 0.497594 -0.384384
H1    H     H_    0.699520 0.006819 0.494696 0.163355
H2    H     H_    0.915360 0.787228 0.812562 0.264201
H3    H     H_    0.000574 0.965972 0.745109 0.215677
H4    H     H_    0.810627 0.866610 0.693763 0.258035
H5    H     H_    0.300480 0.993181 0.505304 0.163355
H6    H     H_    0.827391 0.257771 0.319638 0.172358
H7    H     H_    0.932478 0.176820 0.439653 0.122563
H8    H     H_    0.189380 0.133398 0.306232 0.258037
H9    H     H_    0.999432 0.034026 0.254895 0.215675
H10   H     H_    0.084632 0.212770 0.187434 0.264197
H11   H     H_    0.067526 0.823180 0.560347 0.122564
H12   H     H_    0.172611 0.742228 0.680364 0.172359
N1    N     N_2   0.950330 0.457960 0.469510 0.162842
N2    N     N_2   0.049670 0.542040 0.530490 0.162843
O1    O     O_R   0.389250 0.738570 0.507480 -0.660739
O2    O     O_3   0.965524 0.610246 0.622543 -0.517814
O3    O     O_R   0.610750 0.261430 0.492520 -0.660738
O4    O     O_R   0.678390 0.711630 0.487940 -0.601384
O5    O     O_R   0.321610 0.288370 0.512060 -0.601384
O6    O     O_R   0.355420 0.513450 0.675320 -0.633084
O7    O     O_R   0.644580 0.486550 0.324680 -0.633084
O8    O     O_R   0.644570 0.486510 0.655780 -0.559753
O9    O     O_R   0.355430 0.513490 0.344220 -0.559753
O10   O     O_3   0.034477 0.389753 0.377457 -0.517815
Zn1   Zn    Zn3+2 0.306940 0.517990 0.513050 1.015954
Zn2   Zn    Zn3+2 0.693060 0.482010 0.486950 1.015954

loop_
_geom_bond_atom_site_label_1
_geom_bond_atom_site_label_2
_ccdc_geom_bond_type
C9    C11   S    
C2    C7    S    
N1    Zn2   S    
O1    Zn1   S    
C1    O1    A    
O7    Zn2   S    
C3    H6    S    
O9    Zn1   S    
C8    O6    A    
O3    Zn2   S    
C11   C13   T    
O5    Zn1   S    
C10   C12   T    
C4    H10   S    
C6    H4    S    
C9    O9    A    
C4    H9    S    
O4    Zn2   S    
C5    C6    S    
C2    C14   D    
C5    H11   S    
C3    H7    S    
C7    O3    A    
C7    O5    A    
N1    O10   S    
C6    H2    S    
C5    H12   S    
O8    Zn2   S    
C4    H8    S    
C12   C13   S    
C8    C10   S    
C5    O2    S    
C8    O8    A    
N1    N2    D    
C9    O7    A    
C6    H3    S    
C14   H1    S    
C1    C14   S    
N2    Zn1   S    
C2    H5    S    
C1    O4    A    
C3    C4    S    
O6    Zn1   S    
C3    O10   S    
N2    O2    S    
