data_mof_unit_6233.cif
_audit_creation_date              2012-12-10T16:34:42-0500
_audit_creation_method            fapswitch 2.2
_symmetry_space_group_name_H-M    P1
_symmetry_Int_Tables_number       1
_space_group_crystal_system       triclinic
_cell_length_a                    28.261205
_cell_length_b                    18.48109
_cell_length_c                    17.013574
_cell_angle_alpha                 89.784546
_cell_angle_beta                  60.763374
_cell_angle_gamma                 89.565281
_cell_volume                      7753.92354595

loop_
_atom_site_label
_atom_site_type_symbol
_atom_type_description
_atom_site_fract_x
_atom_site_fract_y
_atom_site_fract_z
_atom_type_partial_charge
C1    C     C_R   0.702371 0.270061 0.675768 0.878804
C2    C     C_R   0.297639 0.729972 0.324231 0.895297
C3    C     C_R   0.297685 0.269889 0.324286 0.895102
C4    C     C_R   0.702273 0.730229 0.675719 0.892389
C5    C     C_R   0.202343 0.770011 0.675791 0.897112
C6    C     C_R   0.797721 0.230113 0.324163 0.915788
C7    C     C_R   0.797746 0.769716 0.324271 0.890758
C8    C     C_R   0.202290 0.230221 0.675701 0.889830
C9    C     C_R   0.905987 0.501165 0.481781 0.066654
C10   C     C_R   0.094002 0.498835 0.518254 0.066766
C11   C     C_R   0.401955 0.000546 0.498068 0.063552
C12   C     C_R   0.580202 0.001266 0.561621 0.066173
C13   C     C_R   0.071965 0.377825 0.582111 -0.248669
C14   C     C_R   0.928026 0.622174 0.417920 -0.248679
C15   C     C_R   0.882214 0.383040 0.553179 -0.251736
C16   C     C_R   0.117774 0.616958 0.446854 -0.251856
C17   C     C_R   0.570825 0.871753 0.587821 -0.253688
C18   C     C_R   0.420305 0.126469 0.452133 -0.245953
C19   C     C_R   0.382646 0.877046 0.553615 -0.253201
C20   C     C_R   0.577876 0.132308 0.560415 -0.251266
C21   C     C_R   0.721660 0.261864 0.952086 0.102442
C22   C     C_R   0.278813 0.738800 0.047443 0.101140
C23   C     C_R   0.279726 0.260935 0.046420 0.102568
C24   C     C_R   0.720882 0.738668 0.952852 0.103192
C25   C     C_R   0.220539 0.760297 0.953166 0.100384
C26   C     C_R   0.779948 0.240435 0.046366 0.100199
C27   C     C_R   0.778794 0.761720 0.047448 0.103441
C28   C     C_R   0.221668 0.237690 0.952084 0.103085
C29   C     C_R   0.771800 0.295837 0.923212 -0.196378
C30   C     C_R   0.228553 0.705119 0.076536 -0.197067
C31   C     C_R   0.228336 0.292511 0.076561 -0.189731
C32   C     C_R   0.772336 0.707269 0.922582 -0.190192
C33   C     C_R   0.270805 0.793956 0.924074 -0.195893
C34   C     C_R   0.729837 0.206447 0.075153 -0.192993
C35   C     C_R   0.727350 0.793144 0.077707 -0.190070
C36   C     C_R   0.273052 0.206091 0.921918 -0.189893
C37   C     C_R   0.800569 0.285501 0.970127 -0.158667
C38   C     C_R   0.199817 0.715440 0.029591 -0.158360
C39   C     C_R   0.199705 0.281265 0.029712 -0.156157
C40   C     C_R   0.800892 0.718401 0.969583 -0.156151
C41   C     C_R   0.299532 0.783641 0.971014 -0.157718
C42   C     C_R   0.701117 0.216713 0.028207 -0.158093
C43   C     C_R   0.698800 0.782033 0.030686 -0.155834
C44   C     C_R   0.301664 0.217270 0.968837 -0.155679
C45   C     C_R   0.639216 0.317153 0.952736 -0.025725
C46   C     C_R   0.361113 0.683335 0.047096 -0.024852
C47   C     C_R   0.360661 0.318402 0.047436 -0.026762
C48   C     C_R   0.640151 0.680546 0.951950 -0.027368
C49   C     C_R   0.138261 0.815819 0.953367 -0.024603
C50   C     C_R   0.862075 0.184662 0.046376 -0.024842
C51   C     C_R   0.859420 0.820052 0.048356 -0.027717
C52   C     C_R   0.140911 0.179510 0.951395 -0.027653
C53   C     C_R   0.613663 0.342003 0.902763 -0.118135
C54   C     C_R   0.386423 0.658127 0.097286 -0.118852
C55   C     C_R   0.385948 0.343006 0.097732 -0.115806
C56   C     C_R   0.614439 0.656550 0.902028 -0.115448
C57   C     C_R   0.113292 0.841525 0.902867 -0.119055
C58   C     C_R   0.886887 0.158704 0.097009 -0.117976
C59   C     C_R   0.885353 0.843704 0.098086 -0.114962
C60   C     C_R   0.114816 0.156091 0.901811 -0.114946
C61   C     C_R   0.632455 0.320673 0.815138 -0.283190
C62   C     C_R   0.367524 0.679264 0.184979 -0.280521
C63   C     C_R   0.367218 0.321255 0.185262 -0.283425
C64   C     C_R   0.632827 0.678824 0.814779 -0.284396
C65   C     C_R   0.132379 0.820685 0.815018 -0.279839
C66   C     C_R   0.867759 0.179496 0.184899 -0.280038
C67   C     C_R   0.867145 0.821137 0.185178 -0.285205
C68   C     C_R   0.132955 0.178754 0.814782 -0.285634
C69   C     C_R   0.680178 0.282787 0.771154 -0.045717
C70   C     C_R   0.319891 0.717341 0.228815 -0.050892
C71   C     C_R   0.320133 0.282562 0.228659 -0.053065
C72   C     C_R   0.679895 0.717542 0.771291 -0.051256
C73   C     C_R   0.179954 0.782471 0.771299 -0.051588
C74   C     C_R   0.820265 0.217909 0.228532 -0.058361
C75   C     C_R   0.820079 0.782420 0.228714 -0.051150
C76   C     C_R   0.180065 0.217361 0.771179 -0.050535
C77   C     C_R   0.709196 0.262744 0.816195 -0.225114
C78   C     C_R   0.291037 0.737662 0.183578 -0.225046
C79   C     C_R   0.291896 0.261788 0.182868 -0.216922
C80   C     C_R   0.708277 0.738239 0.816860 -0.216327
C81   C     C_R   0.208593 0.761839 0.816787 -0.223566
C82   C     C_R   0.791818 0.238903 0.182840 -0.217090
C83   C     C_R   0.791616 0.761797 0.183245 -0.216330
C84   C     C_R   0.208674 0.237748 0.816482 -0.215954
C85   C     C_R   0.691636 0.129259 0.533965 0.907376
C86   C     C_R   0.303554 0.872013 0.482266 0.909825
C87   C     C_R   0.308379 0.129072 0.467229 0.897498
C88   C     C_R   0.691003 0.870504 0.535984 0.896179
C89   C     C_R   0.196712 0.627762 0.517393 0.908390
C90   C     C_R   0.803285 0.372238 0.482618 0.908352
C91   C     C_R   0.808833 0.629579 0.464414 0.895844
C92   C     C_R   0.191166 0.370420 0.535593 0.895741
C93   C     C_R   0.688851 0.279133 0.907330 0.021732
C94   C     C_R   0.311514 0.721432 0.092344 0.023134
C95   C     C_R   0.311994 0.278918 0.091895 0.018395
C96   C     C_R   0.688550 0.720566 0.907544 0.017597
C97   C     C_R   0.187901 0.777756 0.908184 0.023250
C98   C     C_R   0.812553 0.222991 0.091416 0.021355
C99   C     C_R   0.811157 0.779780 0.092706 0.017364
C100  C     C_R   0.189227 0.219667 0.906950 0.017068
C101  C     C_R   0.072991 0.101195 0.935243 0.891254
C102  C     C_R   0.927065 0.898748 0.064715 0.891695
C103  C     C_R   0.927955 0.102334 0.063798 0.893926
C104  C     C_R   0.072094 0.897715 0.936162 0.893472
C105  C     C_R   0.572823 0.601374 0.935377 0.892018
C106  C     C_R   0.427397 0.398394 0.064434 0.892517
C107  C     C_R   0.427800 0.602181 0.063914 0.894126
C108  C     C_R   0.572198 0.397813 0.936123 0.893970
C109  C     C_R   0.537994 0.132070 0.535002 0.105982
C110  C     C_R   0.428574 0.875226 0.564539 0.101263
C111  C     C_R   0.459408 0.128933 0.479642 0.109475
C112  C     C_R   0.522535 0.872670 0.583039 0.109658
C113  C     C_R   0.071286 0.617881 0.437526 0.106321
C114  C     C_R   0.928699 0.382121 0.562517 0.106067
C115  C     C_R   0.975971 0.620706 0.423470 0.111026
C116  C     C_R   0.024016 0.379296 0.576573 0.110951
C117  C     C_R   0.521600 0.196461 0.510950 -0.209687
C118  C     C_R   0.443721 0.811893 0.592979 -0.207429
C119  C     C_R   0.484216 0.194416 0.479663 -0.208849
C120  C     C_R   0.491139 0.810137 0.599796 -0.207242
C121  C     C_R   0.059844 0.677053 0.397385 -0.210644
C122  C     C_R   0.940139 0.322953 0.602667 -0.210620
C123  C     C_R   0.012251 0.678769 0.391430 -0.208934
C124  C     C_R   0.987731 0.321238 0.608623 -0.208897
C125  C     C_R   0.473191 0.065340 0.509496 0.027270
C126  C     C_R   0.505580 0.937089 0.559792 0.029594
C127  C     C_R   0.514971 0.066243 0.531793 0.029858
C128  C     C_R   0.459995 0.937602 0.546620 0.031330
C129  C     C_R   0.987896 0.560370 0.461876 0.027324
C130  C     C_R   0.012090 0.439632 0.538169 0.027343
C131  C     C_R   0.035256 0.559345 0.469937 0.030231
C132  C     C_R   0.964729 0.440658 0.530108 0.030266
C133  C     C_R   0.952812 0.500815 0.491438 -0.054932
C134  C     C_R   0.047175 0.499187 0.508605 -0.054940
C135  C     C_R   0.445337 0.000978 0.517208 -0.054860
C136  C     C_R   0.533271 0.001522 0.552011 -0.055586
C137  C     C_R   0.872547 0.439750 0.506363 0.050892
C138  C     C_R   0.127443 0.560249 0.493667 0.050886
C139  C     C_R   0.108251 0.436602 0.550718 0.062875
C140  C     C_R   0.891741 0.563396 0.449309 0.062871
C141  C     C_R   0.371466 0.937127 0.512335 0.053004
C142  C     C_R   0.605213 0.067343 0.560334 0.055502
C143  C     C_R   0.602713 0.934983 0.569786 0.058442
C144  C     C_R   0.387891 0.064278 0.467654 0.061715
C145  C     C_R   0.830657 0.437931 0.482691 -0.109679
C146  C     C_R   0.169336 0.562068 0.517331 -0.110088
C147  C     C_R   0.158899 0.435858 0.549841 -0.121963
C148  C     C_R   0.841096 0.564140 0.450177 -0.121960
C149  C     C_R   0.330933 0.936884 0.484916 -0.105013
C150  C     C_R   0.657078 0.065542 0.555842 -0.115222
C151  C     C_R   0.656087 0.935172 0.559492 -0.118314
C152  C     C_R   0.340346 0.063998 0.457993 -0.117383
C153  C     C_R   0.815137 0.500111 0.456370 -0.301329
C154  C     C_R   0.184858 0.499888 0.543649 -0.300940
C155  C     C_R   0.316295 0.999708 0.458413 -0.310523
C156  C     C_R   0.680526 0.000139 0.557944 -0.304635
H1    H     H_    0.996362 0.274287 0.637665 0.137257
H2    H     H_    0.003618 0.725723 0.362399 0.137105
H3    H     H_    0.912813 0.277337 0.627883 0.141033
H4    H     H_    0.087168 0.722671 0.372174 0.140999
H5    H     H_    0.503407 0.759854 0.617518 0.131325
H6    H     H_    0.473500 0.244240 0.458182 0.130787
H7    H     H_    0.419947 0.763050 0.606951 0.137519
H8    H     H_    0.539425 0.247770 0.512539 0.132034
H9    H     H_    0.780065 0.499699 0.446357 0.195711
H10   H     H_    0.219932 0.500299 0.553655 0.195785
H11   H     H_    0.283156 0.999422 0.443350 0.193448
H12   H     H_    0.720722 0.999734 0.551115 0.197149
H13   H     H_    0.079613 0.331865 0.614066 0.159249
H14   H     H_    0.920382 0.668132 0.385957 0.159237
H15   H     H_    0.853472 0.339868 0.584983 0.173380
H16   H     H_    0.146518 0.660127 0.415039 0.172949
H17   H     H_    0.581963 0.821941 0.608235 0.168205
H18   H     H_    0.416215 0.173635 0.418204 0.169601
H19   H     H_    0.355927 0.831346 0.580081 0.179765
H20   H     H_    0.586262 0.184119 0.579428 0.178340
H21   H     H_    0.662533 0.190024 0.051768 0.137516
H22   H     H_    0.338250 0.810023 0.947207 0.138707
H23   H     H_    0.341177 0.192286 0.944241 0.136554
H24   H     H_    0.659195 0.806778 0.055434 0.135660
H25   H     H_    0.161087 0.689087 0.053411 0.138620
H26   H     H_    0.839226 0.312022 0.946459 0.138469
H27   H     H_    0.840506 0.693683 0.944817 0.135476
H28   H     H_    0.160135 0.306105 0.054411 0.135438
H29   H     H_    0.788134 0.331509 0.865328 0.139560
H30   H     H_    0.212104 0.669643 0.134609 0.139715
H31   H     H_    0.210838 0.327054 0.135490 0.140617
H32   H     H_    0.789916 0.672901 0.863495 0.140551
H33   H     H_    0.287259 0.829447 0.866013 0.140707
H34   H     H_    0.713510 0.170712 0.132972 0.142066
H35   H     H_    0.709778 0.827511 0.136793 0.140412
H36   H     H_    0.290518 0.171525 0.863011 0.141109
H37   H     H_    0.611750 0.338084 0.778795 0.180550
H38   H     H_    0.388078 0.661574 0.221458 0.181584
H39   H     H_    0.387472 0.338871 0.221966 0.180847
H40   H     H_    0.612362 0.661535 0.778284 0.179814
H41   H     H_    0.112023 0.838716 0.778352 0.181832
H42   H     H_    0.887981 0.161226 0.221684 0.181637
H43   H     H_    0.887727 0.838233 0.221559 0.179667
H44   H     H_    0.112262 0.161847 0.778507 0.179637
H45   H     H_    0.747911 0.234944 0.780512 0.159628
H46   H     H_    0.252357 0.765556 0.219180 0.159507
H47   H     H_    0.253859 0.233005 0.217947 0.164283
H48   H     H_    0.746198 0.767282 0.781782 0.164356
H49   H     H_    0.247273 0.733936 0.781252 0.160012
H50   H     H_    0.753213 0.266992 0.218267 0.163389
H51   H     H_    0.753746 0.732641 0.218318 0.164170
H52   H     H_    0.246576 0.266828 0.781345 0.164375
O1    O     O_R   0.746490 0.236330 0.638080 -0.650419
O2    O     O_R   0.253510 0.763670 0.361920 -0.648034
O3    O     O_R   0.253510 0.236330 0.361920 -0.634616
O4    O     O_R   0.746490 0.763670 0.638080 -0.634996
O5    O     O_R   0.246490 0.736330 0.638080 -0.648478
O6    O     O_R   0.753510 0.263670 0.361920 -0.634023
O7    O     O_R   0.753510 0.736330 0.361920 -0.635509
O8    O     O_R   0.246490 0.263670 0.638080 -0.636073
O9    O     O_R   0.674170 0.186160 0.516270 -0.644600
O10   O     O_R   0.325830 0.813840 0.483730 -0.645067
O11   O     O_R   0.325830 0.186160 0.483730 -0.639301
O12   O     O_R   0.674170 0.813840 0.516270 -0.634498
O13   O     O_R   0.174170 0.686160 0.516270 -0.640033
O14   O     O_R   0.825830 0.313840 0.483730 -0.640474
O15   O     O_R   0.825830 0.686160 0.483730 -0.631143
O16   O     O_R   0.174170 0.313840 0.516270 -0.631265
O17   O     O_R   0.739960 0.127620 0.525000 -0.627075
O18   O     O_R   0.260040 0.872380 0.475000 -0.628491
O19   O     O_R   0.260040 0.127620 0.475000 -0.622873
O20   O     O_R   0.739960 0.872380 0.525000 -0.625565
O21   O     O_R   0.239960 0.627620 0.525000 -0.629813
O22   O     O_R   0.760040 0.372380 0.475000 -0.630534
O23   O     O_R   0.760040 0.627620 0.475000 -0.625066
O24   O     O_R   0.239960 0.372380 0.525000 -0.625140
O25   O     O_R   0.680700 0.294870 0.629350 -0.638917
O26   O     O_R   0.319300 0.705130 0.370650 -0.628513
O27   O     O_R   0.319300 0.294870 0.370650 -0.633694
O28   O     O_R   0.680700 0.705130 0.629350 -0.635742
O29   O     O_R   0.180700 0.794870 0.629350 -0.627759
O30   O     O_R   0.819300 0.205130 0.370650 -0.624731
O31   O     O_R   0.819300 0.794870 0.370650 -0.634960
O32   O     O_R   0.180700 0.205130 0.629350 -0.635305
O33   O     O_R   0.062020 0.072840 0.007170 -0.607411
O34   O     O_R   0.937980 0.927160 0.992830 -0.607230
O35   O     O_R   0.937980 0.072840 0.992830 -0.604209
O36   O     O_R   0.062020 0.927160 0.007170 -0.604239
O37   O     O_R   0.562020 0.572840 0.007170 -0.607338
O38   O     O_R   0.437980 0.427160 0.992830 -0.607094
O39   O     O_R   0.437980 0.572840 0.992830 -0.605213
O40   O     O_R   0.562020 0.427160 0.007170 -0.606388
O41   O     O_R   0.947860 0.073950 0.109290 -0.621377
O42   O     O_R   0.052140 0.926050 0.890710 -0.621509
O43   O     O_R   0.052140 0.073950 0.890710 -0.620325
O44   O     O_R   0.947860 0.926050 0.109290 -0.620297
O45   O     O_R   0.447860 0.573950 0.109290 -0.621208
O46   O     O_R   0.552140 0.426050 0.890710 -0.621114
O47   O     O_R   0.552140 0.573950 0.890710 -0.620658
O48   O     O_R   0.447860 0.426050 0.109290 -0.620595
Zn1   Zn    Zn3+2 0.792340 0.208750 0.507670 0.932124
Zn2   Zn    Zn3+2 0.207660 0.791250 0.492330 0.931699
Zn3   Zn    Zn3+2 0.207660 0.208750 0.492330 0.939194
Zn4   Zn    Zn3+2 0.792340 0.791250 0.507670 0.938445
Zn5   Zn    Zn3+2 0.292340 0.708750 0.507670 0.927539
Zn6   Zn    Zn3+2 0.707660 0.291250 0.492330 0.928348
Zn7   Zn    Zn3+2 0.707660 0.708750 0.492330 0.934743
Zn8   Zn    Zn3+2 0.292340 0.291250 0.507670 0.933162
Zn9   Zn    Zn3+2 0.505960 0.500000 0.080520 0.970657
Zn10  Zn    Zn3+2 0.494040 0.500000 0.919480 0.970435
Zn11  Zn    Zn3+2 0.005960 0.000000 0.080520 0.972280
Zn12  Zn    Zn3+2 0.994040 0.000000 0.919480 0.972221
C157  C     C_R   0.614807 0.330742 0.051060 0.140571
C158  C     C_R   0.566430 0.296043 0.111549 -0.151071
C159  C     C_R   0.543470 0.307880 0.204201 -0.131570
C160  C     C_R   0.568610 0.354361 0.236976 -0.123929
C161  C     C_R   0.616597 0.389385 0.177133 -0.142856
C162  C     C_R   0.639565 0.378025 0.084392 -0.092779
H53   H     H_    0.546741 0.259705 0.086861 0.111411
H54   H     H_    0.506276 0.280863 0.250616 0.121761
H55   H     H_    0.550905 0.363230 0.308743 0.114982
H56   H     H_    0.636047 0.425197 0.202675 0.116221
H57   H     H_    0.676616 0.405704 0.038636 0.118411
C163  C     C_R   0.385990 0.669930 0.948692 0.135618
C164  C     C_R   0.361158 0.623758 0.914336 -0.094783
C165  C     C_R   0.385712 0.610586 0.821743 -0.143462
C166  C     C_R   0.435451 0.642413 0.763202 -0.133158
C167  C     C_R   0.460655 0.687657 0.797137 -0.125699
C168  C     C_R   0.435925 0.701770 0.889436 -0.140440
H58   H     H_    0.323057 0.597893 0.959208 0.119861
H59   H     H_    0.366337 0.575403 0.795408 0.116157
H60   H     H_    0.454564 0.631769 0.691617 0.112694
H61   H     H_    0.499481 0.711609 0.752122 0.115837
H62   H     H_    0.455867 0.736833 0.914980 0.109212
C169  C     C_R   0.383782 0.334620 0.949959 0.142744
C170  C     C_R   0.432052 0.300571 0.886716 -0.150281
C171  C     C_R   0.453886 0.315464 0.794883 -0.130456
C172  C     C_R   0.427746 0.364416 0.765739 -0.123306
C173  C     C_R   0.379807 0.398710 0.828383 -0.143257
C174  C     C_R   0.357883 0.384109 0.920283 -0.093737
H63   H     H_    0.452563 0.262503 0.908637 0.111507
H64   H     H_    0.491026 0.288997 0.746298 0.123202
H65   H     H_    0.444649 0.375787 0.694618 0.116438
H66   H     H_    0.359609 0.436550 0.805711 0.116712
H67   H     H_    0.320837 0.411173 0.968277 0.117582
C175  C     C_R   0.618025 0.662787 0.048826 0.144063
C176  C     C_R   0.645113 0.613280 0.076202 -0.096215
C177  C     C_R   0.624213 0.597243 0.167524 -0.143116
C178  C     C_R   0.575992 0.629857 0.231855 -0.124608
C179  C     C_R   0.548650 0.678773 0.204995 -0.131548
C180  C     C_R   0.569577 0.695352 0.113776 -0.146591
H68   H     H_    0.682339 0.587383 0.026874 0.117426
H69   H     H_    0.645433 0.559611 0.188435 0.116690
H70   H     H_    0.559824 0.617241 0.302517 0.118806
H71   H     H_    0.511285 0.703930 0.254874 0.130744
H72   H     H_    0.548161 0.733422 0.093633 0.111770
C181  C     C_R   0.112827 0.828637 0.052014 0.133931
C182  C     C_R   0.061983 0.798413 0.110039 -0.136037
C183  C     C_R   0.036366 0.812842 0.202322 -0.131418
C184  C     C_R   0.061713 0.856354 0.237636 -0.136040
C185  C     C_R   0.112414 0.886372 0.180425 -0.142704
C186  C     C_R   0.137732 0.873295 0.087740 -0.096137
H73   H     H_    0.041901 0.764684 0.083459 0.107737
H74   H     H_    0.996734 0.790501 0.246277 0.114791
H75   H     H_    0.041954 0.867085 0.309256 0.115723
H76   H     H_    0.131901 0.920190 0.207861 0.116228
H77   H     H_    0.176462 0.898127 0.043876 0.120681
C187  C     C_R   0.887520 0.171771 0.947746 0.134064
C188  C     C_R   0.862584 0.127123 0.912064 -0.095886
C189  C     C_R   0.887945 0.113863 0.819416 -0.142996
C190  C     C_R   0.938704 0.143725 0.762195 -0.136026
C191  C     C_R   0.964072 0.187247 0.797465 -0.131279
C192  C     C_R   0.938425 0.201828 0.889716 -0.136219
H78   H     H_    0.823814 0.102399 0.955943 0.120551
H79   H     H_    0.868450 0.080008 0.792026 0.116128
H80   H     H_    0.958494 0.132859 0.690604 0.115669
H81   H     H_    0.003746 0.209470 0.753499 0.114795
H82   H     H_    0.958533 0.235536 0.916269 0.107634
C193  C     C_R   0.880976 0.838726 0.951863 0.144531
C194  C     C_R   0.929071 0.806203 0.885810 -0.146296
C195  C     C_R   0.949534 0.823891 0.794993 -0.131479
C196  C     C_R   0.922093 0.873915 0.769653 -0.124615
C197  C     C_R   0.874208 0.906474 0.835099 -0.141883
C198  C     C_R   0.853737 0.889241 0.926012 -0.095075
H83   H     H_    0.950590 0.767357 0.904794 0.111906
H84   H     H_    0.986637 0.798782 0.744252 0.130731
H85   H     H_    0.937934 0.887447 0.699309 0.119153
H86   H     H_    0.852938 0.945036 0.815385 0.116948
H87   H     H_    0.816771 0.915088 0.976226 0.117360
C199  C     C_R   0.119460 0.160769 0.047836 0.144944
C200  C     C_R   0.146763 0.110212 0.073504 -0.095611
C201  C     C_R   0.126451 0.093022 0.164388 -0.141719
C202  C     C_R   0.078650 0.125643 0.229988 -0.124543
C203  C     C_R   0.051141 0.175703 0.204830 -0.131837
C204  C     C_R   0.071455 0.193369 0.114042 -0.145835
H88   H     H_    0.183669 0.084323 0.023174 0.117350
H89   H     H_    0.147791 0.054463 0.183964 0.117016
H90   H     H_    0.062934 0.112140 0.300309 0.119166
H91   H     H_    0.014107 0.200872 0.255690 0.130536
H92   H     H_    0.049898 0.232268 0.095201 0.111770

loop_
_geom_bond_atom_site_label_1
_geom_bond_atom_site_label_2
_ccdc_geom_bond_type
O3    Zn3   S    
O27   Zn8   S    
C4    O28   A    
C169  C170  A    
C34   C42   A    
C14   H14   S    
C47   C169  S    
C16   C113  A    
C110  C118  A    
C195  C196  A    
C181  C186  A    
C6    O30   A    
C27   C99   S    
C165  C166  A    
C38   H25   S    
C186  H77   S    
C13   C139  A    
C167  C168  A    
C24   C96   S    
C92   O24   A    
C178  H70   S    
C72   C80   A    
C30   C38   A    
C33   H33   S    
C163  C168  A    
C3    O27   A    
O39   Zn10  S    
C109  C127  A    
O26   Zn5   S    
C1    O25   A    
C160  C161  A    
C111  C125  A    
C192  H82   S    
C189  C190  A    
C125  C135  A    
C143  C151  A    
C126  C136  A    
C19   C141  A    
C92   C147  S    
C82   C98   A    
C76   C84   A    
C170  H63   S    
C130  C134  A    
C44   H23   S    
C73   C81   A    
C17   H17   S    
C16   C138  A    
C43   H24   S    
C115  C123  A    
C84   C100  A    
C92   O16   A    
C127  C136  A    
C128  C135  A    
C112  C120  A    
C204  H92   S    
C27   C35   A    
C182  C183  A    
C21   C29   A    
C184  C185  A    
C23   C31   A    
C24   C32   A    
C191  H81   S    
O44   Zn11  S    
O1    Zn1   S    
C176  C177  A    
C146  C154  A    
C5    O5    A    
C179  C180  A    
C129  C133  A    
C54   C107  S    
C10   C134  A    
C63   C71   A    
C36   C44   A    
C148  C153  A    
C105  O47   A    
C164  H58   S    
C57   C104  S    
O15   Zn4   S    
O46   Zn10  S    
C48   C96   A    
C166  H60   S    
C59   C102  S    
O37   Zn9   S    
O11   Zn8   S    
C194  C195  A    
C8    O8    A    
O47   Zn10  S    
C108  O40   A    
C161  H56   S    
C60   C68   A    
C117  C119  A    
C149  C155  A    
C53   C108  S    
C172  C173  A    
C21   C93   S    
C78   C94   A    
C201  C202  A    
C23   C95   S    
O32   Zn3   S    
C203  C204  A    
C118  C120  A    
C121  C123  A    
C49   C97   A    
C193  C194  A    
C116  C130  A    
O28   Zn7   S    
C31   H31   S    
O29   Zn2   S    
C125  C127  A    
C24   C43   A    
C10   C138  A    
C159  C160  A    
C110  C128  A    
C15   C137  A    
C9    C133  A    
C202  C203  A    
C69   C77   A    
C45   C93   A    
C71   C79   A    
C199  C204  A    
C62   C70   A    
C183  H74   S    
C157  C162  A    
C89   O13   A    
C9    C140  A    
C156  H12   S    
C196  H85   S    
C66   C74   A    
C8    C76   S    
C49   C57   A    
C111  C119  A    
C180  H72   S    
C86   O10   A    
C171  H64   S    
C83   H51   S    
C52   C60   A    
C59   C67   A    
C200  H88   S    
C53   C61   A    
C185  H76   S    
C55   C63   A    
C56   C64   A    
C102  O34   A    
O34   Zn12  S    
C35   C43   A    
C195  H84   S    
C40   H27   S    
C13   H13   S    
C197  H86   S    
C45   C53   A    
C165  H59   S    
C22   C94   S    
C8    O32   A    
C3    O3    A    
C159  H54   S    
C50   C98   A    
C1    O1    A    
C162  H57   S    
C103  O41   A    
C106  O48   A    
C34   H34   S    
C163  C164  A    
C155  H11   S    
C187  C188  A    
O40   Zn9   S    
C187  C192  A    
C52   C100  A    
C21   C42   A    
C91   O23   A    
C171  C172  A    
C25   C38   A    
C84   H52   S    
C46   C94   A    
C27   C40   A    
C11   C141  A    
C105  O37   A    
C66   H42   S    
O16   Zn3   S    
C18   H18   S    
C25   C97   S    
C14   C140  A    
C87   C152  S    
C88   C151  S    
O12   Zn7   S    
C67   C75   A    
C198  H87   S    
C122  C124  A    
O13   Zn2   S    
C61   H37   S    
C82   H50   S    
C182  H73   S    
O23   Zn7   S    
C126  C128  A    
O24   Zn8   S    
C153  H9    S    
C36   H36   S    
C158  H53   S    
C191  C192  A    
C77   H45   S    
O20   Zn4   S    
C176  H68   S    
O21   Zn5   S    
C68   C76   A    
C179  H71   S    
C12   C143  A    
O36   Zn11  S    
O41   Zn11  S    
O42   Zn12  S    
C172  H65   S    
C173  C174  A    
C88   O20   A    
C203  H91   S    
C138  C146  A    
C64   H40   S    
C29   H29   S    
C5    C73   S    
C19   H19   S    
O14   Zn1   S    
C85   O17   A    
C12   C136  A    
C166  C167  A    
O10   Zn5   S    
C90   O22   A    
O38   Zn10  S    
C202  H90   S    
C25   C33   A    
O48   Zn9   S    
O22   Zn6   S    
C131  C134  A    
O18   Zn2   S    
C109  C117  A    
C5    O29   A    
C137  C145  A    
C90   C145  S    
C67   H43   S    
C193  C198  A    
C22   C41   A    
C14   C115  A    
C107  O45   A    
O30   Zn1   S    
C85   C150  S    
C9    C137  A    
C2    O26   A    
C121  H4    S    
C46   C163  S    
C122  H3    S    
C22   C30   A    
C112  C126  A    
C108  O46   A    
C47   C55   A    
C183  C184  A    
C83   C99   A    
C157  C158  A    
C101  O43   A    
C74   C82   A    
C119  H6    S    
C6    C74   S    
C117  H8    S    
C177  H69   S    
C118  H7    S    
C55   C106  S    
C50   C58   A    
O7    Zn7   S    
O31   Zn4   S    
C104  O42   A    
O35   Zn12  S    
O8    Zn8   S    
C200  C201  A    
C54   C62   A    
C28   C39   A    
C175  C180  A    
O4    Zn4   S    
C1    C69   S    
C23   C44   A    
C88   O12   A    
C3    C71   S    
C79   C95   A    
C11   C135  A    
C197  C198  A    
C6    O6    A    
C152  C155  A    
C124  H1    S    
C46   C54   A    
C15   H15   S    
C188  H78   S    
C151  C156  A    
C18   C111  A    
C184  H75   S    
C87   O19   A    
C63   H39   S    
C10   C139  A    
C91   O15   A    
C4    C72   S    
C116  C124  A    
O6    Zn6   S    
C57   C65   A    
C26   C37   A    
C173  H66   S    
O2    Zn2   S    
C17   C143  A    
C33   C41   A    
C142  C150  A    
C18   C144  A    
C169  C174  A    
C190  C191  A    
C75   C83   A    
C181  C182  A    
C80   H48   S    
C39   H28   S    
C50   C187  S    
C37   H26   S    
C77   C93   A    
C12   C142  A    
C188  C189  A    
C56   C105  S    
C13   C116  A    
C28   C36   A    
C144  C152  A    
C178  C179  A    
C29   C37   A    
C158  C159  A    
C154  H10   S    
O5    Zn5   S    
C2    C70   S    
O43   Zn12  S    
C7    O7    A    
O25   Zn6   S    
C160  H55   S    
C70   C78   A    
C130  C132  A    
C140  C148  A    
C141  C149  A    
C20   H20   S    
C45   C157  S    
C139  C147  A    
C102  O44   A    
C30   H30   S    
C107  O39   A    
C170  C171  A    
C90   O14   A    
C48   C175  S    
C190  H80   S    
C62   H38   S    
C42   H21   S    
C65   C73   A    
C147  C154  A    
C85   O9    A    
C58   C66   A    
C132  C133  A    
C103  O35   A    
C87   O11   A    
C80   C96   A    
C101  O33   A    
C11   C144  A    
O19   Zn3   S    
C145  C153  A    
C28   C100  S    
C32   C40   A    
C150  C156  A    
C91   C148  S    
C26   C34   A    
C201  H89   S    
C51   C99   A    
C89   C146  S    
C51   C193  S    
C2    O2    A    
C32   H32   S    
C20   C142  A    
C41   H22   S    
C86   C149  S    
C7    C75   S    
O45   Zn9   S    
C164  C165  A    
C104  O36   A    
C168  H62   S    
C194  H83   S    
C16   H16   S    
C52   C199  S    
O33   Zn11  S    
C161  C162  A    
C15   C114  A    
C113  C121  A    
C106  O38   A    
C35   H35   S    
C120  H5    S    
C26   C98   S    
C65   H41   S    
C177  C178  A    
C7    O31   A    
C79   H47   S    
C86   O18   A    
C51   C59   A    
C60   C101  S    
C17   C112  A    
C49   C181  S    
C81   H49   S    
C115  C129  A    
C19   C110  A    
C61   C69   A    
C48   C56   A    
C175  C176  A    
O9    Zn6   S    
C113  C131  A    
C114  C132  A    
C78   H46   S    
C167  H61   S    
C123  H2    S    
C4    O4    A    
C68   H44   S    
O17   Zn1   S    
C174  H67   S    
C199  C200  A    
C81   C97   A    
C31   C39   A    
C64   C72   A    
C185  C186  A    
C20   C109  A    
C114  C122  A    
C196  C197  A    
C189  H79   S    
C47   C95   A    
C58   C103  S    
C89   O21   A    
C129  C131  A    
