data_mof_unit_63867.cif
_audit_creation_date              2012-12-10T20:47:29-0500
_audit_creation_method            fapswitch 2.2
_symmetry_space_group_name_H-M    P1
_symmetry_Int_Tables_number       1
_space_group_crystal_system       triclinic
_cell_length_a                    17.72341
_cell_length_b                    19.277805
_cell_length_c                    19.246451
_cell_angle_alpha                 94.598061
_cell_angle_beta                  99.050005
_cell_angle_gamma                 103.385433
_cell_volume                      6270.94705723

loop_
_atom_site_label
_atom_site_type_symbol
_atom_type_description
_atom_site_fract_x
_atom_site_fract_y
_atom_site_fract_z
_atom_type_partial_charge
C1    C     C_R   0.491697 0.506239 0.688043 0.943503
C2    C     C_R   0.913521 0.431560 0.434907 0.674341
C3    C     C_R   0.955914 0.403373 0.389737 -0.184719
C4    C     C_R   0.508661 0.494924 0.312263 0.879660
C5    C     C_R   0.037500 0.413845 0.408954 -0.240343
C6    C     C_R   0.076390 0.448311 0.477405 0.023450
C7    C     C_R   0.080712 0.390684 0.360555 0.594042
C8    C     C_R   0.162395 0.404147 0.378337 0.508350
C9    C     C_R   0.160111 0.468740 0.491856 0.190610
C10   C     C_R   0.515590 0.498764 0.237366 -0.203984
C11   C     C_R   0.446414 0.488815 0.186172 0.019899
C12   C     C_R   0.823922 0.551858 0.642456 0.024217
C13   C     C_R   0.451973 0.496063 0.115406 0.524549
C14   C     C_R   0.526141 0.516402 0.095223 0.090196
C15   C     C_R   0.595335 0.528875 0.146141 0.113913
C16   C     C_R   0.492035 0.308976 0.491207 0.956260
C17   C     C_R   0.590636 0.516993 0.216941 0.064632
C18   C     C_R   0.560484 0.521134 0.885673 0.070883
C19   C     C_R   0.560275 0.529500 0.813927 0.464015
C20   C     C_R   0.488281 0.491423 0.908107 0.054359
C21   C     C_R   0.490177 0.505988 0.764039 -0.354730
C22   C     C_R   0.419243 0.476285 0.786316 0.532995
C23   C     C_R   0.845833 0.528574 0.521901 0.260059
C24   C     C_R   0.417885 0.469129 0.857760 0.041742
C25   C     C_R   0.509613 0.768178 0.513189 -0.094949
C26   C     C_R   0.482625 0.799083 0.452682 0.140345
C27   C     C_R   0.475056 0.870507 0.460901 0.078835
C28   C     C_R   0.508594 0.691295 0.508811 0.830791
C29   C     C_R   0.498730 0.911526 0.528413 0.226207
C30   C     C_R   0.527975 0.881123 0.587460 0.170535
C31   C     C_R   0.532783 0.809753 0.579593 -0.347872
C32   C     C_R   0.475269 0.123926 0.550421 0.015327
C33   C     C_R   0.465454 0.193693 0.545053 0.490944
C34   C     C_R   0.912365 0.502897 0.548268 -0.047281
C35   C     C_R   0.512739 0.092382 0.500471 -0.004353
C36   C     C_R   0.494122 0.233043 0.492141 -0.421253
C37   C     C_R   0.530662 0.201043 0.443094 0.484381
C38   C     C_R   0.539858 0.131851 0.447636 0.507009
C39   C     C_R   0.287957 0.459549 0.459421 0.912852
C40   C     C_R   0.712614 0.539259 0.540833 0.819388
C41   C     C_R   0.796514 0.543980 0.568545 -0.231006
C42   C     C_R   0.202128 0.443369 0.443314 -0.329545
C43   C     C_R   0.897081 0.539198 0.668761 0.605029
C44   C     C_3   0.100445 0.572271 0.748986 -0.623594
C45   C     C_R   0.941702 0.513817 0.622488 -0.181829
C46   C     C_3   0.666884 0.479882 0.949396 -0.659780
C47   C     C_3   0.690911 0.630697 0.121023 -0.723950
C48   C     C_3   0.695798 0.468108 0.273072 -0.628279
C49   C     C_3   0.294988 0.487520 0.884645 -0.589856
C50   C     C_3   0.331632 0.526810 0.210860 -0.593599
C51   C     C_3   0.202228 0.595166 0.536129 -0.810672
C52   C     C_3   0.507960 0.101753 0.671323 -0.654575
C53   C     C_3   0.631649 0.967152 0.667169 -0.749491
C54   C     C_3   0.488993 0.926736 0.352987 -0.631236
C55   C     C_3   0.530195 0.750775 0.352592 -0.735187
C56   C     C_R   0.951679 0.468310 0.502486 -0.117517
C57   C     C_3   0.792360 0.646813 0.712418 -0.591696
C58   C     C_3   0.893620 0.606480 0.436966 -0.813601
C59   C     C_R   0.030030 0.465052 0.527266 -0.109763
C60   C     C_R   0.056900 0.472771 0.601081 0.600719
C61   C     C_R   0.013712 0.497036 0.648518 0.111201
F1    F     F_    0.043918 0.355426 0.295755 -0.611149
F2    F     F_    0.120569 0.449018 0.628199 -0.638445
F3    F     F_    0.833867 0.415329 0.415117 -0.645039
F4    F     F_    0.629618 0.555741 0.792271 -0.665521
F5    F     F_    0.350882 0.453409 0.738412 -0.602901
F6    F     F_    0.384716 0.486323 0.066853 -0.675077
F7    F     F_    0.431504 0.224079 0.594040 -0.618571
F8    F     F_    0.557647 0.236565 0.390247 -0.568409
F9    F     F_    0.575650 0.102491 0.399607 -0.606281
F10   F     F_    0.203284 0.380792 0.331153 -0.618515
F11   F     F_    0.921689 0.548638 0.740163 -0.656654
H1    H     H_    0.553646 0.786414 0.626004 0.189055
H2    H     H_    0.721205 0.498663 0.990331 0.234979
H3    H     H_    0.715719 0.536966 0.151902 0.250553
H4    H     H_    0.747096 0.645064 0.100722 0.235741
H5    H     H_    0.698906 0.661026 0.174365 0.233435
H6    H     H_    0.644760 0.646457 0.084088 0.253552
H7    H     H_    0.661054 0.555832 0.316145 0.213921
H8    H     H_    0.659403 0.426303 0.298635 0.287875
H9    H     H_    0.755986 0.485579 0.305482 0.257072
H10   H     H_    0.700347 0.444010 0.220006 0.222450
H11   H     H_    0.349074 0.409387 0.920924 0.271751
H12   H     H_    0.924708 0.374780 0.338750 0.227629
H13   H     H_    0.238089 0.458459 0.897602 0.234536
H14   H     H_    0.282270 0.509965 0.833933 0.254237
H15   H     H_    0.324124 0.532086 0.927641 0.239273
H16   H     H_    0.334327 0.423588 0.174956 0.275469
H17   H     H_    0.313925 0.542523 0.157590 0.247016
H18   H     H_    0.370915 0.574449 0.245594 0.234668
H19   H     H_    0.277912 0.508722 0.234078 0.249982
H20   H     H_    0.255755 0.516805 0.573112 0.258491
H21   H     H_    0.231176 0.632490 0.584949 0.242385
H22   H     H_    0.141124 0.601166 0.521138 0.245139
H23   H     H_    0.063915 0.461399 0.738770 0.270269
H24   H     H_    0.235606 0.609917 0.492972 0.239729
H25   H     H_    0.395410 0.093198 0.616491 0.274674
H26   H     H_    0.518507 0.158443 0.694968 0.252757
H27   H     H_    0.564344 0.091778 0.660132 0.242746
H28   H     H_    0.486706 0.065720 0.710121 0.233583
H29   H     H_    0.541987 0.892643 0.696682 0.229593
H30   H     H_    0.644229 0.000888 0.719175 0.237695
H31   H     H_    0.639149 0.003220 0.625209 0.256827
H32   H     H_    0.674549 0.933206 0.667536 0.241295
H33   H     H_    0.383012 0.872167 0.379669 0.216197
H34   H     H_    0.117290 0.575918 0.807467 0.230487
H35   H     H_    0.481667 0.884338 0.308174 0.205396
H36   H     H_    0.552173 0.944395 0.378708 0.268962
H37   H     H_    0.471116 0.973366 0.331418 0.274095
H38   H     H_    0.418976 0.769852 0.348988 0.224455
H39   H     H_    0.509304 0.715558 0.301308 0.229751
H40   H     H_    0.569728 0.725930 0.387574 0.226923
H41   H     H_    0.564245 0.804036 0.342896 0.232298
H42   H     H_    0.776754 0.541486 0.733908 0.286735
H43   H     H_    0.853028 0.667518 0.743591 0.230700
H44   H     H_    0.749542 0.657193 0.745824 0.261392
H45   H     H_    0.074483 0.617985 0.736266 0.246508
H46   H     H_    0.785739 0.676071 0.665260 0.223634
H47   H     H_    0.778166 0.550996 0.430491 0.235692
H48   H     H_    0.881082 0.614608 0.380232 0.247120
H49   H     H_    0.953093 0.596013 0.448091 0.248354
H50   H     H_    0.893285 0.656315 0.470097 0.233540
H51   H     H_    0.154339 0.576181 0.725252 0.231921
H52   H     H_    0.674569 0.582855 0.922482 0.269184
H53   H     H_    0.682293 0.455972 0.900684 0.243903
H54   H     H_    0.624534 0.438215 0.970120 0.245518
N1    N     N_2   0.533039 0.527010 0.024236 -0.091185
N2    N     N_2   0.370718 0.468934 0.205568 -0.257034
N3    N     N_2   0.201411 0.522254 0.549488 -0.228083
N4    N     N_2   0.449443 0.087363 0.607039 -0.249562
N5    N     N_2   0.552015 0.922401 0.655329 -0.292629
N6    N     N_2   0.439285 0.900548 0.402995 -0.305092
N7    N     N_2   0.463104 0.758242 0.384215 -0.273291
N8    N     N_2   0.776908 0.570426 0.691080 -0.239298
N9    N     N_2   0.833900 0.546650 0.450908 -0.245304
N10   N     N_2   0.483479 0.481845 0.979851 -0.084954
N11   N     N_2   0.489225 0.982346 0.538198 -0.099247
N12   N     N_2   0.523278 0.021352 0.498291 -0.076388
N13   N     N_2   0.043795 0.504652 0.722548 -0.214367
N14   N     N_2   0.633612 0.539981 0.934176 -0.261170
N15   N     N_2   0.669710 0.554274 0.125373 -0.275596
N16   N     N_2   0.661774 0.529382 0.267623 -0.319216
N17   N     N_2   0.344788 0.438401 0.878359 -0.235872
O1    O     O_3   0.500000 0.500000 0.500000 -0.528131
O2    O     O_R   0.321500 0.427480 0.506110 -0.615765
O3    O     O_R   0.674970 0.575130 0.575140 -0.614026
O4    O     O_R   0.328550 0.507430 0.428780 -0.630711
O5    O     O_R   0.674980 0.489960 0.489960 -0.627934
O6    O     O_R   0.540930 0.349770 0.460420 -0.581352
O7    O     O_R   0.550820 0.667300 0.556650 -0.657501
O8    O     O_R   0.445640 0.455160 0.644460 -0.583480
O9    O     O_R   0.462610 0.527770 0.338470 -0.628420
O10   O     O_R   0.540910 0.554790 0.665460 -0.603328
O11   O     O_R   0.550840 0.462270 0.351610 -0.639186
O12   O     O_R   0.445650 0.335310 0.524600 -0.578712
O13   O     O_R   0.462600 0.647620 0.458330 -0.622127
Zn1   Zn    Zn3+2 0.565550 0.451340 0.451340 1.026307
Zn2   Zn    Zn3+2 0.429430 0.430690 0.543050 1.080948
Zn3   Zn    Zn3+2 0.439490 0.544930 0.432570 0.975996
Zn4   Zn    Zn3+2 0.565540 0.573040 0.573050 0.980556

loop_
_geom_bond_atom_site_label_1
_geom_bond_atom_site_label_2
_ccdc_geom_bond_type
C25   C31   A    
C4    O11   A    
C38   F9    S    
C34   C56   A    
C43   F11   S    
C37   F8    S    
C55   H40   S    
C27   C29   A    
C49   H15   S    
C46   H53   S    
C54   H36   S    
O4    Zn3   S    
C6    C9    A    
C32   N4    S    
C51   N3    S    
C7    C8    A    
C57   H43   S    
C25   C28   S    
C1    C21   S    
C9    C42   A    
C37   C38   A    
O7    Zn4   S    
C54   H35   S    
C60   F2    S    
C36   C37   A    
C19   C21   A    
C8    C42   A    
C47   H4    S    
C12   C43   A    
C35   N12   S    
C30   C31   A    
C31   H1    S    
H7    N16   S    
O3    Zn4   S    
C24   N17   S    
C30   N5    S    
C33   C36   A    
C48   H9    S    
C18   C19   A    
C52   H26   S    
C22   F5    S    
H3    N15   S    
C15   N15   S    
H20   N3    S    
C50   H18   S    
C20   C24   A    
C8    F10   S    
C46   H54   S    
C19   F4    S    
C16   O6    A    
C53   N5    S    
O1    Zn4   S    
C29   C30   A    
C18   C20   A    
C51   H24   S    
O9    Zn3   S    
C59   C60   A    
C12   N8    S    
C13   C14   A    
O12   Zn2   S    
C27   N6    S    
C49   H14   S    
C2    F3    S    
C39   C42   S    
H42   N8    S    
C57   H44   S    
C4    O9    A    
C58   H50   S    
C40   O5    A    
C32   C35   A    
C49   H13   S    
C35   C38   A    
N1    N10   D    
O11   Zn1   S    
C5    C7    A    
H33   N6    S    
C61   N13   S    
C55   H41   S    
C25   C26   A    
C55   N7    S    
C52   H28   S    
H47   N9    S    
C14   N1    S    
C54   H37   S    
C17   N16   S    
C1    O10   A    
O8    Zn2   S    
C7    F1    S    
C12   C41   A    
C50   H17   S    
C53   H30   S    
C23   C34   A    
C39   O2    A    
C16   O12   A    
C58   H48   S    
C26   C27   A    
C48   N16   S    
C23   N9    S    
C34   C45   A    
C20   N10   S    
O1    Zn3   S    
C18   N14   S    
C43   C45   A    
C53   H32   S    
C51   H21   S    
H29   N5    S    
C40   C41   S    
C44   N13   S    
C44   H34   S    
C22   C24   A    
C57   N8    S    
C50   N2    S    
C47   H5    S    
O1    Zn2   S    
C46   H2    S    
C54   N6    S    
C46   N14   S    
C13   F6    S    
C15   C17   A    
C28   O7    A    
C58   H49   S    
C52   H27   S    
C55   H39   S    
C6    C59   A    
H52   N14   S    
O13   Zn3   S    
C3    C5    A    
H25   N4    S    
C9    N3    S    
C58   N9    S    
C29   N11   S    
N11   N12   D    
C47   N15   S    
C44   H51   S    
H23   N13   S    
C23   C41   A    
C56   C59   A    
C40   O3    A    
C52   N4    S    
C32   C33   A    
C48   H8    S    
O10   Zn4   S    
C2    C3    A    
H16   N2    S    
C26   N7    S    
C2    C56   A    
C16   C36   S    
H11   N17   S    
O2    Zn2   S    
C11   C13   A    
C5    C6    A    
O6    Zn1   S    
C44   H45   S    
C53   H31   S    
C49   N17   S    
C45   C61   A    
C48   H10   S    
C1    O8    A    
C11   N2    S    
O5    Zn1   S    
C10   C11   A    
C51   H22   S    
C50   H19   S    
C39   O4    A    
C3    H12   S    
C28   O13   A    
C14   C15   A    
C60   C61   A    
H38   N7    S    
C10   C17   A    
C47   H6    S    
O1    Zn1   S    
C21   C22   A    
C4    C10   S    
C33   F7    S    
C57   H46   S    
