data_mof_unit_11931.cif
_audit_creation_date              2013-03-05T16:43:42-0500
_audit_creation_method            fapswitch 2.2
_symmetry_space_group_name_H-M    P1
_symmetry_Int_Tables_number       1
_space_group_crystal_system       triclinic
_cell_length_a                    15.734022
_cell_length_b                    10.651411
_cell_length_c                    9.899422
_cell_angle_alpha                 90.277223
_cell_angle_beta                  90.739939
_cell_angle_gamma                 90.598966
_cell_volume                      1658.79001704

loop_
_atom_site_label
_atom_site_type_symbol
_atom_site_description
_atom_site_fract_x
_atom_site_fract_y
_atom_site_fract_z
_atom_type_partial_charge
O1    O     O_R   0.500010 0.316790 0.614690 -0.627463
O2    O     O_R   0.500000 0.316760 0.385350 -0.608401
C1    C     C_R   0.499620 0.260403 0.499718 0.945863
O3    O     O_R   0.376780 0.500010 0.614650 -0.610111
O4    O     O_R   0.376770 0.499970 0.385310 -0.600298
C2    C     C_R   0.338092 0.499889 0.499257 0.927829
Zn1   Zn    Zn3+2 0.500010 0.500020 0.653130 0.956291
Zn2   Zn    Zn3+2 0.499990 0.499980 0.346870 0.977402
O5    O     O_R   0.500000 0.683240 0.614650 -0.646808
O6    O     O_R   0.499990 0.683210 0.385310 -0.618293
O7    O     O_R   0.623230 0.500030 0.614690 -0.631606
O8    O     O_R   0.623220 0.499990 0.385350 -0.625019
C3    C     C_R   0.504150 0.739418 0.500449 0.839307
C4    C     C_R   0.661954 0.500367 0.500820 0.865803
C5    C     C_3   0.970150 0.389534 0.464108 -0.260370
C6    C     C_3   0.026246 0.479124 0.378554 -0.121633
H1    H     H_    0.049256 0.459569 0.275093 0.180207
H2    H     H_    0.944318 0.296893 0.430768 0.170186
H3    H     H_    0.946277 0.666196 0.351860 0.181713
C7    C     C_1   0.249382 0.500607 0.498138 -0.116771
C8    C     C_1   0.750758 0.501555 0.502842 -0.131571
C9    C     C_3   0.028545 0.414114 0.588527 -0.074206
C10   C     C_3   0.083533 0.502736 0.503653 0.116072
C11   C     C_3   0.974353 0.526447 0.629011 0.225401
C12   C     C_3   0.916761 0.503267 0.506218 0.073931
C13   C     C_3   0.029661 0.615356 0.545559 -0.080463
C14   C     C_3   0.971240 0.592875 0.420670 -0.244891
C15   C     C_1   0.174243 0.501537 0.499588 0.100077
C16   C     C_1   0.825981 0.502551 0.504659 0.047117
C17   C     C_R   0.463232 0.061950 0.599865 0.108316
C18   C     C_R   0.504878 0.128697 0.500232 -0.089282
C19   C     C_R   0.560235 0.068442 0.411990 -0.190834
H4    H     H_    0.598038 0.123136 0.342316 0.193788
C20   C     C_R   0.565901 0.937793 0.413527 -0.035422
C21   C     C_R   0.513251 0.871413 0.504033 -0.202297
C22   C     C_R   0.468743 0.934709 0.603104 0.143590
C23   C     C_3   0.379171 0.917213 0.649509 -0.294648
C24   C     C_3   0.372224 0.060225 0.646147 -0.269198
H5    H     H_    0.338691 0.866050 0.573779 0.150159
H6    H     H_    0.365135 0.104151 0.747082 0.168731
C25   C     C_R   0.435956 0.442129 0.069396 0.199862
N1    N     N_R   0.499430 0.499140 0.142800 -0.135858
C26   C     C_R   0.558458 0.567182 0.075021 -0.052082
H7    H     H_    0.605601 0.619836 0.132981 0.186477
C27   C     C_R   0.558899 0.568687 0.931161 -0.022261
N2    N     N_R   0.499430 0.499180 0.857150 -0.159820
C28   C     C_R   0.435899 0.442215 0.927296 0.213306
C29   C     C_3   0.411683 0.306804 0.920657 -0.492698
C30   C     C_3   0.411899 0.306593 0.074100 -0.423366
H8    H     H_    0.347218 0.292813 0.875529 0.219146
H9    H     H_    0.462356 0.247751 0.876837 0.231844
H10   H     H_    0.347712 0.291687 0.117192 0.228081
H11   H     H_    0.462756 0.247564 0.118943 0.234886
C31   C     C_2   0.374281 0.861579 0.788907 0.478334
H12   H     H_    0.327753 0.788250 0.808504 0.092351
O9    O     O_2   0.421404 0.897963 0.880387 -0.552529
C32   C     C_2   0.305413 0.103426 0.546163 0.437914
H13   H     H_    0.238897 0.089443 0.570024 0.123306
O10   O     O_2   0.324012 0.153483 0.439740 -0.574816
C33   C     C_2   0.624488 0.646703 0.864908 0.511762
H14   H     H_    0.617730 0.675742 0.761697 0.115552
O11   O     O_2   0.687760 0.682528 0.927306 -0.528676
C34   C     C_2   0.060366 0.742142 0.592184 0.473131
H15   H     H_    0.014591 0.813226 0.618839 0.075255
O12   O     O_2   0.136250 0.766135 0.600561 -0.590712
N3    N     N_R   0.947062 0.552412 0.766490 0.196678
O13   O     O_R   0.003530 0.570297 0.861907 -0.370320
O14   O     O_R   0.866705 0.557884 0.794740 -0.351585
C35   C     C_2   0.057954 0.314050 0.683583 0.464122
H16   H     H_    0.011456 0.258094 0.737183 0.079241
O15   O     O_2   0.133593 0.295023 0.701386 -0.583472
C36   C     C_2   0.626452 0.873779 0.322760 0.457395
H17   H     H_    0.641951 0.775827 0.337458 0.061436
O16   O     O_2   0.660934 0.930458 0.231194 -0.534084

loop_
_geom_bond_atom_site_label_1
_geom_bond_atom_site_label_2
_geom_bond_distance
_ccdc_geom_bond_type
C5    H2    1.110321 S    
N3    O14   1.300259 A    
C34   O12   1.220086 D    
C27   C33   1.480035 S    
C25   N1    1.363262 A    
C21   C22   1.388528 A    
C26   H7    1.082188 S    
C27   N2    1.386717 A    
Zn1   O7    1.980552 S    
C13   C14   1.547242 S    
C4    C8    1.397069 S    
C22   C23   1.498016 S    
C11   C13   1.531497 S    
C3    C21   1.411941 S    
O4    C2    1.288598 A    
O7    C4    1.288271 A    
C32   O10   1.220650 D    
C5    C6    1.554496 S    
C17   C24   1.509023 S    
C33   O11   1.221528 D    
C20   C21   1.414894 A    
C10   C13   1.534610 S    
C35   O15   1.220020 D    
O5    C3    1.283757 A    
C31   H12   1.084803 S    
C29   H9    1.111880 S    
C28   C29   1.488863 S    
C6    H1    1.110197 S    
H3    C14   1.110329 S    
C9    C35   1.498116 S    
C11   N3    1.458432 S    
C6    C14   1.554736 S    
C29   H8    1.111334 S    
N3    O13   1.300361 A    
O3    Zn1   1.971135 S    
C25   C30   1.489712 S    
C5    C9    1.546726 S    
C12   C16   1.428146 S    
C31   O9    1.221989 D    
Zn1   N2    2.019881 S    
C11   C12   1.524372 S    
C36   O16   1.221319 D    
C7    C15   1.182648 T    
C8    C16   1.183399 T    
C33   H14   1.073242 S    
O1    C1    1.284245 A    
C19   C20   1.395523 A    
C13   C34   1.498230 S    
C23   C24   1.528822 S    
C24   C32   1.511320 S    
C18   C19   1.399832 A    
Zn2   O8    1.971136 S    
C30   H10   1.111548 S    
C25   C28   1.406706 A    
C10   C15   1.428520 S    
C1    C18   1.406191 S    
C26   C27   1.424395 A    
C23   C31   1.507011 S    
O3    C2    1.287415 A    
C29   C30   1.518975 S    
O8    C4    1.288407 A    
C6    C10   1.540378 S    
C9    C11   1.531268 S    
N1    C26   1.358222 A    
C20   C36   1.486510 S    
Zn1   O5    1.990192 S    
N2    C28   1.363399 A    
O1    Zn1   1.986602 S    
O2    Zn2   1.990190 S    
Zn2   N1    2.020057 S    
C36   H17   1.083994 S    
O6    C3    1.285515 A    
O4    Zn2   1.980554 S    
C12   C14   1.540260 S    
C2    C7    1.395773 S    
C17   C22   1.359477 A    
C19   H4    1.084491 S    
O2    C1    1.284085 A    
C23   H5    1.114053 S    
C24   H6    1.108688 S    
C32   H13   1.084777 S    
C17   C18   1.386125 A    
C30   H11   1.112075 S    
C35   H16   1.084428 S    
C5    C12   1.540260 S    
C34   H15   1.084431 S    
Zn2   O6    1.986602 S    
C9    C10   1.534565 S    
