data_mof_unit_53616.cif
_audit_creation_date              2013-03-05T15:50:19-0500
_audit_creation_method            fapswitch 2.2
_symmetry_space_group_name_H-M    P1
_symmetry_Int_Tables_number       1
_space_group_crystal_system       triclinic
_cell_length_a                    18.316731
_cell_length_b                    25.942501
_cell_length_c                    18.271524
_cell_angle_alpha                 89.942894
_cell_angle_beta                  89.77549
_cell_angle_gamma                 90.102814
_cell_volume                      8682.21088088

loop_
_atom_site_label
_atom_site_type_symbol
_atom_site_description
_atom_site_fract_x
_atom_site_fract_y
_atom_site_fract_z
_atom_type_partial_charge
Zn1   Zn    Zn3+2 0.249990 0.293780 0.913250 1.018577
Zn2   Zn    Zn3+2 0.249990 0.706220 0.086750 1.015127
Zn3   Zn    Zn3+2 0.249990 0.706220 0.913250 0.979496
Zn4   Zn    Zn3+2 0.249990 0.293780 0.086750 1.016630
Zn5   Zn    Zn3+2 0.749990 0.793780 0.413250 0.988058
Zn6   Zn    Zn3+2 0.749990 0.206220 0.586750 1.024963
Zn7   Zn    Zn3+2 0.749990 0.206220 0.413250 1.024457
Zn8   Zn    Zn3+2 0.749990 0.793780 0.586750 1.020515
Zn9   Zn    Zn3+2 0.336760 0.206240 0.000000 0.970490
Zn10  Zn    Zn3+2 0.336760 0.793760 0.000000 0.957126
Zn11  Zn    Zn3+2 0.836760 0.706240 0.500000 0.974955
Zn12  Zn    Zn3+2 0.836760 0.293760 0.500000 0.982476
Zn13  Zn    Zn3+2 0.163250 0.206230 0.000000 0.973660
Zn14  Zn    Zn3+2 0.163250 0.793770 0.000000 0.989714
Zn15  Zn    Zn3+2 0.663250 0.706230 0.500000 0.968558
Zn16  Zn    Zn3+2 0.663250 0.293770 0.500000 0.965761
O1    O     O_3   0.249990 0.250010 0.000000 -0.501940
O2    O     O_3   0.249990 0.749990 0.000000 -0.508564
O3    O     O_3   0.749990 0.750010 0.500000 -0.503689
O4    O     O_3   0.749990 0.249990 0.500000 -0.505047
O5    O     O_R   0.335430 0.280650 0.146160 -0.609757
O6    O     O_R   0.335430 0.719350 0.853840 -0.622065
O7    O     O_R   0.335430 0.719350 0.146160 -0.594327
O8    O     O_R   0.335430 0.280650 0.853840 -0.598954
O9    O     O_R   0.835430 0.780650 0.646160 -0.591781
O10   O     O_R   0.835430 0.219350 0.353840 -0.594285
O11   O     O_R   0.835430 0.219350 0.646160 -0.598307
O12   O     O_R   0.835430 0.780650 0.353840 -0.631372
O13   O     O_R   0.164550 0.280640 0.853840 -0.649792
O14   O     O_R   0.164550 0.719360 0.146160 -0.659470
O15   O     O_R   0.164550 0.719360 0.853840 -0.639062
O16   O     O_R   0.164550 0.280640 0.146160 -0.642637
O17   O     O_R   0.664550 0.780640 0.353840 -0.652328
O18   O     O_R   0.664550 0.219360 0.646160 -0.645731
O19   O     O_R   0.664550 0.219360 0.353840 -0.655605
O20   O     O_R   0.664550 0.780640 0.646160 -0.641811
O21   O     O_R   0.396160 0.219380 0.914560 -0.648329
O22   O     O_R   0.396160 0.780620 0.085440 -0.653261
O23   O     O_R   0.396160 0.780620 0.914560 -0.648671
O24   O     O_R   0.396160 0.219380 0.085440 -0.640374
O25   O     O_R   0.896160 0.719380 0.414560 -0.636520
O26   O     O_R   0.896160 0.280620 0.585440 -0.651020
O27   O     O_R   0.896160 0.280620 0.414560 -0.643440
O28   O     O_R   0.896160 0.719380 0.585440 -0.645483
O29   O     O_R   0.103840 0.219370 0.085450 -0.631385
O30   O     O_R   0.103840 0.780630 0.914550 -0.626575
O31   O     O_R   0.103840 0.780630 0.085450 -0.602100
O32   O     O_R   0.103840 0.219370 0.914550 -0.624857
O33   O     O_R   0.603840 0.719370 0.585450 -0.635452
O34   O     O_R   0.603840 0.280630 0.414550 -0.632660
O35   O     O_R   0.603840 0.280630 0.585450 -0.634738
O36   O     O_R   0.603840 0.719370 0.414550 -0.633830
O37   O     O_R   0.310730 0.133160 0.000000 -0.645147
O38   O     O_R   0.310730 0.866840 0.000000 -0.643962
O39   O     O_R   0.810730 0.633160 0.500000 -0.635967
O40   O     O_R   0.810730 0.366840 0.500000 -0.638458
O41   O     O_R   0.249970 0.366860 0.060720 -0.604126
O42   O     O_R   0.249970 0.633140 0.939280 -0.647161
O43   O     O_R   0.249970 0.633140 0.060720 -0.590042
O44   O     O_R   0.249970 0.366860 0.939280 -0.609793
O45   O     O_R   0.749970 0.866860 0.560720 -0.595276
O46   O     O_R   0.749970 0.133140 0.439280 -0.609540
O47   O     O_R   0.749970 0.133140 0.560720 -0.609551
O48   O     O_R   0.749970 0.866860 0.439280 -0.641482
O49   O     O_R   0.189290 0.133150 0.000000 -0.633340
O50   O     O_R   0.189290 0.866850 0.000000 -0.630735
O51   O     O_R   0.689290 0.633150 0.500000 -0.633044
O52   O     O_R   0.689290 0.366850 0.500000 -0.633427
C1    C     C_R   0.389813 0.250028 0.139826 0.777631
C2    C     C_R   0.390004 0.749848 0.860433 0.773874
C3    C     C_R   0.389544 0.750092 0.140153 0.813863
C4    C     C_R   0.389726 0.250072 0.860273 0.799480
C5    C     C_R   0.889786 0.750069 0.639786 0.796745
C6    C     C_R   0.889609 0.250068 0.360154 0.798119
C7    C     C_R   0.889958 0.249819 0.639678 0.810437
C8    C     C_R   0.889730 0.749913 0.360227 0.770407
C9    C     C_R   0.110013 0.250153 0.860318 0.769460
C10   C     C_R   0.110397 0.749957 0.139905 0.780786
C11   C     C_R   0.110207 0.749943 0.860201 0.777119
C12   C     C_R   0.110473 0.249951 0.140042 0.754380
C13   C     C_R   0.610573 0.749786 0.359756 0.792966
C14   C     C_R   0.610344 0.250023 0.639871 0.771212
C15   C     C_R   0.610432 0.250092 0.359954 0.777662
C16   C     C_R   0.610004 0.750255 0.639444 0.774252
C17   C     C_R   0.249672 0.109268 0.000932 0.781270
C18   C     C_R   0.249932 0.890689 0.000298 0.781998
C19   C     C_R   0.749943 0.609328 0.500231 0.788489
C20   C     C_R   0.750073 0.390674 0.500168 0.786108
C21   C     C_R   0.252290 0.391337 0.999730 0.922392
C22   C     C_R   0.252192 0.608645 0.000493 0.852531
C23   C     C_R   0.752549 0.891390 0.500296 0.888603
C24   C     C_R   0.751874 0.108700 0.499760 0.905238
C25   C     C_3   0.213998 0.470143 0.064604 -0.423896
C26   C     C_3   0.232358 0.529758 0.927304 -0.402255
C27   C     C_3   0.205318 0.528991 0.059720 -0.402605
C28   C     C_3   0.222731 0.470989 0.929688 -0.409202
C29   C     C_3   0.711456 0.970869 0.563906 -0.405037
C30   C     C_3   0.715783 0.029148 0.433612 -0.419279
C31   C     C_3   0.720873 0.029636 0.568657 -0.413796
C32   C     C_3   0.725933 0.970486 0.429501 -0.412430
H1    H     H_    0.237823 0.458641 0.117508 0.283424
H2    H     H_    0.268914 0.541454 0.882143 0.283521
H3    H     H_    0.211251 0.546897 0.114373 0.258666
H4    H     H_    0.243010 0.453360 0.878309 0.262828
H5    H     H_    0.722056 0.952640 0.617619 0.260507
H6    H     H_    0.729830 0.047415 0.380617 0.253489
H7    H     H_    0.750287 0.040677 0.618853 0.283694
H8    H     H_    0.758689 0.959636 0.381150 0.284105
H9    H     H_    0.166006 0.905167 0.111332 0.208765
H10   H     H_    0.158765 0.093354 0.108005 0.177761
H11   H     H_    0.709965 0.404961 0.369769 0.189842
H12   H     H_    0.705152 0.595152 0.371173 0.193524
C33   C     C_3   0.343924 0.468777 0.002192 0.489219
C34   C     C_3   0.341585 0.531233 0.020927 0.460187
C35   C     C_3   0.843474 0.969314 0.511649 0.501835
C36   C     C_3   0.843893 0.032036 0.494087 0.481296
C37   C     C_3   0.260151 0.448981 0.999237 -0.090372
C38   C     C_3   0.259816 0.551014 0.002309 -0.074189
C39   C     C_3   0.760331 0.949144 0.501404 -0.087067
C40   C     C_3   0.760019 0.051205 0.499024 -0.093797
H13   H     H_    0.878020 0.307478 0.966604 0.139183
H14   H     H_    0.898819 0.653176 0.052542 0.136802
H15   H     H_    0.172371 0.877350 0.672436 0.134558
H16   H     H_    0.913636 0.365503 0.066238 0.137483
H17   H     H_    0.373780 0.780949 0.475216 0.147538
H18   H     H_    0.678905 0.370301 0.833880 0.140710
H19   H     H_    0.376005 0.203395 0.470977 0.141282
H20   H     H_    0.406971 0.859147 0.561348 0.131000
C41   C     C_R   0.143815 0.218138 0.713681 -0.133172
C42   C     C_R   0.136255 0.797829 0.278895 -0.074401
C43   C     C_R   0.986521 0.682218 0.871151 -0.145319
C44   C     C_R   0.130345 0.193712 0.273965 -0.187423
C45   C     C_R   0.647821 0.734050 0.207559 -0.050222
C46   C     C_R   0.483706 0.185795 0.625748 -0.148018
C47   C     C_R   0.646886 0.272396 0.209706 -0.065472
C48   C     C_R   0.629333 0.691905 0.770823 -0.135752
C49   C     C_R   0.161185 0.203191 0.642582 -0.136719
C50   C     C_R   0.147811 0.823413 0.344860 -0.150258
C51   C     C_R   0.926634 0.649241 0.877141 -0.136333
C52   C     C_R   0.138083 0.163217 0.336269 -0.101776
C53   C     C_R   0.666087 0.725944 0.134472 -0.088804
C54   C     C_R   0.422600 0.154111 0.618720 -0.154480
C55   C     C_R   0.665247 0.283309 0.137300 -0.055419
C56   C     C_R   0.639583 0.663880 0.835051 -0.141923
C57   C     C_R   0.611894 0.723630 0.081927 -0.117554
C58   C     C_R   0.368996 0.153850 0.672787 -0.159427
C59   C     C_R   0.611668 0.283568 0.083915 -0.109145
C60   C     C_R   0.587091 0.665265 0.890100 -0.076977
C61   C     C_R   0.107880 0.203381 0.588836 -0.147067
C62   C     C_R   0.094898 0.821971 0.399414 -0.102690
C63   C     C_R   0.872756 0.649540 0.823785 -0.140566
C64   C     C_R   0.082148 0.160701 0.387742 -0.052435
C65   C     C_R   0.539186 0.730142 0.102012 -0.076951
C66   C     C_R   0.376035 0.185459 0.733990 -0.155059
C67   C     C_R   0.539533 0.272695 0.102628 -0.142465
C68   C     C_R   0.524101 0.694585 0.881058 -0.111520
C69   C     C_R   0.036796 0.218277 0.605887 -0.106039
C70   C     C_R   0.029255 0.796269 0.387393 -0.122450
C71   C     C_R   0.878608 0.682635 0.763919 -0.146229
C72   C     C_R   0.018918 0.189618 0.378060 -0.081331
C73   C     C_R   0.519258 0.741094 0.175541 0.071739
C74   C     C_R   0.437664 0.217978 0.742352 0.077901
C75   C     C_R   0.519373 0.260743 0.175841 0.071972
C76   C     C_R   0.511464 0.722260 0.815599 0.055476
C77   C     C_R   0.017955 0.234600 0.677547 0.075437
C78   C     C_R   0.014413 0.772587 0.319225 0.059652
C79   C     C_R   0.939073 0.716382 0.756448 0.078212
C80   C     C_R   0.009662 0.220721 0.315021 0.078968
C81   C     C_R   0.072307 0.234643 0.732181 0.073606
C82   C     C_R   0.068987 0.772769 0.264583 0.112500
C83   C     C_R   0.993715 0.716232 0.810859 0.078639
C84   C     C_R   0.065437 0.221986 0.261599 0.078973
C85   C     C_R   0.574268 0.742281 0.229410 0.068858
C86   C     C_R   0.492299 0.218020 0.687681 0.080261
C87   C     C_R   0.573932 0.260624 0.230220 0.057256
C88   C     C_R   0.565274 0.721536 0.760213 0.075088
C89   C     C_R   0.445684 0.749477 0.196294 -0.147213
C90   C     C_R   0.445889 0.250055 0.804209 -0.147082
C91   C     C_R   0.446081 0.249973 0.195857 -0.150795
C92   C     C_R   0.446284 0.750244 0.804315 -0.132862
C93   C     C_R   0.946013 0.249846 0.695857 -0.152271
C94   C     C_R   0.946210 0.749351 0.304435 -0.125476
C95   C     C_R   0.945894 0.750066 0.695961 -0.144124
C96   C     C_R   0.945744 0.250039 0.304101 -0.139593
C97   C     C_R   0.425951 0.757518 0.270538 0.072940
C98   C     C_R   0.508013 0.281784 0.812858 0.052506
C99   C     C_R   0.426785 0.238354 0.269213 0.078127
C100  C     C_R   0.434944 0.778792 0.739479 0.076918
C101  C     C_R   0.927567 0.265135 0.767885 0.072505
C102  C     C_R   0.932749 0.724305 0.237203 0.076466
C103  C     C_R   0.006373 0.783667 0.689067 0.046921
C104  C     C_R   0.936161 0.280197 0.240450 0.064199
C105  C     C_R   0.981886 0.265073 0.822550 0.076301
C106  C     C_R   0.987268 0.724611 0.182421 0.073154
C107  C     C_R   0.060762 0.783772 0.743695 0.076594
C108  C     C_R   0.991085 0.280321 0.186069 0.098787
C109  C     C_R   0.480918 0.758417 0.324459 0.073532
C110  C     C_R   0.562583 0.281922 0.758119 0.077480
C111  C     C_R   0.481452 0.238018 0.323486 0.075030
C112  C     C_R   0.489451 0.778917 0.684673 0.076905
C113  C     C_R   0.053904 0.250024 0.804170 -0.145473
C114  C     C_R   0.054515 0.749423 0.196295 -0.113162
C115  C     C_R   0.054113 0.749922 0.804024 -0.136045
C116  C     C_R   0.054698 0.250578 0.196622 -0.124421
C117  C     C_R   0.554503 0.750339 0.303623 -0.159276
C118  C     C_R   0.554245 0.249982 0.696086 -0.135950
C119  C     C_R   0.554415 0.249716 0.303723 -0.151729
C120  C     C_R   0.553951 0.750151 0.695528 -0.136452
C121  C     C_R   0.352428 0.765621 0.292498 -0.138793
C122  C     C_R   0.516919 0.313573 0.875200 -0.098592
C123  C     C_R   0.354121 0.225558 0.289563 -0.135645
C124  C     C_R   0.370551 0.807930 0.728454 -0.146070
C125  C     C_R   0.856048 0.281610 0.786422 -0.144754
C126  C     C_R   0.866540 0.697641 0.224060 -0.146297
C127  C     C_R   0.013802 0.817411 0.628554 -0.086409
C128  C     C_R   0.873013 0.310768 0.230069 -0.146866
C129  C     C_R   0.334069 0.772361 0.365880 -0.141070
C130  C     C_R   0.578059 0.345171 0.882417 -0.080904
C131  C     C_R   0.336157 0.213938 0.361867 -0.138020
C132  C     C_R   0.360810 0.836528 0.664640 -0.140627
C133  C     C_R   0.838597 0.296307 0.857624 -0.136984
C134  C     C_R   0.855015 0.671948 0.158172 -0.125990
C135  C     C_R   0.073015 0.850999 0.623037 -0.073403
C136  C     C_R   0.865266 0.341139 0.167618 -0.112256
C137  C     C_R   0.891843 0.295934 0.911443 -0.131647
C138  C     C_R   0.908164 0.672985 0.103740 -0.135536
C139  C     C_R   0.126403 0.851248 0.676897 -0.153122
C140  C     C_R   0.919543 0.341472 0.114293 -0.170100
C141  C     C_R   0.388189 0.774486 0.418480 -0.140272
C142  C     C_R   0.631554 0.345615 0.828232 -0.161249
C143  C     C_R   0.389970 0.213199 0.415040 -0.140141
C144  C     C_R   0.414594 0.836765 0.610758 -0.159116
C145  C     C_R   0.962950 0.281126 0.894317 -0.136921
C146  C     C_R   0.973707 0.698995 0.115366 -0.136679
C147  C     C_R   0.120802 0.817937 0.736579 -0.137617
C148  C     C_R   0.981667 0.311177 0.122820 -0.140757
C149  C     C_R   0.460918 0.768739 0.398187 -0.139599
C150  C     C_R   0.624347 0.314273 0.766732 -0.146096
C151  C     C_R   0.461967 0.224457 0.396284 -0.141322
C152  C     C_R   0.478295 0.808264 0.620282 -0.152366
H21   H     H_    0.187049 0.216231 0.753707 0.128219
H22   H     H_    0.179260 0.799803 0.238242 0.107183
H23   H     H_    0.026970 0.680707 0.914123 0.107205
H24   H     H_    0.174836 0.193818 0.234833 0.104844
H25   H     H_    0.692221 0.732934 0.246162 0.145794
H26   H     H_    0.524058 0.184617 0.582355 0.104690
H27   H     H_    0.690635 0.274162 0.249097 0.144942
H28   H     H_    0.671850 0.689832 0.729626 0.113064
H29   H     H_    0.216176 0.191161 0.629205 0.138559
H30   H     H_    0.198082 0.844422 0.353719 0.136053
H31   H     H_    0.922052 0.623293 0.923347 0.128054
H32   H     H_    0.187081 0.140628 0.343921 0.134147
H33   H     H_    0.722479 0.720854 0.118539 0.138039
H34   H     H_    0.416904 0.129603 0.571159 0.129566
H35   H     H_    0.721224 0.292104 0.122710 0.138786
H36   H     H_    0.688562 0.641196 0.842242 0.136847
H37   H     H_    0.626280 0.716489 0.025395 0.135952
H38   H     H_    0.321753 0.129040 0.667331 0.132395
H39   H     H_    0.625956 0.292478 0.027759 0.135085
H40   H     H_    0.595286 0.643699 0.940142 0.183334
H41   H     H_    0.121725 0.191718 0.533783 0.128888
H42   H     H_    0.104670 0.840921 0.451184 0.146802
H43   H     H_    0.826261 0.623968 0.828759 0.123124
H44   H     H_    0.087625 0.136054 0.435215 0.153830
H45   H     H_    0.499261 0.726013 0.059080 0.152801
H46   H     H_    0.332913 0.183969 0.774615 0.102637
H47   H     H_    0.500265 0.274135 0.058777 0.138923
H48   H     H_    0.485814 0.695663 0.925915 0.139114
H49   H     H_    0.997102 0.216595 0.562314 0.152653
H50   H     H_    0.990500 0.795285 0.432001 0.142604
H51   H     H_    0.835371 0.681438 0.723736 0.102624
H52   H     H_    0.977233 0.186883 0.420004 0.159789
H53   H     H_    0.308045 0.766929 0.253919 0.133573
H54   H     H_    0.476860 0.314379 0.918858 0.166875
H55   H     H_    0.310374 0.223787 0.250168 0.130437
H56   H     H_    0.327386 0.809193 0.769038 0.110044
H57   H     H_    0.812863 0.283661 0.746356 0.120916
H58   H     H_    0.823612 0.695630 0.264828 0.128560
H59   H     H_    0.973991 0.818197 0.585089 0.180498
H60   H     H_    0.829447 0.311893 0.270223 0.131456
H61   H     H_    0.002613 0.282715 0.937925 0.128187
H62   H     H_    0.013810 0.698136 0.071734 0.112236
H63   H     H_    0.163795 0.819388 0.777006 0.113493
H64   H     H_    0.022492 0.312771 0.079894 0.107184
H65   H     H_    0.500722 0.772835 0.441236 0.135478
H66   H     H_    0.667473 0.315792 0.726113 0.110069
H67   H     H_    0.501852 0.221743 0.439535 0.131895
H68   H     H_    0.518665 0.809691 0.576919 0.106169
C153  C     C_R   0.323089 0.053890 0.886350 -0.137972
C154  C     C_R   0.323867 0.946842 0.886381 -0.142904
C155  C     C_R   0.792100 0.553623 0.628690 -0.143523
C156  C     C_R   0.791848 0.446266 0.628713 -0.145956
C157  C     C_R   0.359439 0.027295 0.831058 -0.136873
C158  C     C_R   0.359834 0.973850 0.831080 -0.137784
C159  C     C_R   0.812423 0.526679 0.691380 -0.123636
C160  C     C_R   0.812222 0.473122 0.691420 -0.126815
C161  C     C_R   0.287761 0.973050 0.944391 0.070533
C162  C     C_R   0.287394 0.027280 0.944427 0.069499
C163  C     C_R   0.771571 0.472837 0.564080 0.068916
C164  C     C_R   0.771582 0.527124 0.564094 0.068409
C165  C     C_R   0.249086 0.946342 0.999954 -0.106745
C166  C     C_R   0.248166 0.053565 0.999921 -0.106616
C167  C     C_R   0.750165 0.446354 0.500119 -0.095994
C168  C     C_R   0.749743 0.553656 0.500275 -0.097201
C169  C     C_R   0.204749 0.972665 0.051547 0.006895
C170  C     C_R   0.203493 0.026632 0.051041 0.031099
C171  C     C_R   0.728272 0.472990 0.436336 0.020824
C172  C     C_R   0.727553 0.527065 0.436581 0.022056
C173  C     C_R   0.160964 0.946141 0.103612 -0.301632
C174  C     C_R   0.156848 0.052229 0.101487 -0.316598
C175  C     C_R   0.708382 0.446580 0.371717 -0.312373
C176  C     C_R   0.705404 0.553514 0.372702 -0.317827
C177  C     C_R   0.107728 0.971378 0.145268 0.374563
C178  C     C_R   0.104784 0.025523 0.143307 0.329580
C179  C     C_R   0.686670 0.472887 0.308466 0.333384
C180  C     C_R   0.683477 0.527227 0.309609 0.336790
H69   H     H_    0.321754 0.095352 0.881199 0.139911
H70   H     H_    0.323292 0.905364 0.881408 0.140384
H71   H     H_    0.792173 0.595272 0.631754 0.118668
H72   H     H_    0.791758 0.404613 0.631767 0.119807
H73   H     H_    0.386164 0.048297 0.787236 0.144824
H74   H     H_    0.386900 0.953161 0.787295 0.143065
H75   H     H_    0.828003 0.547439 0.740237 0.133085
H76   H     H_    0.827587 0.452262 0.740329 0.135633
H77   H     H_    0.783598 0.308295 0.871025 0.136645
H78   H     H_    0.804663 0.651054 0.149349 0.191143
H79   H     H_    0.077429 0.876960 0.576812 0.178024
H80   H     H_    0.817128 0.364699 0.160613 0.201481
H81   H     H_    0.277669 0.776388 0.382147 0.140649
H82   H     H_    0.583897 0.369399 0.930261 0.187425
H83   H     H_    0.280356 0.204964 0.376640 0.134214
H84   H     H_    0.311433 0.858725 0.657089 0.127871
S1    S     S_3+6 0.038586 0.061939 0.192208 0.108242
O53   O     O_2   0.965579 0.035667 0.193140 -0.159776
O54   O     O_2   0.063727 0.068924 0.269690 -0.247216
O55   O     O_3   0.027153 0.119837 0.152717 -0.516542
H85   H     H_    0.071514 0.139425 0.165274 0.344330
S2    S     S_3+6 0.045886 0.933263 0.197114 0.092218
O56   O     O_2   0.971049 0.936155 0.164020 -0.197169
O57   O     O_2   0.069733 0.878048 0.196049 -0.361252
O58   O     O_3   0.042755 0.954277 0.284115 -0.435776
H86   H     H_    0.025916 0.924237 0.313161 0.412030
S3    S     S_3+6 0.653472 0.564565 0.234276 0.084830
O59   O     O_2   0.714013 0.568308 0.178813 -0.258229
O60   O     O_2   0.587878 0.540466 0.198926 -0.140667
O61   O     O_3   0.631590 0.624359 0.261991 -0.591644
H87   H     H_    0.584225 0.620561 0.287963 0.365588
S4    S     S_3+6 0.664611 0.435711 0.230155 0.071524
O62   O     O_2   0.696987 0.459447 0.162366 -0.188014
O63   O     O_2   0.694157 0.382058 0.238072 -0.404378
O64   O     O_3   0.573407 0.432483 0.221044 -0.425390
H88   H     H_    0.556283 0.412524 0.264080 0.351590
H89   H     H_    0.158411 0.452607 0.064206 0.167094
H90   H     H_    0.178390 0.546969 0.913620 0.177782
H91   H     H_    0.148353 0.538141 0.042957 0.168349
H92   H     H_    0.163324 0.461650 0.931127 0.171148
H93   H     H_    0.653116 0.961857 0.552338 0.167430
H94   H     H_    0.656698 0.037780 0.441574 0.172148
H95   H     H_    0.665599 0.047100 0.574373 0.167892
H96   H     H_    0.671259 0.952736 0.420457 0.175716
S5    S     S_3+6 0.396723 0.429621 0.067574 0.119134
O65   O     O_2   0.474024 0.448804 0.072070 -0.145590
O66   O     O_2   0.363742 0.428262 0.142819 -0.260360
O67   O     O_3   0.401536 0.368334 0.038155 -0.571666
H97   H     H_    0.431544 0.350564 0.075264 0.358569
S6    S     S_3+6 0.409376 0.570352 0.970723 0.106642
O68   O     O_2   0.484779 0.549183 0.981724 -0.155721
O69   O     O_2   0.394482 0.574010 0.890182 -0.289558
O70   O     O_3   0.410791 0.630836 0.004188 -0.553473
H98   H     H_    0.384847 0.652395 0.968025 0.333904
S7    S     S_3+6 0.365182 0.546816 0.117976 0.108897
O71   O     O_2   0.443755 0.534289 0.132321 -0.127636
O72   O     O_2   0.357586 0.603375 0.132998 -0.236584
O73   O     O_3   0.314427 0.516536 0.181660 -0.578326
H99   H     H_    0.335698 0.526907 0.229195 0.396161
S8    S     S_3+6 0.390481 0.452307 0.914344 0.079271
O74   O     O_2   0.471404 0.460544 0.920486 -0.200545
O75   O     O_2   0.379616 0.396206 0.897536 -0.287632
O76   O     O_3   0.361425 0.484877 0.840548 -0.562419
H100  H     H_    0.391307 0.471783 0.799289 0.394872
S9    S     S_3+6 0.876425 0.952261 0.605118 0.091272
O77   O     O_2   0.870307 0.895281 0.617853 -0.265083
O78   O     O_2   0.955920 0.965285 0.612587 -0.195425
O79   O     O_3   0.831500 0.980643 0.674522 -0.568738
H101  H     H_    0.855715 0.968084 0.719500 0.396928
S10   S     S_3+6 0.882784 0.049598 0.402807 0.124316
O80   O     O_2   0.876105 0.106614 0.390430 -0.289126
O81   O     O_2   0.962929 0.037828 0.399819 -0.114504
O82   O     O_3   0.843274 0.020566 0.330870 -0.532992
H102  H     H_    0.852472 0.043625 0.288578 0.415424
S11   S     S_3+6 0.902100 0.070819 0.555603 0.091369
O83   O     O_2   0.901666 0.126397 0.532100 -0.354023
O84   O     O_2   0.877745 0.069331 0.634011 -0.251005
O85   O     O_3   0.989340 0.051032 0.549897 -0.457133
H103  H     H_    0.017856 0.077215 0.577043 0.368749
S12   S     S_3+6 0.905900 0.931283 0.453821 0.090132
O86   O     O_2   0.885832 0.931835 0.374270 -0.262297
O87   O     O_2   0.982997 0.950189 0.461898 -0.192987
O88   O     O_3   0.905796 0.869482 0.481681 -0.599041
H104  H     H_    0.889387 0.849211 0.439073 0.356851

loop_
_geom_bond_atom_site_label_1
_geom_bond_atom_site_label_2
_geom_bond_distance
_ccdc_geom_bond_type
S11   O85   1.682133 S    
C110  C118  1.413278 A    
C54   C58   1.390090 A    
C87   C119  1.416586 A    
S1    O53   1.499862 D    
C43   C83   1.416351 A    
O26   C7    1.276996 A    
C170  C174  1.420422 A    
S12   O87   1.501940 D    
O30   C11   1.278478 A    
C107  C115  1.413386 A    
C133  C137  1.387736 A    
C154  H70   1.079991 S    
H13   C137  1.080967 S    
C162  C166  1.416628 A    
Zn12  O26   1.936657 S    
C126  C134  1.393279 A    
H16   C140  1.082232 S    
C109  C149  1.420509 A    
C158  H74   1.082863 S    
S8    O75   1.500815 D    
C148  H64   1.082250 S    
C108  C116  1.412418 A    
C59   C67   1.391814 A    
C52   C64   1.389439 A    
S8    O76   1.679366 S    
C53   C57   1.384924 A    
C29   H5    1.106986 S    
C112  C120  1.413053 A    
C154  C161  1.421493 A    
C60   H40   1.082566 S    
O11   C7    1.277671 A    
C28   H92   1.114551 S    
C61   H41   1.080088 S    
O34   C15   1.279961 A    
C77   C81   1.412591 A    
S5    O67   1.681191 S    
C72   H52   1.081880 S    
C57   H37   1.081249 S    
C94   C102  1.412606 A    
Zn1   O44   1.955084 S    
C25   H1    1.103207 S    
C173  C177  1.398673 A    
Zn2   O43   1.955084 S    
C79   C83   1.413482 A    
C124  C132  1.393611 A    
C153  C157  1.392010 A    
Zn5   O48   1.955084 S    
C65   C73   1.419936 A    
C130  H82   1.082715 S    
Zn6   O47   1.955084 S    
S10   O81   1.500744 D    
C128  C136  1.393861 A    
Zn7   O46   1.954163 S    
H15   C139  1.082341 S    
O16   C12   1.275021 A    
C56   H36   1.082183 S    
C58   C66   1.393612 A    
C165  C169  1.418376 A    
Zn16  O4    1.954659 S    
Zn12  O4    1.951642 S    
Zn1   O13   1.937999 S    
C26   C28   1.535025 S    
Zn4   O16   1.930735 S    
C99   C123  1.419246 A    
C28   H4    1.107751 S    
O82   H102  0.990489 S    
C97   C121  1.419763 A    
S10   O82   1.681099 S    
C73   C89   1.415777 A    
C42   C50   1.393251 A    
C22   C38   1.502182 S    
C31   H7    1.103330 S    
C174  C178  1.401484 A    
S1    O55   1.679513 S    
C151  H67   1.080638 S    
C46   C86   1.416691 A    
C159  H75   1.082039 S    
Zn16  O34   1.936771 S    
O55   H85   0.985547 S    
C30   C40   1.555532 S    
C166  C170  1.421557 A    
C30   H6    1.106836 S    
Zn10  O22   1.936657 S    
C121  C129  1.392330 A    
C88   C120  1.411265 A    
C53   H33   1.080434 S    
O25   C8    1.275345 A    
Zn13  O29   1.930572 S    
C100  C124  1.416997 A    
Zn10  O2    1.951642 S    
S4    O62   1.502118 D    
C71   C79   1.416618 A    
O29   C12   1.281131 A    
C179  S4    1.773884 S    
C72   C80   1.416569 A    
C82   C114  1.413304 A    
O85   H103  0.990763 S    
C90   C98   1.412672 A    
C41   C49   1.391915 A    
C26   H2    1.102618 S    
C86   C118  1.413089 A    
C156  C163  1.417911 A    
O37   C17   1.277728 A    
C44   C84   1.416847 A    
O48   C23   1.285232 A    
C97   C109  1.411597 A    
C45   C85   1.420221 A    
C46   H26   1.082322 S    
C106  C114  1.412705 A    
C145  H61   1.081140 S    
C48   C88   1.417731 A    
C175  C179  1.400915 A    
O64   H88   0.990690 S    
C78   C94   1.413260 A    
Zn16  O35   1.929332 S    
C4    C90   1.448916 S    
C75   C87   1.411978 A    
C105  C113  1.415610 A    
Zn15  O33   1.930572 S    
Zn7   O10   1.930691 S    
O33   C16   1.276775 A    
H17   C141  1.082043 S    
C5    C95   1.455323 S    
C135  C139  1.390078 A    
O40   C20   1.272471 A    
C6    C96   1.448411 S    
C100  C112  1.411294 A    
C35   C36   1.658183 S    
O67   H97   0.988717 S    
H10   C174  1.074157 S    
O73   H99   0.990596 S    
C15   C119  1.454889 S    
C44   H24   1.082029 S    
Zn5   O17   1.937999 S    
S9    O79   1.680271 S    
C110  C150  1.416778 A    
C47   C55   1.392460 A    
C69   H49   1.081147 S    
C25   C27   1.537747 S    
C55   H35   1.082252 S    
C33   S5    1.845127 S    
C25   C37   1.561274 S    
H19   C143  1.082538 S    
C180  S3    1.772050 S    
C27   H3    1.107419 S    
C32   H8    1.103011 S    
Zn8   O3    1.950730 S    
C47   H27   1.080153 S    
C28   C37   1.554804 S    
C156  C160  1.393345 A    
C35   S12   1.842269 S    
C29   H93   1.114537 S    
C69   C77   1.418058 A    
O38   C18   1.274905 A    
C67   C75   1.420170 A    
S4    O64   1.681414 S    
C36   C40   1.617835 S    
O5    C1    1.280163 A    
C63   C71   1.393550 A    
O32   C9    1.276572 A    
C29   C39   1.555096 S    
C157  C158  1.386536 A    
C16   C120  1.447748 S    
C68   H48   1.077017 S    
S7    O73   1.679987 S    
Zn15  O51   1.955785 S    
Zn11  O28   1.936517 S    
C32   C39   1.560719 S    
Zn12  O40   1.955743 S    
C155  C164  1.418100 A    
S6    O70   1.684809 S    
C101  C125  1.418562 A    
C33   C37   1.618362 S    
C21   C37   1.502100 S    
C169  C170  1.400288 A    
S2    O57   1.498393 D    
S3    O60   1.501912 D    
C75   C91   1.417262 A    
C27   H91   1.114496 S    
C58   H38   1.082510 S    
C14   C118  1.450029 S    
O8    C4    1.278954 A    
C136  H80   1.081698 S    
C154  C158  1.392003 A    
C66   C74   1.416874 A    
C131  C143  1.386855 A    
C50   H30   1.081967 S    
C35   S9    1.866598 S    
O50   C18   1.270392 A    
C111  C151  1.419620 A    
C78   C82   1.410032 A    
S2    O58   1.681834 S    
C123  C131  1.392793 A    
C35   C39   1.621023 S    
C138  C146  1.393215 A    
Zn13  O1    1.951343 S    
Zn2   O14   1.932108 S    
C125  C133  1.392207 A    
C24   C40   1.499333 S    
C30   H94   1.114577 S    
C42   H22   1.081691 S    
C61   C69   1.393020 A    
C169  C173  1.418579 A    
C51   C63   1.389941 A    
C122  H54   1.081969 S    
C23   C39   1.504957 S    
C59   H39   1.082562 S    
O36   C13   1.279563 A    
C103  C107  1.412995 A    
C74   C90   1.412560 A    
C43   C51   1.393795 A    
C101  C105  1.412557 A    
C168  C172  1.414149 A    
O13   C9    1.278079 A    
Zn1   O8    1.932064 S    
H20   C144  1.082545 S    
Zn2   O7    1.937955 S    
C161  C165  1.415545 A    
Zn3   O6    1.930691 S    
O18   C14   1.278792 A    
O31   C10   1.279582 A    
O6    C2    1.279853 A    
C172  C176  1.414499 A    
C45   H25   1.079012 S    
C134  H78   1.081640 S    
C85   C117  1.417906 A    
C109  C117  1.415170 A    
C52   H32   1.082205 S    
C32   H96   1.114458 S    
C149  H65   1.079772 S    
C95   C103  1.413536 A    
O76   H100  0.990576 S    
Zn14  O30   1.936771 S    
Zn15  O3    1.951343 S    
S5    O66   1.499901 D    
Zn11  O3    1.954958 S    
O41   C21   1.282561 A    
C104  C108  1.411217 A    
C106  C146  1.416983 A    
C91   C99   1.416794 A    
S7    O71   1.500029 D    
H14   C138  1.081836 S    
C136  C140  1.389281 A    
C89   C97   1.418234 A    
C48   H28   1.082416 S    
S11   O84   1.499264 D    
Zn8   O20   1.930735 S    
C84   C116  1.413857 A    
S6    O68   1.501407 D    
C130  C142  1.390244 A    
C92   C100  1.412708 A    
C103  C127  1.415549 A    
C93   C101  1.414755 A    
C146  H62   1.082205 S    
C157  H73   1.082911 S    
C96   C104  1.412728 A    
C133  H77   1.082075 S    
C76   C92   1.414103 A    
C63   H43   1.082072 S    
C64   H44   1.082181 S    
H11   C175  1.080745 S    
C17   C166  1.445411 S    
C179  C180  1.411195 A    
C71   H51   1.082461 S    
Zn8   O9    1.938562 S    
C107  C147  1.416710 A    
C105  C145  1.418190 A    
C9    C113  1.454988 S    
S1    O54   1.501490 D    
C125  H57   1.081231 S    
C171  C172  1.402932 A    
C152  H68   1.082202 S    
S12   O86   1.500732 D    
C135  H79   1.082393 S    
C111  C119  1.415312 A    
C159  C160  1.389418 A    
O19   C15   1.277831 A    
C108  C148  1.416438 A    
O58   H86   0.990531 S    
Zn9   O24   1.936517 S    
C131  H83   1.081017 S    
Zn6   O18   1.932108 S    
C99   C111  1.412049 A    
Zn10  O23   1.930323 S    
C31   H95   1.114491 S    
C163  C164  1.408322 A    
C112  C152  1.416434 A    
O7    C3    1.275421 A    
C46   C54   1.393869 A    
C73   C85   1.411651 A    
S4    O63   1.501362 D    
C34   S7    1.871213 S    
Zn15  O36   1.936910 S    
O15   C11   1.279026 A    
O42   C22   1.286635 A    
C62   H42   1.081863 S    
Zn4   O1    1.950730 S    
C30   C32   1.535360 S    
C98   C122  1.416717 A    
Zn9   O37   1.954084 S    
O12   C8    1.281506 A    
Zn11  O39   1.954084 S    
C70   C78   1.416431 A    
C33   C34   1.656956 S    
C62   C70   1.392126 A    
O88   H104  0.987455 S    
Zn1   O1    1.948892 S    
C54   H34   1.082544 S    
C49   H29   1.082163 S    
Zn5   O3    1.948892 S    
C44   C52   1.393464 A    
Zn6   O4    1.948890 S    
C45   C53   1.391690 A    
C70   H50   1.078992 S    
C137  C145  1.393092 A    
S10   O80   1.501406 D    
C48   C56   1.393379 A    
C1    C91   1.455562 S    
C2    C92   1.451143 S    
C177  C178  1.406214 A    
C12   C116  1.450699 S    
C41   H21   1.081219 S    
C42   C82   1.417447 A    
C76   C88   1.410029 A    
C171  C175  1.414299 A    
C83   C115  1.413727 A    
O28   C5    1.278480 A    
C147  H63   1.082429 S    
C81   C113  1.414589 A    
Zn3   O42   1.954163 S    
C80   C84   1.410512 A    
C153  H69   1.079962 S    
Zn7   O4    1.950732 S    
O21   C4    1.277283 A    
S9    O78   1.500954 D    
C177  S2    1.773122 S    
C98   C110  1.411235 A    
C155  H71   1.081994 S    
C60   C68   1.393353 A    
C156  H72   1.081970 S    
C163  C167  1.412728 A    
C164  C168  1.413002 A    
C129  H81   1.079117 S    
S3    O59   1.502215 D    
C64   C72   1.392807 A    
Zn2   O2    1.948890 S    
C33   S8    1.864974 S    
C26   C38   1.562401 S    
C161  C162  1.406901 A    
Zn14  O2    1.954659 S    
C155  C159  1.393514 A    
S12   O88   1.681654 S    
C56   C60   1.389264 A    
O79   H101  0.990503 S    
S11   O83   1.504062 D    
Zn13  O49   1.955785 S    
O44   C21   1.275403 A    
C50   C62   1.388001 A    
C55   C59   1.386414 A    
C123  H55   1.080177 S    
C153  C162  1.421819 A    
C41   C81   1.418435 A    
H18   C142  1.082518 S    
Zn12  O27   1.930323 S    
C134  C138  1.389200 A    
C25   H89   1.114486 S    
Zn3   O2    1.950732 S    
C143  C151  1.391667 A    
C178  S1    1.777166 S    
C129  C141  1.384467 A    
C31   C40   1.560749 S    
C79   C95   1.413246 A    
S7    O72   1.499607 D    
O46   C24   1.274109 A    
O47   C24   1.282594 A    
Zn16  O52   1.954125 S    
O9    C5    1.279193 A    
C132  H84   1.082268 S    
C34   S6    1.843323 S    
Zn8   O45   1.954165 S    
C57   C65   1.390661 A    
O27   C6    1.277871 A    
H12   C176  1.080541 S    
C127  H59   1.080478 S    
O39   C19   1.272588 A    
C19   C168  1.444248 S    
C128  H60   1.082350 S    
C49   C61   1.387511 A    
C20   C167  1.444458 S    
C8    C94   1.449649 S    
C29   C31   1.536566 S    
C124  H56   1.082403 S    
C27   C38   1.553014 S    
O24   C1    1.278348 A    
C132  C144  1.390028 A    
C36   S10   1.866720 S    
C167  C171  1.414053 A    
C80   C96   1.411994 A    
C176  C180  1.399834 A    
O43   C22   1.271841 A    
C47   C87   1.419076 A    
Zn4   O41   1.954165 S    
Zn3   O15   1.938606 S    
Zn5   O12   1.932064 S    
Zn6   O11   1.937955 S    
C18   C165  1.443910 S    
Zn9   O21   1.929083 S    
Zn14  O50   1.954125 S    
C36   S11   1.849362 S    
C102  C126  1.416505 A    
O35   C14   1.277942 A    
C150  H66   1.082401 S    
C34   C38   1.621322 S    
Zn9   O1    1.954958 S    
C121  H53   1.078632 S    
C126  H58   1.082128 S    
O52   C20   1.272447 A    
C142  C150  1.394213 A    
C26   H90   1.114607 S    
C7    C93   1.454678 S    
S8    O74   1.501845 D    
C13   C117  1.454357 S    
O70   H98   0.988888 S    
O22   C3    1.279995 A    
Zn7   O19   1.938606 S    
C51   H31   1.082153 S    
C10   C114  1.449516 S    
C66   H46   1.082391 S    
C127  C135  1.393332 A    
Zn13  O32   1.936910 S    
O49   C17   1.268852 A    
Zn14  O31   1.929332 S    
C74   C86   1.411197 A    
C139  C147  1.394051 A    
S5    O65   1.502537 D    
O51   C19   1.272275 A    
C122  C130  1.393394 A    
C11   C115  1.455163 S    
C77   C93   1.415437 A    
C3    C89   1.455402 S    
C43   H23   1.082391 S    
Zn4   O5    1.938562 S    
O61   H87   0.991951 S    
S9    O77   1.500101 D    
O17   C13   1.275155 A    
O20   C16   1.277864 A    
O10   C6    1.277283 A    
O23   C2    1.276794 A    
Zn11  O25   1.929083 S    
C65   H45   1.079797 S    
Zn10  O38   1.955743 S    
S6    O69   1.500682 D    
C140  C148  1.393266 A    
C102  C106  1.411139 A    
O14   C10   1.276917 A    
C68   C76   1.414423 A    
S2    O56   1.502357 D    
C160  H76   1.082671 S    
S3    O61   1.680922 S    
H9    C173  1.076326 S    
C144  C152  1.393840 A    
C141  C149  1.389708 A    
C104  C128  1.416865 A    
C67   H47   1.079474 S    
O45   C23   1.274424 A    
