data_mof_unit_6325.cif
_audit_creation_date              2012-12-10T17:51:28-0500
_audit_creation_method            fapswitch 2.2
_symmetry_space_group_name_H-M    P1
_symmetry_Int_Tables_number       1
_space_group_crystal_system       triclinic
_cell_length_a                    14.682096
_cell_length_b                    14.533589
_cell_length_c                    17.269152
_cell_angle_alpha                 105.188575
_cell_angle_beta                  74.282973
_cell_angle_gamma                 114.199377
_cell_volume                      3187.28968634

loop_
_atom_site_label
_atom_site_type_symbol
_atom_type_description
_atom_site_fract_x
_atom_site_fract_y
_atom_site_fract_z
_atom_type_partial_charge
C1    C     C_R   0.118104 0.689037 0.513981 0.825922
C2    C     C_R   0.881861 0.310924 0.485989 0.827210
C3    C     C_R   0.183845 0.798948 0.518788 -0.132623
C4    C     C_R   0.816118 0.200818 0.479705 -0.130700
C5    C     C_R   0.219686 0.976188 0.513684 -0.152763
C6    C     C_R   0.781193 0.021846 0.478173 -0.151685
C7    C     C_R   0.148833 0.877339 0.520464 -0.012185
C8    C     C_R   0.851605 0.121550 0.474442 -0.013362
C9    C     C_R   0.287717 0.823846 0.514844 -0.246626
C10   C     C_R   0.712030 0.176154 0.484709 -0.248461
C11   C     C_R   0.359691 0.922674 0.506997 0.093764
C12   C     C_R   0.640876 0.075817 0.486957 0.092076
C13   C     C_R   0.323547 0.999014 0.506661 0.112940
C14   C     C_R   0.677387 0.998773 0.484631 0.116304
C15   C     C_R   0.466259 0.947626 0.498929 0.072864
C16   C     C_R   0.534580 0.050241 0.492889 0.071606
C17   C     C_R   0.494309 0.123532 0.492533 -0.215511
C18   C     C_R   0.506998 0.873314 0.495612 -0.216707
C19   C     C_R   0.391079 0.098155 0.499510 -0.163548
C20   C     C_R   0.610293 0.898663 0.488373 -0.166207
C21   C     C_R   0.293932 0.328285 0.362267 -0.250899
C22   C     C_R   0.707211 0.673602 0.635739 -0.250079
C23   C     C_R   0.988784 0.499763 0.651878 0.859239
C24   C     C_R   0.011129 0.500082 0.348096 0.859037
C25   C     C_R   0.212446 0.360913 0.382626 0.057402
C26   C     C_R   0.788015 0.640110 0.616517 0.056601
C27   C     C_R   0.285432 0.488718 0.488598 0.023212
C28   C     C_R   0.714810 0.511210 0.511156 0.023529
C29   C     C_R   0.373142 0.462029 0.468988 -0.038605
C30   C     C_R   0.627924 0.539024 0.529411 -0.038733
C31   C     C_R   0.373544 0.375421 0.407100 0.128186
C32   C     C_R   0.627969 0.626428 0.590527 0.128402
C33   C     C_R   0.459088 0.517780 0.508873 0.078643
C34   C     C_R   0.542387 0.483724 0.488944 0.079290
C35   C     C_R   0.536537 0.393848 0.430753 -0.321619
C36   C     C_R   0.465613 0.608574 0.566021 -0.322031
C37   C     C_R   0.454137 0.339455 0.390667 -0.003188
C38   C     C_R   0.548288 0.663378 0.605718 -0.002738
C39   C     C_R   0.987171 0.498348 0.736363 -0.072453
C40   C     C_R   0.012466 0.500995 0.263548 -0.072305
C41   C     C_R   0.014576 0.425104 0.755676 -0.037016
C42   C     C_R   0.984751 0.573869 0.244017 -0.037439
C43   C     C_R   0.037641 0.441387 0.833619 0.145139
C44   C     C_R   0.961439 0.557102 0.166101 0.145047
C45   C     C_R   0.020973 0.523646 0.893254 0.170754
C46   C     C_R   0.978224 0.474769 0.106642 0.170737
C47   C     C_R   0.989531 0.592050 0.873818 -0.198379
C48   C     C_R   0.009919 0.406689 0.126272 -0.198188
C49   C     C_R   0.973487 0.580028 0.795810 -0.244296
C50   C     C_R   0.026165 0.419162 0.204297 -0.244262
C51   C     C_2   0.028203 0.536715 0.978416 -0.219986
C52   C     C_2   0.971093 0.461502 0.021426 -0.220500
Cu1   Cu    Cu3+1 0.916740 0.524770 0.521640 0.964854
Cu2   Cu    Cu3+1 0.083260 0.475230 0.478360 0.965503
H1    H     H_    0.539971 0.201714 0.486043 0.135426
H2    H     H_    0.461889 0.793815 0.497452 0.138122
H3    H     H_    0.724916 0.451183 0.461956 0.119985
H4    H     H_    0.274988 0.547783 0.538681 0.119743
H5    H     H_    0.849207 0.677807 0.650697 0.113075
H6    H     H_    0.151238 0.323534 0.348459 0.112811
H7    H     H_    0.293949 0.267446 0.310590 0.190942
H8    H     H_    0.707437 0.735283 0.686762 0.189712
H9    H     H_    0.594515 0.361568 0.416448 0.116418
H10   H     H_    0.408366 0.641637 0.579143 0.117018
H11   H     H_    0.046580 0.362967 0.219157 0.150464
H12   H     H_    0.953292 0.636480 0.781112 0.150701
H13   H     H_    0.925341 0.387016 0.991993 0.172610
H14   H     H_    0.073923 0.611195 0.007886 0.172662
H15   H     H_    0.977152 0.655088 0.919527 0.146544
H16   H     H_    0.022394 0.343594 0.080696 0.146511
H17   H     H_    0.363873 0.157045 0.499153 0.168394
H18   H     H_    0.637855 0.839017 0.485984 0.164543
H19   H     H_    0.688216 0.237987 0.488339 0.151547
H20   H     H_    0.310345 0.763526 0.517704 0.147347
H21   H     H_    0.193497 0.036364 0.514579 0.185417
H22   H     H_    0.807753 0.961147 0.474989 0.184402
N1    N     N_R   0.208390 0.438070 0.445820 -0.177331
N2    N     N_R   0.791610 0.561930 0.554180 -0.177513
O1    O     O_R   0.020090 0.662480 0.528530 -0.594389
O2    O     O_R   0.979910 0.337520 0.471470 -0.593133
O3    O     O_R   0.160710 0.620650 0.491980 -0.585076
O4    O     O_R   0.839290 0.379350 0.508020 -0.586777
O5    O     O_R   0.921540 0.523360 0.633990 -0.589218
O6    O     O_R   0.078460 0.476640 0.366010 -0.589690
O7    O     O_R   0.062170 0.481520 0.597440 -0.576672
O8    O     O_R   0.937830 0.518480 0.402560 -0.576768
C53   C     C_2   0.016109 0.330267 0.696076 0.391477
H23   H     H_    0.066171 0.292621 0.696465 0.086982
O9    O     O_2   0.958099 0.290651 0.647564 -0.528232
C54   C     C_2   0.983276 0.668888 0.303337 0.392442
H24   H     H_    0.932921 0.706232 0.303000 0.087410
O10   O     O_2   0.041684 0.708984 0.351536 -0.528351
C55   C     C_2   0.455605 0.243002 0.334288 0.323882
H25   H     H_    0.527812 0.236796 0.301532 0.078677
O11   O     O_2   0.378034 0.167684 0.327966 -0.539120
C56   C     C_2   0.548334 0.761400 0.660133 0.328342
H26   H     H_    0.476669 0.769239 0.692489 0.077261
O12   O     O_2   0.626659 0.836112 0.665138 -0.536491
C57   C     C_3   0.917059 0.625312 0.148172 -0.920775
H27   H     H_    0.848220 0.625958 0.194775 0.225185
H28   H     H_    0.974058 0.704499 0.149196 0.235235
H29   H     H_    0.891739 0.598563 0.088626 0.256510
C58   C     C_3   0.081722 0.372802 0.851366 -0.920615
H30   H     H_    0.150607 0.372186 0.804808 0.225306
H31   H     H_    0.106901 0.399184 0.910955 0.256466
H32   H     H_    0.024594 0.293656 0.850112 0.235120
C59   C     C_2   0.960399 0.138243 0.464472 0.465132
H33   H     H_    0.017969 0.187962 0.423991 0.056937
O13   O     O_2   0.986676 0.093689 0.500131 -0.484459
C60   C     C_2   0.040070 0.860685 0.530156 0.469443
H34   H     H_    0.982497 0.812421 0.571664 0.057495
O14   O     O_2   0.013806 0.903644 0.493053 -0.484257

loop_
_geom_bond_atom_site_label_1
_geom_bond_atom_site_label_2
_ccdc_geom_bond_type
C15   C18   A    
C53   H23   S    
C55   H25   S    
C29   C33   A    
C27   C29   A    
C59   O13   D    
C19   H17   S    
C4    C8    A    
Cu2   O6    S    
C39   C41   A    
Cu1   Cu2   S    
C21   C31   A    
C26   N2    A    
C22   C32   A    
C25   N1    A    
Cu1   O1    S    
C3    C7    A    
C10   H19   S    
C23   C39   S    
C6    C14   A    
C45   C51   S    
C1    O3    A    
C15   C16   A    
C46   C52   S    
C33   C36   A    
C34   C35   A    
C23   O5    A    
C60   H34   S    
C47   H15   S    
C60   O14   D    
C17   C19   A    
C11   C15   A    
C12   C16   A    
C16   C17   A    
C56   O12   D    
C59   H33   S    
Cu1   O8    S    
C25   H6    S    
C32   C38   A    
C28   N2    A    
C26   H5    S    
C17   H1    S    
C21   H7    S    
C18   H2    S    
Cu2   N1    S    
C48   C50   A    
C55   O11   D    
C41   C43   A    
C42   C44   A    
C44   C46   A    
Cu2   O2    S    
C45   C47   A    
C41   C53   S    
C46   C48   A    
C49   H12   S    
C30   C34   A    
C51   C52   D    
C14   C20   A    
C47   C49   A    
C5    C7    A    
C13   C19   A    
C6    C8    A    
C28   H3    S    
C31   C37   A    
Cu1   O4    S    
C1    C3    S    
C5    H21   S    
C2    C4    S    
C3    C9    A    
C22   H8    S    
C43   C45   A    
C54   O10   D    
C57   H27   S    
C56   H26   S    
C33   C34   A    
C37   C55   S    
C58   H31   S    
C9    C11   A    
C52   H13   S    
C10   C12   A    
C57   H28   S    
C12   C14   A    
C53   O9    D    
C23   O7    A    
C1    O1    A    
C2    O4    A    
C9    H20   S    
C4    C10   A    
C36   C38   A    
C8    C59   S    
C21   C25   A    
C35   C37   A    
C5    C13   A    
C44   C57   S    
C48   H16   S    
C27   N1    A    
C27   H4    S    
Cu2   O7    S    
C39   C49   A    
C6    H22   S    
C7    C60   S    
Cu1   O5    S    
C28   C30   A    
Cu1   N2    S    
C24   O6    A    
C29   C31   A    
C30   C32   A    
C11   C13   A    
C54   H24   S    
C40   C50   A    
C40   C42   A    
C24   C40   S    
C58   H32   S    
C18   C20   A    
C51   H14   S    
C50   H11   S    
C43   C58   S    
C2    O2    A    
C57   H29   S    
C22   C26   A    
C38   C56   S    
C58   H30   S    
C20   H18   S    
C35   H9    S    
C42   C54   S    
C36   H10   S    
C24   O8    A    
Cu2   O3    S    
