data_mof_unit_67657.cif
_audit_creation_date              2013-03-05T16:47:32-0500
_audit_creation_method            fapswitch 2.2
_symmetry_space_group_name_H-M    P1
_symmetry_Int_Tables_number       1
_space_group_crystal_system       triclinic
_cell_length_a                    11.393475
_cell_length_b                    11.447146
_cell_length_c                    10.326862
_cell_angle_alpha                 100.580263
_cell_angle_beta                  97.42767
_cell_angle_gamma                 90.614256
_cell_volume                      1312.02950386

loop_
_atom_site_label
_atom_site_type_symbol
_atom_site_description
_atom_site_fract_x
_atom_site_fract_y
_atom_site_fract_z
_atom_type_partial_charge
O1    O     O_R   0.517830 0.337490 0.617920 -0.565278
O2    O     O_R   0.482170 0.662510 0.382080 -0.537026
O3    O     O_R   0.482150 0.301790 0.382070 -0.578095
O4    O     O_R   0.517850 0.698210 0.617930 -0.568057
C1    C     C_R   0.502755 0.262860 0.499646 0.773253
C2    C     C_R   0.498778 0.737269 0.501501 0.821778
O5    O     O_R   0.337480 0.517860 0.617920 -0.562181
O6    O     O_R   0.662520 0.482140 0.382080 -0.500465
O7    O     O_R   0.301810 0.482160 0.382070 -0.577096
O8    O     O_R   0.698190 0.517840 0.617930 -0.617631
C3    C     C_R   0.263165 0.502383 0.500512 0.832568
C4    C     C_R   0.736931 0.499836 0.498125 0.899745
Cu1   Cu    Cu3+1 0.521120 0.521140 0.639640 1.017333
Cu2   Cu    Cu3+1 0.478880 0.478860 0.360360 1.065784
H1    H     H_    0.262376 0.557328 0.965764 0.207317
H2    H     H_    0.856172 0.702351 0.102447 0.222244
C5    C     C_R   0.185276 0.637275 0.133892 -0.077376
C6    C     C_R   0.848996 0.550729 0.947602 -0.162527
H3    H     H_    0.216959 0.722870 0.126532 0.248914
H4    H     H_    0.813716 0.492786 0.004678 0.239394
C7    C     C_R   0.132363 0.623010 0.243673 -0.000118
C8    C     C_R   0.869905 0.505173 0.818765 0.078873
C9    C     C_R   0.092677 0.507050 0.251422 0.062104
C10   C     C_R   0.905446 0.585971 0.741219 0.097476
C11   C     C_R   0.106976 0.410096 0.146561 0.372579
C12   C     C_R   0.900068 0.709665 0.786361 0.424275
C13   C     C_R   0.159102 0.429371 0.033545 -0.084958
C14   C     C_R   0.901446 0.751849 0.923855 -0.003699
C15   C     C_R   0.205556 0.542360 0.037026 -0.063677
C16   C     C_R   0.870491 0.670736 0.001573 -0.229064
C17   C     C_R   0.923243 0.481328 0.376398 0.346521
C18   C     C_R   0.076925 0.557461 0.611306 0.208429
C19   C     C_R   0.872306 0.502887 0.496387 -0.194930
C20   C     C_R   0.127751 0.509098 0.497153 -0.225766
C21   C     C_R   0.951962 0.543590 0.614492 -0.147178
C22   C     C_R   0.048443 0.487298 0.375793 -0.033149
C23   C     C_R   0.403865 0.153480 0.075169 -0.272578
C24   C     C_R   0.619505 0.849418 0.933510 -0.299200
H5    H     H_    0.324996 0.175673 0.019111 0.215317
H6    H     H_    0.697858 0.819973 0.984873 0.199679
C25   C     C_R   0.391084 0.111982 0.188930 -0.106941
C26   C     C_R   0.625074 0.889770 0.816712 -0.135274
H7    H     H_    0.304928 0.110177 0.221629 0.214807
H8    H     H_    0.708065 0.891911 0.778036 0.234573
C27   C     C_R   0.488746 0.073414 0.261114 -0.037405
C28   C     C_R   0.524119 0.928067 0.749702 -0.046451
C29   C     C_R   0.603143 0.087869 0.228750 0.248321
C30   C     C_R   0.414762 0.927289 0.799676 0.292673
C31   C     C_R   0.616980 0.132035 0.113359 0.226982
C32   C     C_R   0.408150 0.881798 0.917236 0.231866
C33   C     C_R   0.515820 0.167392 0.037229 0.251651
C34   C     C_R   0.512589 0.840355 0.982342 0.247232
C35   C     C_R   0.467453 0.917696 0.388986 -0.075617
C36   C     C_R   0.540827 0.083078 0.616704 -0.094532
H9    H     H_    0.436641 0.856850 0.299767 0.237496
H10   H     H_    0.578825 0.143616 0.704004 0.231228
C37   C     C_R   0.499629 0.872573 0.504712 -0.042196
C38   C     C_R   0.505154 0.127922 0.500852 -0.079135
C39   C     C_R   0.530674 0.959998 0.621160 0.094692
C40   C     C_R   0.475520 0.040612 0.385980 0.058182
H11   H     H_    0.415359 0.440923 0.866657 0.168512
H12   H     H_    0.587881 0.553295 0.128378 0.238307
N1    N     N_2   0.447120 0.447110 0.150550 -0.320045
N2    N     N_2   0.552880 0.552890 0.849450 -0.307215
C41   C     C_2   0.512780 0.498685 0.076300 0.129763
C42   C     C_2   0.489229 0.496156 0.920922 0.054716
H13   H     H_    0.623578 0.604385 0.902329 0.215162
H14   H     H_    0.379290 0.391250 0.103035 0.191123
N3    N     N_R   0.704275 0.067975 0.319678 0.145479
O9    O     O_R   0.761966 0.158500 0.397429 -0.375996
O10   O     O_R   0.726209 0.961475 0.341026 -0.332056
N4    N     N_R   0.312810 0.975944 0.733507 0.184150
O11   O     O_R   0.285417 0.948810 0.605253 -0.414921
O12   O     O_R   0.250932 0.053894 0.800478 -0.362217
N5    N     N_R   0.730268 0.130359 0.067492 0.166695
O13   O     O_R   0.736643 0.101363 0.941511 -0.421556
O14   O     O_R   0.827004 0.135507 0.149860 -0.260491
N6    N     N_R   0.297899 0.880254 0.970975 0.166704
O15   O     O_R   0.197362 0.874405 0.895223 -0.261670
O16   O     O_R   0.296541 0.896568 0.098087 -0.455861
C43   C     C_3   0.139227 0.730302 0.357346 -0.424942
C44   C     C_3   0.018849 0.768104 0.399353 -0.324904
C45   C     C_3   0.023322 0.895597 0.476646 -0.557182
H15   H     H_    0.072548 0.899375 0.576984 0.329694
H16   H     H_    0.067658 0.958549 0.428521 0.218860
H17   H     H_    0.932103 0.925832 0.485404 0.300483
H18   H     H_    0.949419 0.757125 0.313005 0.236303
H19   H     H_    0.991167 0.710806 0.464714 0.264323
H20   H     H_    0.199360 0.712763 0.443417 0.242519
H21   H     H_    0.183478 0.807286 0.329857 0.211474
C46   C     C_3   0.832161 0.376329 0.757930 -0.444689
C47   C     C_3   0.879005 0.288039 0.842685 -0.337161
C48   C     C_3   0.885148 0.163978 0.759911 -0.558602
H22   H     H_    0.794928 0.125366 0.721812 0.272575
H23   H     H_    0.931829 0.165914 0.672807 0.228600
H24   H     H_    0.933650 0.107353 0.823460 0.297504
H25   H     H_    0.965408 0.318750 0.894306 0.249102
H26   H     H_    0.824945 0.286571 0.923051 0.329995
H27   H     H_    0.734296 0.366567 0.746402 0.274956
H28   H     H_    0.859306 0.350766 0.657713 0.214425
N7    N     N_R   0.087350 0.292321 0.166624 0.103767
O17   O     O_R   0.136684 0.260114 0.274736 -0.433733
O18   O     O_R   0.016642 0.218910 0.080099 -0.380394
N8    N     N_R   0.884469 0.787268 0.690679 0.072899
O19   O     O_R   0.810107 0.755154 0.582861 -0.400287
O20   O     O_R   0.920935 0.897634 0.721292 -0.441148
C49   C     C_3   0.184860 0.331261 0.918531 -0.423078
C50   C     C_3   0.156868 0.363061 0.779702 -0.383225
C51   C     C_3   0.171900 0.260513 0.666054 -0.668393
H29   H     H_    0.124917 0.178661 0.676528 0.284927
H30   H     H_    0.134487 0.284008 0.569944 0.229536
H31   H     H_    0.266859 0.242829 0.661998 0.299851
H32   H     H_    0.066832 0.394477 0.764686 0.245663
H33   H     H_    0.217705 0.435934 0.771395 0.244959
H34   H     H_    0.279357 0.319230 0.927481 0.224893
H35   H     H_    0.142996 0.244268 0.920556 0.270279
C52   C     C_3   0.935367 0.880390 0.987794 -0.286913
C53   C     C_3   0.988377 0.895228 0.133726 -0.425364
C54   C     C_3   0.071239 0.003648 0.183094 -0.516946
H36   H     H_    0.147057 0.982871 0.252487 0.202140
H37   H     H_    0.109647 0.033893 0.101238 0.298948
H38   H     H_    0.023010 0.074650 0.239411 0.316810
H39   H     H_    0.915189 0.900437 0.195601 0.258098
H40   H     H_    0.040946 0.817203 0.145150 0.243949
H41   H     H_    0.002956 0.913437 0.935768 0.295572
H42   H     H_    0.858518 0.936589 0.977885 0.247846
N9    N     N_R   0.848173 0.477658 0.254719 0.087748
O21   O     O_R   0.793253 0.573186 0.235989 -0.424611
O22   O     O_R   0.810783 0.375630 0.182974 -0.310397
N10   N     N_R   0.148821 0.639689 0.713488 0.134439
O23   O     O_R   0.130376 0.653353 0.836059 -0.391058
O24   O     O_R   0.222030 0.714034 0.681382 -0.340925
N11   N     N_R   0.525575 0.223519 0.926403 0.103428
O25   O     O_R   0.435692 0.221141 0.834875 -0.433944
O26   O     O_R   0.617147 0.291624 0.925644 -0.387580
N12   N     N_R   0.511617 0.781262 0.092508 0.098037
O27   O     O_R   0.421098 0.714163 0.098313 -0.416756
O28   O     O_R   0.608420 0.775086 0.172653 -0.356632

loop_
_geom_bond_atom_site_label_1
_geom_bond_atom_site_label_2
_geom_bond_distance
_ccdc_geom_bond_type
N1    C41   1.342093 D    
C27   C40   1.432926 S    
C48   H22   1.108430 S    
C28   C39   1.450686 S    
C13   C15   1.384793 A    
C5    C15   1.378605 A    
C17   N9    1.419237 S    
N5    O13   1.293986 A    
N8    O20   1.294914 A    
C43   C44   1.534326 S    
C47   H26   1.097955 S    
C29   C31   1.403039 A    
O5    C3    1.367776 A    
N7    O17   1.300651 A    
C1    C38   1.547498 S    
O1    C1    1.345576 A    
C10   C12   1.411677 A    
C24   C26   1.376943 A    
C14   C52   1.521673 S    
C51   H30   1.109157 S    
C23   C33   1.397738 A    
N6    O16   1.293631 A    
C37   C39   1.418888 A    
C24   C34   1.387187 A    
C38   C40   1.404968 A    
C44   H18   1.100463 S    
C50   C51   1.528100 S    
C26   C28   1.382207 A    
C27   C29   1.402204 A    
C50   H33   1.101325 S    
O4    Cu1   2.080023 S    
N3    O10   1.299340 A    
C53   C54   1.519745 S    
C29   N3    1.437249 S    
C12   N8    1.441310 S    
H11   C42   1.076416 S    
C31   C33   1.415224 A    
C32   C34   1.419650 A    
C8    C46   1.526830 S    
C31   N5    1.430383 S    
C6    C16   1.390716 A    
C46   H28   1.107178 S    
C52   H42   1.097298 S    
C20   C22   1.427221 A    
O6    C4    1.356613 A    
C43   H20   1.100353 S    
C54   H37   1.107154 S    
N7    O18   1.295076 A    
Cu1   Cu2   2.812000 S    
C25   H7    1.079745 S    
C2    C37   1.543001 S    
O2    C2    1.355609 A    
C26   H8    1.074679 S    
C30   N4    1.440439 S    
C32   N6    1.438592 S    
C18   N10   1.437270 S    
N8    O19   1.300688 A    
C35   C40   1.415332 A    
C47   H25   1.079323 S    
H1    C15   1.075694 S    
C36   H10   1.069415 S    
C36   C39   1.422050 A    
C35   H9    1.064301 S    
C28   C30   1.409436 A    
C10   C21   1.476685 S    
N2    H13   1.025857 S    
C18   C21   1.436177 A    
N4    O12   1.297876 A    
C51   H31   1.107508 S    
C46   C47   1.512610 S    
C35   C37   1.395317 A    
N6    O15   1.294601 A    
N4    O11   1.299247 A    
C5    C7    1.384893 A    
C18   C20   1.405415 A    
C50   H32   1.092228 S    
N10   O24   1.299922 A    
O7    Cu2   2.058455 S    
N9    O22   1.297854 A    
O7    C3    1.334525 A    
C45   H15   1.105824 S    
C13   C49   1.538016 S    
C49   C50   1.538034 S    
C17   C19   1.417670 A    
C53   H40   1.096495 S    
N5    O14   1.295978 A    
C49   H34   1.081115 S    
O3    Cu2   2.080023 S    
O8    C4    1.348148 A    
C43   H21   1.109370 S    
O4    C2    1.350823 A    
C45   H16   1.100033 S    
C7    C43   1.528833 S    
C9    C22   1.492068 S    
C48   H24   1.107403 S    
C7    C9    1.417161 A    
N11   O25   1.297134 A    
C34   N12   1.427480 S    
C8    C10   1.417218 A    
O1    Cu1   2.072252 S    
C41   C42   1.587121 S    
C5    H3    1.059717 S    
N9    O21   1.298383 A    
N12   O28   1.301387 A    
C36   C38   1.401550 A    
C54   H38   1.104258 S    
N1    H14   1.011453 S    
O6    Cu2   2.074442 S    
H12   C41   1.076223 S    
C6    C8    1.388783 A    
C3    C20   1.541803 S    
N12   O27   1.293475 A    
O3    C1    1.362064 A    
O8    Cu1   2.058455 S    
C54   H36   1.106014 S    
C11   C13   1.426358 A    
C12   C14   1.411304 A    
C14   C16   1.403746 A    
N10   O23   1.291346 A    
C23   H5    1.063749 S    
C52   C53   1.527480 S    
C24   H6    1.068444 S    
C33   N11   1.427023 S    
C11   N7    1.420778 S    
Cu1   N2    2.112539 S    
C52   H41   1.095504 S    
C44   H19   1.094736 S    
Cu2   N1    2.112539 S    
C30   C32   1.416207 A    
C47   C48   1.524535 S    
C19   C21   1.422797 A    
C6    H4    1.071460 S    
C53   H39   1.109953 S    
C9    C11   1.427973 A    
C23   C25   1.369188 A    
N3    O9    1.301516 A    
O2    Cu2   2.072252 S    
C49   H35   1.104381 S    
O5    Cu1   2.074443 S    
C45   H17   1.108439 S    
C48   H23   1.105996 S    
C44   C45   1.526348 S    
N11   O26   1.297424 A    
C25   C27   1.380455 A    
C17   C22   1.428241 A    
C46   H27   1.108178 S    
C4    C19   1.544913 S    
C51   H29   1.103443 S    
H2    C16   1.072155 S    
N2    C42   1.340438 D    
