data_mof_unit_60061.cif
_audit_creation_date              2013-03-05T15:44:11-0500
_audit_creation_method            fapswitch 2.2
_symmetry_space_group_name_H-M    P1
_symmetry_Int_Tables_number       1
_space_group_crystal_system       triclinic
_cell_length_a                    13.150665
_cell_length_b                    13.162161
_cell_length_c                    17.835259
_cell_angle_alpha                 110.217149
_cell_angle_beta                  73.167104
_cell_angle_gamma                 90.869636
_cell_volume                      2760.38957233

loop_
_atom_site_label
_atom_site_type_symbol
_atom_site_description
_atom_site_fract_x
_atom_site_fract_y
_atom_site_fract_z
_atom_type_partial_charge
Zn1   Zn    Zn3+2 0.562560 0.419520 0.551940 1.049462
Zn2   Zn    Zn3+2 0.419550 0.406100 0.433160 1.008305
Zn3   Zn    Zn3+2 0.611810 0.553570 0.428930 1.058820
Zn4   Zn    Zn3+2 0.406080 0.620810 0.585960 1.004140
O1    O     O_3   0.500000 0.500000 0.500000 -0.511823
O2    O     O_R   0.262540 0.611050 0.579000 -0.637391
O3    O     O_R   0.715520 0.417170 0.517520 -0.629116
O4    O     O_R   0.426070 0.262540 0.438550 -0.631571
O5    O     O_R   0.595870 0.709230 0.464930 -0.614688
O6    O     O_R   0.474570 0.394560 0.317400 -0.627806
O7    O     O_R   0.403380 0.624270 0.695980 -0.646477
O8    O     O_R   0.609140 0.497770 0.314440 -0.630612
O9    O     O_R   0.512900 0.483390 0.672170 -0.619667
O10   O     O_R   0.526170 0.271940 0.521690 -0.628395
O11   O     O_R   0.451880 0.756290 0.574830 -0.632624
O12   O     O_R   0.271960 0.460780 0.472050 -0.643440
O13   O     O_R   0.749980 0.510990 0.431420 -0.596615
C1    C     C_R   0.217594 0.544893 0.530446 0.851645
C2    C     C_R   0.781778 0.456601 0.469197 0.952746
C3    C     C_R   0.471329 0.217379 0.475297 0.883926
C4    C     C_R   0.528663 0.782400 0.524878 0.867780
C5    C     C_R   0.551734 0.432939 0.276765 0.887682
C6    C     C_R   0.448150 0.565904 0.723808 0.827369
C7    C     C_R   0.417309 0.586198 0.814289 -0.051124
C8    C     C_R   0.573010 0.402090 0.186549 -0.120205
C9    C     C_R   0.300314 0.676233 0.955494 -0.186613
C10   C     C_R   0.332665 0.663310 0.870861 -0.173357
C11   C     C_R   0.468472 0.522142 0.843450 -0.161482
C12   C     C_R   0.430613 0.526458 0.926908 0.108571
C13   C     C_R   0.349540 0.609470 0.984056 0.164332
C14   C     C_R   0.476092 0.455487 0.956124 -0.057126
C15   C     C_R   0.456616 0.484537 0.044213 0.053936
C16   C     C_R   0.374861 0.567925 0.099327 -0.177347
C17   C     C_R   0.320276 0.626748 0.069294 -0.206368
C18   C     C_R   0.540022 0.356766 0.901066 0.277502
C19   C     C_R   0.602514 0.305019 0.930915 -0.244207
C20   C     C_R   0.594944 0.341445 0.015684 0.032513
C21   C     C_R   0.519035 0.428672 0.073892 0.113965
C22   C     C_R   0.659867 0.287324 0.042840 -0.216467
C23   C     C_R   0.649866 0.316202 0.128137 0.296755
C24   C     C_R   0.510111 0.457820 0.159502 -0.285477
H1    H     H_    0.455241 0.524257 0.207393 0.131956
H2    H     H_    0.653819 0.232037 0.888019 0.197297
H3    H     H_    0.291753 0.713855 0.849839 0.178498
H4    H     H_    0.539417 0.470615 0.800426 0.189984
H5    H     H_    0.349374 0.588761 0.166290 0.148261
H6    H     H_    0.717107 0.220357 0.997246 0.190826
H7    H     H_    0.106258 0.434948 0.431245 0.181634
C25   C     C_2   0.894338 0.445056 0.462511 -0.412258
C26   C     C_2   0.949480 0.530737 0.487281 0.341551
H8    H     H_    0.060625 0.640338 0.589967 0.196494
C27   C     C_2   0.105998 0.569611 0.538096 -0.253875
C28   C     C_2   0.061447 0.507817 0.481191 -0.251325
H9    H     H_    0.549083 0.101926 0.545367 0.211301
H10   H     H_    0.476077 0.885552 0.436697 0.155234
C29   C     C_2   0.537424 0.896400 0.535603 -0.238044
C30   C     C_2   0.506180 0.937519 0.486315 -0.165456
H11   H     H_    0.422560 0.054159 0.418369 0.162889
C31   C     C_2   0.463983 0.101401 0.461677 -0.313725
C32   C     C_2   0.509285 0.054003 0.500973 -0.100113
H12   H     H_    0.562387 0.948537 0.588058 0.170544
H13   H     H_    0.257788 0.689516 0.113596 0.156501
N1    N     N_R   0.901745 0.641528 0.521158 0.227053
O14   O     O_R   0.959151 0.718440 0.507609 -0.366061
O15   O     O_R   0.804792 0.667646 0.571991 -0.406704
H14   H     H_    0.931101 0.362972 0.443349 0.138585
N2    N     N_R   0.717067 0.256914 0.153396 0.206860
O16   O     O_R   0.688689 0.252221 0.228251 -0.411030
O17   O     O_R   0.804893 0.201012 0.099391 -0.365602
H15   H     H_    0.236773 0.738485 0.998678 0.155218
N3    N     N_R   0.531546 0.299724 0.818582 0.195948
O18   O     O_R   0.438222 0.291910 0.806639 -0.374630
O19   O     O_R   0.614276 0.242410 0.758378 -0.387258

loop_
_geom_bond_atom_site_label_1
_geom_bond_atom_site_label_2
_geom_bond_distance
_ccdc_geom_bond_type
C4    C29   1.452742 S    
C31   C32   1.338131 D    
C6    C7    1.471840 S    
N1    O15   1.301596 A    
C9    C13   1.402986 A    
C20   C21   1.415342 A    
Zn3   O5    1.918266 S    
C15   C21   1.426060 A    
Zn2   O12   1.919345 S    
C24   H1    1.077434 S    
C2    C25   1.456183 S    
O3    C2    1.277443 A    
C14   C15   1.426488 A    
C7    C10   1.401164 A    
O11   C4    1.269442 A    
C15   C16   1.415927 A    
C25   C26   1.345071 D    
Zn4   O11   1.929978 S    
C16   C17   1.388472 A    
Zn3   O8    1.927291 S    
C18   N3    1.438530 S    
N3    O18   1.301754 A    
C20   C22   1.402624 A    
H9    C32   1.087899 S    
O6    C5    1.273452 A    
Zn4   O7    1.936914 S    
C16   H5    1.076331 S    
N2    O17   1.301832 A    
O5    C4    1.272270 A    
C9    C10   1.393264 A    
C12   C13   1.416222 A    
C19   C20   1.392423 A    
O4    C3    1.281806 A    
N2    O16   1.301228 A    
Zn1   O1    1.950170 S    
O12   C1    1.271766 A    
C11   C12   1.407099 A    
O13   C2    1.283332 A    
Zn3   O13   1.926785 S    
C26   N1    1.443873 S    
H10   C30   1.088124 S    
C8    C23   1.412691 A    
H7    C28   1.087800 S    
C9    H15   1.083830 S    
O2    C1    1.271672 A    
C14   C18   1.425697 A    
C11   H4    1.078936 S    
Zn2   O1    1.934006 S    
Zn1   O9    1.921214 S    
C25   H14   1.087546 S    
C13   C17   1.391336 A    
C1    C27   1.464945 S    
N1    O14   1.301277 A    
C26   C28   1.472798 S    
O8    C5    1.275739 A    
N3    O19   1.301601 A    
C17   H13   1.084228 S    
H8    C27   1.086473 S    
C27   C28   1.339476 D    
O9    C6    1.278805 A    
O10   C3    1.280501 A    
C12   C14   1.426774 A    
C21   C24   1.408923 A    
O7    C6    1.276580 A    
C22   C23   1.400752 A    
C29   C30   1.333895 D    
C29   H12   1.086847 S    
C8    C24   1.396073 A    
C19   H2    1.084463 S    
Zn1   O10   1.921009 S    
Zn3   O1    1.942336 S    
H11   C31   1.086952 S    
Zn1   O3    1.922924 S    
C22   H6    1.083991 S    
Zn4   O2    1.926771 S    
C10   H3    1.082944 S    
C5    C8    1.457151 S    
C23   N2    1.444776 S    
Zn2   O4    1.929317 S    
C7    C11   1.398931 A    
C3    C31   1.466776 S    
Zn4   O1    1.918966 S    
C30   C32   1.465578 S    
C18   C19   1.394154 A    
Zn2   O6    1.931483 S    
