data_mof_unit_51461.cif
_audit_creation_date              2012-12-11T15:11:50-0500
_audit_creation_method            fapswitch 2.2
_symmetry_space_group_name_H-M    P1
_symmetry_Int_Tables_number       1
_space_group_crystal_system       triclinic
_cell_length_a                    20.153377
_cell_length_b                    7.100051
_cell_length_c                    13.488424
_cell_angle_alpha                 89.990196
_cell_angle_beta                  103.614107
_cell_angle_gamma                 89.99417
_cell_volume                      1875.8298923

loop_
_atom_site_label
_atom_site_type_symbol
_atom_type_description
_atom_site_fract_x
_atom_site_fract_y
_atom_site_fract_z
_atom_type_partial_charge
O1    O     O_R   0.449830 0.506740 0.599960 -0.536013
O2    O     O_R   0.550170 0.006740 0.400040 -0.535885
O3    O     O_R   0.588980 0.179860 0.596720 -0.545921
O4    O     O_R   0.411020 0.679860 0.403280 -0.546657
C1    C     C_R   0.616424 0.344562 0.619052 0.656636
C2    C     C_R   0.383537 0.844211 0.380873 0.656088
O5    O     O_R   0.452740 0.177340 0.612040 -0.539178
O6    O     O_R   0.547260 0.677340 0.387960 -0.539296
O7    O     O_R   0.412960 0.002070 0.415460 -0.540576
O8    O     O_R   0.587040 0.502070 0.584540 -0.541569
C3    C     C_R   0.436671 0.345709 0.638773 0.690562
C4    C     C_R   0.563334 0.845762 0.361240 0.690594
O9    O     O_3   0.487110 0.337570 0.435490 -0.373143
O10   O     O_3   0.512890 0.837570 0.564510 -0.373149
V1    V     V_3+5 0.502390 0.064650 0.511970 1.393909
V2    V     V_3+5 0.497610 0.564650 0.488030 1.392872
C5    C     C_R   0.608437 0.858797 0.106853 -0.162912
C6    C     C_R   0.391565 0.355250 0.893202 -0.162994
H1    H     H_    0.514886 0.853734 0.156715 0.099227
H2    H     H_    0.485116 0.350609 0.843328 0.099238
H3    H     H_    0.691282 0.863138 0.980581 0.116633
H4    H     H_    0.308707 0.358660 0.019482 0.117207
H5    H     H_    0.582001 0.860249 0.026958 0.111581
H6    H     H_    0.417998 0.355358 0.973101 0.111624
C7    C     C_R   0.602985 0.853565 0.283631 -0.027262
C8    C     C_R   0.397026 0.353143 0.716404 -0.027311
C9    C     C_R   0.931972 0.858385 0.318581 -0.169772
C10   C     C_R   0.068042 0.358525 0.681426 -0.169707
C11   C     C_R   0.896668 0.854941 0.395416 -0.122640
C12   C     C_R   0.103349 0.354328 0.604604 -0.122606
C13   C     C_R   0.825532 0.854343 0.371417 -0.164300
C14   C     C_R   0.174484 0.353006 0.628619 -0.164172
C15   C     C_R   0.787513 0.856797 0.268584 0.077744
C16   C     C_R   0.212497 0.355585 0.731452 0.077775
C17   C     C_R   0.824153 0.859236 0.190103 0.072793
C18   C     C_R   0.175853 0.358197 0.809925 0.072865
C19   C     C_R   0.714534 0.857127 0.241019 0.071963
C20   C     C_R   0.285475 0.355702 0.759027 0.072039
C21   C     C_R   0.680087 0.859347 0.136004 0.146530
C22   C     C_R   0.319916 0.356502 0.864051 0.146500
C23   C     C_R   0.717212 0.861491 0.060727 -0.217489
C24   C     C_R   0.282785 0.358156 0.939326 -0.218016
C25   C     C_R   0.788034 0.861303 0.087156 -0.208095
C26   C     C_R   0.211965 0.359367 0.912879 -0.208219
C27   C     C_R   0.674269 0.854884 0.313913 -0.217700
C28   C     C_R   0.325743 0.354843 0.686130 -0.217653
C29   C     C_R   0.570128 0.855355 0.180327 -0.177215
C30   C     C_R   0.429876 0.352924 0.819718 -0.177198
C31   C     C_R   0.896487 0.860385 0.216306 -0.073650
C32   C     C_R   0.103520 0.360272 0.783706 -0.073700
H7    H     H_    0.696383 0.852843 0.394824 0.087417
H8    H     H_    0.303628 0.354319 0.605215 0.087446
H9    H     H_    0.987305 0.859888 0.338902 0.096978
H10   H     H_    0.012712 0.360530 0.661094 0.096935
H11   H     H_    0.802108 0.852117 0.435360 0.101751
H12   H     H_    0.197914 0.349770 0.564691 0.101614
H13   H     H_    0.924675 0.853309 0.474477 0.116753
H14   H     H_    0.075347 0.352574 0.525544 0.116683
H15   H     H_    0.814313 0.862594 0.025803 0.110456
H16   H     H_    0.185678 0.360908 0.974215 0.110474
C33   C     C_3   0.214403 0.652409 0.204946 -0.316384
C34   C     C_3   0.761096 0.262054 0.865070 -0.312901
H17   H     H_    0.179297 0.566415 0.239124 0.137937
H18   H     H_    0.778051 0.115368 0.886378 0.137999
H19   H     H_    0.215941 0.586908 0.130553 0.136312
H20   H     H_    0.759779 0.337891 0.936781 0.136596
C35   C     C_3   0.286633 0.647660 0.276086 -0.310339
C36   C     C_3   0.688226 0.257830 0.793785 -0.327089
H21   H     H_    0.322273 0.578851 0.235482 0.134118
H22   H     H_    0.652064 0.332417 0.831142 0.122701
H23   H     H_    0.285573 0.559639 0.344028 0.134168
H24   H     H_    0.670710 0.109091 0.782059 0.138040
H25   H     H_    0.259555 0.858016 0.435274 0.128327
H26   H     H_    0.723347 0.096331 0.625615 0.135129
C37   C     C_3   0.187633 0.943792 0.293836 -0.325794
C38   C     C_3   0.812308 0.250432 0.712301 -0.328252
C39   C     C_3   0.238896 0.971563 0.141450 -0.311404
C40   C     C_3   0.785126 0.562516 0.781450 -0.308676
C41   C     C_3   0.187526 0.857846 0.187855 0.117508
C42   C     C_3   0.812352 0.359823 0.811901 0.115668
H27   H     H_    0.240433 0.912480 0.065606 0.136588
H28   H     H_    0.783573 0.645044 0.851063 0.135748
C43   C     C_3   0.312398 0.849869 0.310390 0.118315
C44   C     C_3   0.687478 0.351648 0.689380 0.119274
C45   C     C_3   0.260472 0.939623 0.365160 -0.317646
C46   C     C_3   0.739511 0.245514 0.640886 -0.316385
C47   C     C_3   0.311730 0.966623 0.212853 -0.330211
C48   C     C_3   0.712882 0.557662 0.710314 -0.316746
H29   H     H_    0.348080 0.904351 0.171363 0.123201
H30   H     H_    0.677187 0.637959 0.746131 0.135616
H31   H     H_    0.329019 0.113162 0.234020 0.139283
H32   H     H_    0.713866 0.629232 0.637217 0.133395
H33   H     H_    0.169164 0.091954 0.284766 0.138820
H34   H     H_    0.848235 0.318381 0.671967 0.122091
H35   H     H_    0.276509 0.085758 0.389486 0.133996
H36   H     H_    0.740649 0.310704 0.566269 0.128087
O11   O     O_R   0.912980 0.203550 0.915410 -0.539667
O12   O     O_R   0.087020 0.703550 0.084590 -0.540478
O13   O     O_R   0.047270 0.535570 0.887960 -0.538469
O14   O     O_R   0.952730 0.035570 0.112040 -0.538406
C49   C     C_R   0.063888 0.368214 0.861734 0.688250
C50   C     C_R   0.936118 0.868218 0.138271 0.688194
O15   O     O_R   0.911030 0.532970 0.903270 -0.546729
O16   O     O_R   0.088970 0.032970 0.096730 -0.546199
O17   O     O_R   0.949820 0.708150 0.099970 -0.536146
O18   O     O_R   0.050180 0.208150 0.900030 -0.536087
C51   C     C_R   0.883660 0.365224 0.882028 0.649744
C52   C     C_R   0.116300 0.864786 0.117888 0.650165
O19   O     O_3   0.012900 0.375230 0.064480 -0.372844
O20   O     O_3   0.987100 0.875230 0.935520 -0.372828
V3    V     V_3+5 0.997610 0.648190 0.988040 1.395395
V4    V     V_3+5 0.002390 0.148190 0.011960 1.395921
H37   H     H_    0.151915 0.863788 0.329685 0.121711
H38   H     H_    0.830512 0.103711 0.730786 0.140053
H39   H     H_    0.221838 0.120596 0.129137 0.138138
H40   H     H_    0.820161 0.637288 0.742045 0.136304

loop_
_geom_bond_atom_site_label_1
_geom_bond_atom_site_label_2
_ccdc_geom_bond_type
C43   C47   S    
C35   C43   S    
C47   H31   S    
C25   H15   S    
C9    C11   A    
O1    C3    A    
O2    C4    A    
C2    O7    A    
O3    V1    S    
C21   C23   A    
O18   V4    S    
O5    C3    A    
C42   C51   S    
C5    H5    S    
C6    H6    S    
C34   C42   S    
C44   C46   S    
O19   V3    S    
H1    C29   S    
C35   H23   S    
C27   H7    S    
C7    C27   A    
C28   H8    S    
O12   C52   A    
C50   O17   A    
O15   V3    S    
C5    C21   A    
C33   H17   S    
C33   C35   S    
O20   V3    S    
C6    C22   A    
C38   H34   S    
C10   C32   A    
C37   C45   S    
C48   H32   S    
C17   C31   A    
C38   H38   S    
C13   C15   A    
C37   H37   S    
C12   C14   A    
C17   C25   A    
C7    C29   A    
C34   H18   S    
C36   H24   S    
O5    V1    S    
O17   V3    S    
O6    V2    S    
C11   C13   A    
C23   C25   A    
C24   C26   A    
C39   C41   S    
C26   H16   S    
C34   H20   S    
C36   C44   S    
C44   C48   S    
O4    C2    A    
O19   V4    S    
C31   C50   S    
O16   V4    S    
C1    C44   S    
C10   H10   S    
C3    C8    S    
C15   C19   A    
C2    C43   S    
C35   H21   S    
C14   C16   A    
O4    V2    S    
C40   H28   S    
C39   H27   S    
O6    C4    A    
O13   V3    S    
O14   C50   A    
C40   C42   S    
O1    V2    S    
H26   C46   S    
O2    V1    S    
H25   C45   S    
H2    C30   S    
C46   H36   S    
H3    C23   S    
O13   C49   A    
C11   H13   S    
O14   V4    S    
C47   H29   S    
C18   C26   A    
C38   C42   S    
C19   C27   A    
C38   C46   S    
O16   C52   A    
C18   C32   A    
C37   H33   S    
C40   C48   S    
C49   O18   A    
O11   V4    S    
O12   V3    S    
C43   C45   S    
C16   C20   A    
C40   H40   S    
C5    C29   A    
C48   H30   S    
O3    C1    A    
C6    C30   A    
C9    H9    S    
C8    C30   A    
C34   C36   S    
C4    C7    S    
C10   C12   A    
O7    V1    S    
C1    O8    A    
C19   C21   A    
O8    V2    S    
C20   C22   A    
C45   H35   S    
H4    C24   S    
C33   C41   S    
C12   H14   S    
C22   C24   A    
C15   C17   A    
C41   C52   S    
C16   C18   A    
O20   V4    S    
C20   C28   A    
C8    C28   A    
O11   C51   A    
C33   H19   S    
C39   C47   S    
C32   C49   S    
C36   H22   S    
O9    V2    S    
O10   V1    S    
O15   C51   A    
C13   H11   S    
C39   H39   S    
C37   C41   S    
C14   H12   S    
C9    C31   A    
