data_mof_unit_36120.cif
_audit_creation_date              2012-10-26T20:05:05-0400
_audit_creation_method            fapswitch 2.2
_symmetry_space_group_name_H-M    P1
_symmetry_Int_Tables_number       1
_space_group_crystal_system       triclinic
_cell_length_a                    15.875069
_cell_length_b                    15.108967
_cell_length_c                    13.742419
_cell_angle_alpha                 90.92167
_cell_angle_beta                  89.537031
_cell_angle_gamma                 87.480418
_cell_volume                      3292.46015208

loop_
_atom_site_label
_atom_site_type_symbol
_atom_type_description
_atom_site_fract_x
_atom_site_fract_y
_atom_site_fract_z
_atom_type_partial_charge
C1    C     C_R   0.502380 0.328938 0.499357 0.535938
C2    C     C_R   0.501182 0.046797 0.505064 -0.024299
C3    C     C_R   0.419288 0.912452 0.518235 0.044216
C4    C     C_R   0.579887 0.087605 0.492848 0.043362
C5    C     C_R   0.651766 0.940547 0.485085 -0.011116
C6    C     C_R   0.347851 0.059981 0.530943 -0.008727
C7    C     C_R   0.655627 0.033523 0.488585 0.231672
C8    C     C_R   0.344333 0.966852 0.532016 0.229693
C9    C     C_R   0.556369 0.445973 0.791357 0.000128
C10   C     C_R   0.446125 0.556715 0.208601 -0.000417
C11   C     C_R   0.442008 0.552704 0.794118 0.386988
C12   C     C_R   0.496902 0.671063 0.500733 0.536334
C13   C     C_R   0.554043 0.442738 0.205999 0.388721
C14   C     C_R   0.442391 0.555726 0.897897 -0.058213
C15   C     C_R   0.556414 0.442625 0.102157 -0.058069
C16   C     C_R   0.339790 0.498785 0.500218 0.549925
C17   C     C_R   0.660267 0.501170 0.499758 0.550651
C18   C     C_R   0.499507 0.499063 0.948076 -0.023444
C19   C     C_R   0.500193 0.500238 0.051931 -0.023415
C20   C     C_R   0.556370 0.441859 0.894397 -0.022617
C21   C     C_R   0.445413 0.559721 0.105529 -0.022480
C22   C     C_R   0.389659 0.615914 0.952219 -0.078827
C23   C     C_R   0.494383 0.767614 0.502503 -0.026547
C24   C     C_R   0.614209 0.387942 0.047679 -0.077774
C25   C     C_R   0.391515 0.619793 0.054110 0.234277
C26   C     C_R   0.613319 0.384913 0.945740 0.233277
C27   C     C_3   0.973568 0.431777 0.554875 -0.107396
C28   C     C_3   0.026968 0.563446 0.444373 -0.104499
C29   C     C_3   0.029874 0.419324 0.462625 -0.107389
C30   C     C_3   0.970803 0.575772 0.536609 -0.105417
C31   C     C_1   0.250207 0.495743 0.500262 -0.018052
C32   C     C_1   0.750042 0.502887 0.499534 -0.013678
C33   C     C_3   0.028228 0.507785 0.590793 -0.100313
C34   C     C_R   0.504397 0.232416 0.498599 -0.028593
C35   C     C_3   0.972348 0.487385 0.408398 -0.097935
C36   C     C_3   0.082965 0.495418 0.498664 0.053163
C37   C     C_3   0.917575 0.499867 0.500575 0.053514
C38   C     C_1   0.174705 0.494359 0.499341 -0.056290
C39   C     C_1   0.825691 0.502640 0.500160 -0.053893
C40   C     C_R   0.418771 0.817912 0.517787 -0.021670
C41   C     C_R   0.580213 0.181816 0.487609 -0.021988
C42   C     C_R   0.340360 0.770352 0.532507 0.093785
C43   C     C_R   0.291681 0.747072 0.452101 -0.045245
C44   C     C_R   0.211235 0.715455 0.466398 -0.094467
C45   C     C_R   0.569893 0.808369 0.490084 -0.138144
C46   C     C_R   0.179722 0.705709 0.560804 -0.098211
C47   C     C_R   0.229335 0.725583 0.641044 -0.087665
C48   C     C_R   0.309522 0.758062 0.627095 -0.002832
C49   C     C_R   0.658593 0.228456 0.469601 0.099745
C50   C     C_R   0.693334 0.229071 0.375406 -0.001381
C51   C     C_R   0.773654 0.260782 0.360430 -0.069837
C52   C     C_R   0.820000 0.290414 0.439561 -0.095327
C53   C     C_R   0.784995 0.291144 0.533380 -0.099184
C54   C     C_R   0.703987 0.261433 0.548356 -0.047513
C55   C     C_R   0.730819 0.885688 0.470882 0.013999
C56   C     C_R   0.428927 0.192025 0.513139 -0.140755
C57   C     C_R   0.774907 0.853072 0.551766 -0.113934
C58   C     C_R   0.852113 0.806231 0.538769 -0.111715
C59   C     C_R   0.885019 0.790634 0.445032 -0.097145
C60   C     C_R   0.840705 0.821976 0.364160 -0.104726
C61   C     C_R   0.763899 0.869823 0.376936 -0.079669
C62   C     C_R   0.268597 0.115319 0.542995 0.012032
C63   C     C_R   0.250349 0.159500 0.631868 -0.114439
C64   C     C_R   0.174366 0.208831 0.644516 -0.107525
C65   C     C_R   0.116111 0.213790 0.568914 -0.100641
C66   C     C_R   0.134083 0.170298 0.480123 -0.113895
C67   C     C_R   0.573475 0.900675 0.493290 -0.023761
C68   C     C_R   0.210126 0.121093 0.467042 -0.077728
C69   C     C_R   0.425661 0.099696 0.516647 -0.023513
C70   C     C_R   0.497918 0.953397 0.505821 -0.023905
Cu1   Cu    Cu3+1 0.500010 0.499990 0.597420 1.004887
Cu2   Cu    Cu3+1 0.499990 0.500010 0.402580 1.009108
H1    H     H_    0.055199 0.355366 0.431293 0.104210
H2    H     H_    0.372407 0.234453 0.520933 0.127797
H3    H     H_    0.601348 0.406945 0.747527 0.129440
H4    H     H_    0.403213 0.598321 0.252418 0.130355
H5    H     H_    0.367725 0.704673 0.159245 0.312763
H6    H     H_    0.643781 0.302838 0.840020 0.311060
H7    H     H_    0.314629 0.756897 0.378788 0.103499
H8    H     H_    0.173049 0.699773 0.404212 0.103767
H9    H     H_    0.116927 0.682760 0.571964 0.107594
H10   H     H_    0.204944 0.717648 0.714003 0.097384
H11   H     H_    0.346194 0.776966 0.689602 0.129992
H12   H     H_    0.945868 0.639297 0.568757 0.098701
H13   H     H_    0.659632 0.201577 0.314615 0.095272
H14   H     H_    0.800824 0.260204 0.287922 0.105301
H15   H     H_    0.883030 0.312568 0.428023 0.106680
H16   H     H_    0.820595 0.314074 0.594788 0.105049
H17   H     H_    0.678237 0.260191 0.621547 0.100947
H18   H     H_    0.750251 0.865554 0.624654 0.116220
H19   H     H_    0.886705 0.782983 0.601557 0.103780
H20   H     H_    0.945068 0.754852 0.435013 0.104942
H21   H     H_    0.866311 0.809999 0.291678 0.111678
H22   H     H_    0.730575 0.895096 0.314029 0.117830
H23   H     H_    0.348420 0.663823 0.916394 0.141493
H24   H     H_    0.294739 0.155197 0.691215 0.114998
H25   H     H_    0.160346 0.242648 0.713150 0.113390
H26   H     H_    0.056882 0.250939 0.579337 0.105647
H27   H     H_    0.088859 0.174291 0.421674 0.106584
H28   H     H_    0.223240 0.086972 0.398314 0.128290
H29   H     H_    0.777426 0.032112 0.514407 0.335983
H30   H     H_    0.229498 0.966467 0.585429 0.333774
H31   H     H_    0.329951 0.603835 0.775421 0.285220
H32   H     H_    0.607765 0.327643 0.224765 0.281478
H33   H     H_    0.661030 0.345865 0.083203 0.143014
H34   H     H_    0.951664 0.378179 0.601628 0.094373
H35   H     H_    0.049055 0.617278 0.398009 0.095685
H36   H     H_    0.948079 0.478972 0.333439 0.112207
H37   H     H_    0.052489 0.516226 0.665754 0.106722
H38   H     H_    0.626363 0.766293 0.479272 0.128615
N1    N     N_R   0.499960 0.499930 0.743810 -0.208222
N2    N     N_R   0.500040 0.500070 0.256190 -0.209717
O1    O     O_R   0.500020 0.370250 0.582280 -0.521933
O2    O     O_3   0.669758 0.325523 0.900075 -0.708509
O3    O     O_3   0.732925 0.072515 0.487943 -0.713267
O4    O     O_3   0.267546 0.928310 0.543711 -0.713038
O5    O     O_3   0.385143 0.603177 0.741355 -0.674472
O6    O     O_3   0.604941 0.385786 0.258966 -0.663327
O7    O     O_R   0.499980 0.629750 0.417720 -0.521343
O8    O     O_R   0.500010 0.370270 0.417740 -0.455596
O9    O     O_R   0.499990 0.629730 0.582260 -0.450315
O10   O     O_R   0.379080 0.499980 0.582260 -0.448432
O11   O     O_R   0.620920 0.500020 0.417740 -0.439686
O12   O     O_R   0.379070 0.500000 0.417710 -0.515817
O13   O     O_R   0.620930 0.500000 0.582290 -0.518038
O14   O     O_3   0.339787 0.683861 0.099590 -0.709218

loop_
_geom_bond_atom_site_label_1
_geom_bond_atom_site_label_2
_ccdc_geom_bond_type
C9    N1    A    
C6    C69   A    
C66   C68   A    
Cu2   N2    S    
C34   C56   A    
C23   C45   A    
C27   C29   S    
C22   H23   S    
C14   C18   A    
Cu1   O10   S    
C5    C67   A    
C17   O13   A    
C26   O2    S    
C13   O6    S    
H31   O5    S    
C53   C54   A    
C27   C33   S    
C16   C31   S    
C15   C19   A    
C29   C36   S    
C35   C37   S    
C24   C26   A    
C65   H26   S    
C13   N2    A    
C11   C14   A    
C32   C39   T    
C29   H1    S    
C4    C41   A    
C28   H35   S    
C43   H7    S    
C49   C54   A    
C46   H9    S    
C33   C36   S    
Cu1   O1    S    
C18   C19   A    
C47   H10   S    
C7    O3    S    
C49   C50   A    
C16   O10   A    
C35   H36   S    
C50   H13   S    
C10   H4    S    
C17   O11   A    
C12   O9    A    
C28   C35   S    
C22   C25   A    
Cu1   N1    S    
C23   C40   A    
C45   C67   A    
C10   N2    A    
C2    C69   A    
C58   H19   S    
C60   H21   S    
C40   C42   S    
C59   C60   A    
Cu2   O12   S    
H6    O2    S    
C34   C41   A    
C1    O1    A    
C4    C7    A    
C51   H14   S    
C41   C49   S    
C44   C46   A    
C1    C34   S    
H32   O6    S    
C10   C21   A    
C56   H2    S    
C57   H18   S    
C11   N1    A    
C51   C52   A    
C44   H8    S    
C3    C70   A    
C54   H17   S    
C3    C8    A    
C5    C7    A    
C45   H38   S    
C6    C8    A    
C27   H34   S    
C58   C59   A    
C63   H24   S    
C30   C37   S    
C60   C61   A    
C1    O8    A    
C66   H27   S    
C2    C4    A    
C25   O14   S    
C68   H28   S    
C62   C63   A    
C12   O7    A    
C9    C20   A    
C47   C48   A    
C12   C23   S    
C13   C15   A    
Cu2   O8    S    
C50   C51   A    
C42   C48   A    
C64   H25   S    
C3    C40   A    
C65   C66   A    
C55   C57   A    
Cu2   O11   S    
H29   O3    S    
C33   H37   S    
C42   C43   A    
C11   O5    S    
C52   C53   A    
C21   C25   A    
C46   C47   A    
C15   C24   A    
C30   C33   S    
C19   C21   A    
C61   H22   S    
C5    C55   S    
C52   H15   S    
C48   H11   S    
C29   C35   S    
C31   C38   T    
C62   C68   A    
C67   C70   A    
C64   C65   A    
C14   C22   A    
C28   C30   S    
C16   O12   A    
Cu1   Cu2   S    
C37   C39   S    
C6    C62   S    
C57   C58   A    
C20   C26   A    
C43   C44   A    
C55   C61   A    
Cu2   O7    S    
C36   C38   S    
C53   H16   S    
C18   C20   A    
C59   H20   S    
C30   H12   S    
H30   O4    S    
C8    O4    S    
C63   C64   A    
Cu1   O9    S    
C28   C36   S    
C56   C69   A    
C17   C32   S    
Cu1   O13   S    
C24   H33   S    
C9    H3    S    
C2    C70   A    
H5    O14   S    
C27   C37   S    
