data_mof_unit_51686.cif
_audit_creation_date              2012-12-10T19:11:30-0500
_audit_creation_method            fapswitch 2.2
_symmetry_space_group_name_H-M    P1
_symmetry_Int_Tables_number       1
_space_group_crystal_system       triclinic
_cell_length_a                    10.634336
_cell_length_b                    9.709463
_cell_length_c                    10.495884
_cell_angle_alpha                 89.634589
_cell_angle_beta                  90.152587
_cell_angle_gamma                 90.006006
_cell_volume                      1083.71288578

loop_
_atom_site_label
_atom_site_type_symbol
_atom_type_description
_atom_site_fract_x
_atom_site_fract_y
_atom_site_fract_z
_atom_type_partial_charge
C1    C     C_R   0.257727 0.499759 0.499118 0.854766
C2    C     C_3   0.929000 0.348275 0.491322 -0.405410
C3    C     C_3   0.376663 0.081460 0.455508 -0.233719
C4    C     C_3   0.376706 0.919055 0.455361 -0.235537
C5    C     C_3   0.596667 0.081840 0.410063 -0.235536
C6    C     C_3   0.596716 0.919312 0.410124 -0.232605
C7    C     C_3   0.526090 0.080301 0.625881 -0.234720
C8    C     C_3   0.525972 0.918071 0.625912 -0.229030
C9    C     C_R   0.499747 0.500516 0.257131 0.883814
C10   C     C_R   0.742417 0.499704 0.499335 0.875633
C11   C     C_R   0.500274 0.499526 0.742793 0.857217
C12   C     C_3   0.499595 0.501594 0.122244 0.038173
C13   C     C_3   0.494974 0.631562 0.039393 -0.147727
C14   C     C_3   0.398744 0.430675 0.042318 -0.188700
C15   C     C_3   0.394200 0.560468 0.956673 -0.184537
C16   C     C_3   0.500290 0.498653 0.877753 0.036887
C17   C     C_3   0.601062 0.569664 0.957775 -0.184022
C18   C     C_3   0.504843 0.368696 0.960669 -0.154491
C19   C     C_3   0.605654 0.439825 0.043327 -0.171259
C20   C     C_3   0.072779 0.578456 0.380042 -0.460553
C21   C     C_3   0.074078 0.569683 0.621743 -0.406764
C22   C     C_3   0.927713 0.583917 0.382963 -0.074923
C23   C     C_3   0.929176 0.568419 0.624407 -0.097388
C24   C     C_3   0.071619 0.348728 0.494861 -0.413125
C25   C     C_3   0.121534 0.499188 0.498871 0.145999
C26   C     C_3   0.878773 0.498729 0.499791 0.140116
H1    H     H_    0.308311 0.609250 0.916348 0.120046
H2    H     H_    0.618503 0.118653 0.660752 0.138110
H3    H     H_    0.618277 0.879150 0.660975 0.139877
H4    H     H_    0.454432 0.117628 0.694523 0.142307
H5    H     H_    0.454121 0.880068 0.694483 0.147177
H6    H     H_    0.691308 0.119654 0.438494 0.140307
H7    H     H_    0.691351 0.881194 0.438692 0.139783
H8    H     H_    0.490937 0.738666 0.075637 0.125003
H9    H     H_    0.316513 0.374483 0.081803 0.117588
H10   H     H_    0.683082 0.626940 0.919316 0.131004
H11   H     H_    0.508963 0.261575 0.924484 0.124330
H12   H     H_    0.896195 0.298042 0.402325 0.169231
H13   H     H_    0.691540 0.390875 0.083434 0.129490
H14   H     H_    0.107473 0.527654 0.292054 0.159182
H15   H     H_    0.113861 0.516182 0.706981 0.164601
H16   H     H_    0.110206 0.685588 0.378802 0.157720
H17   H     H_    0.107748 0.678229 0.625192 0.150153
H18   H     H_    0.899479 0.693536 0.396156 0.137397
H19   H     H_    0.896578 0.677494 0.625821 0.142416
H20   H     H_    0.107757 0.294766 0.409033 0.166702
H21   H     H_    0.104202 0.290310 0.580489 0.169181
H22   H     H_    0.912414 0.443870 0.234607 0.183445
H23   H     H_    0.892818 0.282995 0.570532 0.162693
H24   H     H_    0.894088 0.609359 0.191378 0.180777
H25   H     H_    0.916702 0.401355 0.749513 0.192053
H26   H     H_    0.785996 0.500384 0.743090 0.169625
H27   H     H_    0.353175 0.121008 0.358612 0.139012
H28   H     H_    0.353471 0.881044 0.358328 0.138470
H29   H     H_    0.300940 0.118302 0.519712 0.141564
H30   H     H_    0.300841 0.881057 0.519298 0.142193
H31   H     H_    0.580074 0.120693 0.311537 0.147101
H32   H     H_    0.580234 0.881635 0.311631 0.143922
N1    N     N_3   0.499750 0.138610 0.497240 -0.027603
N2    N     N_3   0.499750 0.861390 0.497240 -0.029440
N3    N     N_3   0.872217 0.537165 0.262314 -0.479168
N4    N     N_3   0.884158 0.502573 0.742352 -0.477890
O1    O     O_R   0.314910 0.616040 0.499970 -0.635697
O2    O     O_R   0.314910 0.383960 0.499970 -0.637218
O3    O     O_R   0.500080 0.616020 0.313900 -0.629593
O4    O     O_R   0.500080 0.383980 0.313900 -0.629716
O5    O     O_R   0.685320 0.616040 0.499930 -0.640443
O6    O     O_R   0.685320 0.383960 0.499930 -0.635209
O7    O     O_R   0.500150 0.616060 0.686000 -0.631415
O8    O     O_R   0.500150 0.383940 0.686000 -0.635626
Zn1   Zn    Zn3+2 0.500150 0.654960 0.499940 0.898227
Zn2   Zn    Zn3+2 0.500150 0.345040 0.499940 0.895769

loop_
_geom_bond_atom_site_label_1
_geom_bond_atom_site_label_2
_ccdc_geom_bond_type
C23   H19   S    
C6    H32   S    
C11   O8    A    
C7    C8    S    
C10   O5    A    
C8    H3    S    
C18   H11   S    
C5    C6    S    
C20   H14   S    
C20   C25   S    
C15   C16   S    
C18   C19   S    
C23   C26   S    
O7    Zn1   S    
C14   C18   S    
C9    O4    A    
C21   H17   S    
C3    H29   S    
C23   N4    S    
C22   H18   S    
C16   C17   S    
C17   H10   S    
N1    Zn2   S    
C5    H6    S    
C10   C26   S    
C7    H4    S    
C4    H30   S    
C1    C25   S    
C8    H5    S    
H25   N4    S    
C1    O1    A    
C7    N1    S    
O4    Zn2   S    
C5    N1    S    
C6    N2    S    
C24   C25   S    
C14   H9    S    
N2    Zn1   S    
O3    Zn1   S    
C7    H2    S    
C2    H23   S    
C11   C16   S    
C2    H12   S    
C15   H1    S    
O6    Zn2   S    
C4    N2    S    
C2    C26   S    
C19   H13   S    
C21   H15   S    
C12   C14   S    
C13   C15   S    
C2    C24   S    
C20   C22   S    
C3    C4    S    
C1    O2    A    
C21   C25   S    
C4    H28   S    
C24   H21   S    
O1    Zn1   S    
C20   H16   S    
C11   O7    A    
C10   O6    A    
C6    H7    S    
C5    H31   S    
C24   H20   S    
C21   C23   S    
C13   H8    S    
H26   N4    S    
C8    N2    S    
C22   N3    S    
C3    H27   S    
H22   N3    S    
C12   C19   S    
C17   C19   S    
O5    Zn1   S    
O2    Zn2   S    
C9    C12   S    
C9    O3    A    
C13   C17   S    
C12   C13   S    
C16   C18   S    
C22   C26   S    
H24   N3    S    
C14   C15   S    
O8    Zn2   S    
C3    N1    S    
