data_mof_unit_42643.cif
_audit_creation_date              2013-03-05T16:07:57-0500
_audit_creation_method            fapswitch 2.2
_symmetry_space_group_name_H-M    P1
_symmetry_Int_Tables_number       1
_space_group_crystal_system       triclinic
_cell_length_a                    7.021882
_cell_length_b                    14.515289
_cell_length_c                    16.061871
_cell_angle_alpha                 90.005579
_cell_angle_beta                  90.313742
_cell_angle_gamma                 90.241405
_cell_volume                      1637.06143819

loop_
_atom_site_label
_atom_site_type_symbol
_atom_site_description
_atom_site_fract_x
_atom_site_fract_y
_atom_site_fract_z
_atom_type_partial_charge
O1    O     O_R   0.494380 0.415640 0.412830 -0.611164
O2    O     O_R   0.823960 0.405540 0.586560 -0.598286
O3    O     O_R   0.994270 0.584360 0.587170 -0.547931
C1    C     C_R   0.655280 0.383327 0.614808 1.025423
O4    O     O_R   0.824090 0.404620 0.413450 -0.572981
O5    O     O_R   0.994400 0.583430 0.412820 -0.579707
C2    C     C_R   0.654805 0.381319 0.385650 0.922359
O6    O     O_R   0.494250 0.416570 0.587180 -0.586540
O7    O     O_3   0.660800 0.558670 0.500000 -0.202250
V1    V     V_3+5 0.935650 0.489120 0.500000 1.271843
O8    O     O_R   0.324110 0.594460 0.413440 -0.604452
C3    C     C_R   0.154978 0.616379 0.384821 0.946922
O9    O     O_R   0.323980 0.595380 0.586550 -0.546216
C4    C     C_R   0.154991 0.614945 0.617252 0.950147
V2    V     V_3+5 0.435660 0.510880 0.500000 1.280724
O10   O     O_3   0.160640 0.441330 0.500000 -0.268510
C5    C     C_3   0.943729 0.673231 0.736482 0.155746
H1    H     H_    0.934572 0.600974 0.759155 0.113214
C6    C     C_3   0.941423 0.736428 0.815377 0.167339
H2    H     H_    0.966189 0.690076 0.869785 0.106482
H3    H     H_    0.061792 0.796870 0.603218 0.226413
H4    H     H_    0.995714 0.894598 0.713849 0.226408
C7    C     C_3   0.159313 0.783494 0.656367 -0.324409
C8    C     C_3   0.301213 0.670525 0.755205 0.183589
C9    C     C_3   0.138760 0.683227 0.689407 -0.293988
H5    H     H_    0.434810 0.684467 0.723089 0.191720
C10   C     C_3   0.112516 0.806016 0.813933 -0.161596
C11   C     C_3   0.126036 0.854318 0.727289 -0.319696
C12   C     C_3   0.289904 0.745297 0.824112 -0.477468
H6    H     H_    0.298475 0.714971 0.887665 0.219495
H7    H     H_    0.409397 0.792437 0.816584 0.271511
H8    H     H_    0.245821 0.904801 0.727768 0.167858
C13   C     C_R   0.265898 0.819033 0.242524 0.177080
C14   C     C_R   0.117993 0.816065 0.183633 -0.203772
C15   C     C_R   0.969557 0.752335 0.197983 -0.155053
H9    H     H_    0.849202 0.748700 0.155773 0.143152
C16   C     C_R   0.981133 0.688198 0.263819 -0.053312
H10   H     H_    0.869243 0.637204 0.270029 0.124405
C17   C     C_R   0.140611 0.686378 0.317782 -0.244414
C18   C     C_R   0.275984 0.756642 0.308199 0.113232
C19   C     C_3   0.488272 0.753785 0.304498 0.165700
C20   C     C_3   0.476934 0.821832 0.232099 -0.590517
H11   H     H_    0.544544 0.684885 0.287394 0.069708
H12   H     H_    0.521466 0.791602 0.171741 0.189921
H13   H     H_    0.537572 0.891149 0.245633 0.230202
C21   C     C_R   0.491545 0.313744 0.738799 0.312653
C22   C     C_R   0.647335 0.316955 0.684759 -0.267133
C23   C     C_R   0.799525 0.256697 0.701341 -0.142694
C24   C     C_R   0.788234 0.191421 0.766006 -0.120795
H14   H     H_    0.904050 0.143367 0.774271 0.139781
C25   C     C_R   0.624060 0.184267 0.815822 -0.253193
C26   C     C_R   0.480144 0.249162 0.802712 0.211546
C27   C     C_3   0.272356 0.234495 0.788539 -0.494592
C28   C     C_3   0.284764 0.305175 0.719027 -0.470284
H15   H     H_    0.239921 0.163738 0.765900 0.189203
C29   C     C_R   0.491177 0.249274 0.309122 0.100609
C30   C     C_R   0.646970 0.309441 0.319329 -0.191314
C31   C     C_R   0.799273 0.298953 0.263116 -0.058649
H16   H     H_    0.922917 0.343203 0.267990 0.129388
C32   C     C_R   0.788327 0.235607 0.196444 -0.135489
C33   C     C_R   0.623407 0.182948 0.181673 -0.165364
C34   C     C_R   0.476222 0.192447 0.238944 0.060194
C35   C     C_3   0.273274 0.217840 0.224192 0.004645
C36   C     C_3   0.283019 0.269489 0.307366 0.013804
H17   H     H_    0.175632 0.157359 0.221821 0.122930
H18   H     H_    0.249055 0.344205 0.305428 0.126482
O11   O     O_R   0.771490 0.080820 0.910070 -0.596358
O12   O     O_R   0.441590 0.092730 0.083780 -0.565797
O13   O     O_R   0.271350 0.913900 0.084390 -0.598840
C37   C     C_R   0.611055 0.115808 0.111698 0.948295
O14   O     O_R   0.441780 0.091820 0.910670 -0.591462
O15   O     O_R   0.271540 0.912980 0.910040 -0.583818
C38   C     C_R   0.610632 0.113571 0.882047 0.987389
O16   O     O_R   0.771300 0.081740 0.084420 -0.603370
O17   O     O_3   0.604960 0.938700 0.997240 -0.241708
V3    V     V_3+5 0.330090 0.008230 0.997220 1.233113
O18   O     O_R   0.941820 0.901930 0.910640 -0.533607
C39   C     C_R   0.108914 0.878013 0.883402 0.932369
O19   O     O_R   0.941630 0.902840 0.083750 -0.600094
C40   C     C_R   0.110400 0.881160 0.112529 0.941538
V4    V     V_3+5 0.830090 0.986410 0.997190 1.244063
O20   O     O_3   0.105080 0.055990 0.997200 -0.261145
N1    N     N_R   0.778366 0.685859 0.681410 0.244204
O21   O     O_R   0.742298 0.763921 0.644947 -0.357743
O22   O     O_R   0.680372 0.613451 0.659857 -0.370196
H19   H     H_    0.305060 0.793733 0.630933 0.205542
N2    N     N_R   0.576721 0.793184 0.379266 0.263969
O23   O     O_R   0.519095 0.871422 0.409562 -0.345324
O24   O     O_R   0.710772 0.748298 0.417689 -0.357086
H20   H     H_    0.922844 0.256554 0.661453 0.161638
H21   H     H_    0.185885 0.258035 0.842201 0.237381
H22   H     H_    0.205616 0.369574 0.732592 0.234940
H23   H     H_    0.259166 0.275543 0.656090 0.201121
H24   H     H_    0.903645 0.231415 0.153122 0.178568
N3    N     N_R   0.256202 0.279566 0.151846 0.232449
O25   O     O_R   0.322078 0.363534 0.154737 -0.398872
O26   O     O_R   0.205357 0.245846 0.080006 -0.380557
N4    N     N_R   0.185174 0.219932 0.374345 0.241729
O27   O     O_R   0.088631 0.265340 0.429403 -0.377561
O28   O     O_R   0.205100 0.131310 0.383386 -0.367472
N5    N     N_R   0.757783 0.779768 0.829992 0.236286
O29   O     O_R   0.707042 0.851999 0.787288 -0.409783
O30   O     O_R   0.673332 0.762439 0.900344 -0.421933
N6    N     N_R   0.309449 0.577049 0.790472 0.231967
O31   O     O_R   0.452802 0.524204 0.773046 -0.388030
O32   O     O_R   0.191262 0.550638 0.847938 -0.415863

loop_
_geom_bond_atom_site_label_1
_geom_bond_atom_site_label_2
_geom_bond_distance
_ccdc_geom_bond_type
C33   C37   1.489462 S    
N2    O23   1.302371 A    
C35   H17   1.112152 S    
N5    O29   1.302792 A    
C21   C26   1.392644 A    
C10   C12   1.536899 S    
C19   C20   1.527758 S    
N3    O25   1.302561 A    
O15   V3    2.007451 S    
C10   C39   1.529080 S    
N6    O32   1.301320 A    
V4    O20   2.175353 S    
O18   C39   1.302928 A    
C28   H22   1.111673 S    
C34   C35   1.491177 S    
C13   C20   1.492593 S    
C15   C16   1.411164 A    
C16   H10   1.082167 S    
C8    H5    1.091241 S    
O5    C3    1.305155 A    
O14   V3    2.006002 S    
C31   C32   1.412966 A    
V2    O10   2.175341 S    
N4    O27   1.298557 A    
C35   N3    1.472066 S    
C29   C30   1.405811 A    
O13   V3    2.001791 S    
C14   C15   1.410603 A    
C8    C12   1.552629 S    
C28   H23   1.111968 S    
O15   C39   1.316974 A    
C14   C40   1.483211 S    
O8    V2    2.003688 S    
C22   C23   1.408121 A    
C24   C25   1.410355 A    
C7    H19   1.113403 S    
C37   O16   1.308691 A    
C29   C36   1.492147 S    
O11   C38   1.305150 A    
C6    C10   1.566603 S    
O7    V1    2.181823 S    
C1    O6    1.306694 A    
C36   N4    1.466608 S    
N5    O30   1.303058 A    
C23   H20   1.079995 S    
O9    C4    1.319515 A    
C19   H11   1.111873 S    
C20   H12   1.111120 S    
N6    O31   1.299826 A    
C5    H1    1.112008 S    
C27   H15   1.111748 S    
C19   N2    1.464139 S    
C13   C18   1.392052 A    
C25   C26   1.399510 A    
C11   H8    1.113198 S    
C8    C9    1.562290 S    
V3    O20   1.728062 S    
C17   C18   1.400338 A    
O19   V4    2.003571 S    
O17   V4    1.723202 S    
C31   H16   1.080284 S    
C27   C28   1.518973 S    
O19   C40   1.309308 A    
C32   C33   1.403961 A    
C8    N6    1.471620 S    
C20   H13   1.111857 S    
C36   H18   1.111818 S    
O2    C1    1.309745 A    
O17   V3    2.181810 S    
C27   H21   1.111643 S    
C12   H6    1.113112 S    
N1    O21   1.300756 A    
O9    V2    2.017825 S    
O18   V4    2.017790 S    
C21   C28   1.489307 S    
C13   C14   1.401455 A    
C7    C11   1.553639 S    
O3    C4    1.301524 A    
O1    V2    2.013011 S    
C23   C24   1.408289 A    
N1    O22   1.299693 A    
O11   V4    2.001042 S    
O6    V2    2.000706 S    
N4    O28   1.302601 A    
H3    C7    1.109100 S    
C29   C34   1.399916 A    
O16   V4    2.014682 S    
O2    V1    2.006026 S    
C26   C27   1.489883 S    
O4    C2    1.310549 A    
C21   C22   1.400811 A    
C18   C19   1.492924 S    
O1    C2    1.310652 A    
C25   C38   1.481165 S    
O5    V1    2.001722 S    
O8    C3    1.311568 A    
N3    O26   1.300912 A    
O12   V3    2.007493 S    
C5    C9    1.574146 S    
C6    H2    1.116267 S    
N2    O24   1.300099 A    
O7    V2    1.723723 S    
O4    V1    2.007544 S    
C12   H7    1.087717 S    
O3    V1    2.007337 S    
V1    O10   1.728111 S    
C6    N5    1.457328 S    
C30   C31   1.412106 A    
C3    C17   1.483870 S    
C5    C6    1.564490 S    
C7    C9    1.555604 S    
C4    C9    1.529931 S    
C33   C34   1.394609 A    
C35   C36   1.532910 S    
C16   C17   1.412665 A    
O12   C37   1.311513 A    
C24   H14   1.081268 S    
O14   C38   1.311361 A    
C10   C11   1.561544 S    
O13   C40   1.307096 A    
H4    C11   1.108259 S    
C15   H9    1.081663 S    
C5    N1    1.467960 S    
C2    C30   1.491633 S    
C1    C22   1.481239 S    
C32   H24   1.072444 S    
