data_mof_unit_18872.cif
_audit_creation_date              2012-12-11T15:24:36-0500
_audit_creation_method            fapswitch 2.2
_symmetry_space_group_name_H-M    P1
_symmetry_Int_Tables_number       1
_space_group_crystal_system       triclinic
_cell_length_a                    22.992785
_cell_length_b                    6.955988
_cell_length_c                    20.710931
_cell_angle_alpha                 89.982841
_cell_angle_beta                  93.246025
_cell_angle_gamma                 89.98309
_cell_volume                      3307.14047496

loop_
_atom_site_label
_atom_site_type_symbol
_atom_type_description
_atom_site_fract_x
_atom_site_fract_y
_atom_site_fract_z
_atom_type_partial_charge
O1    O     O_R   0.188030 0.379840 0.189340 -0.541263
O2    O     O_R   0.811970 0.620160 0.810660 -0.541263
O3    O     O_R   0.311970 0.879840 0.310660 -0.541472
O4    O     O_R   0.688030 0.120160 0.689340 -0.541472
O5    O     O_R   0.307090 0.708420 0.185790 -0.532807
O6    O     O_R   0.692910 0.291580 0.814210 -0.532807
O7    O     O_R   0.192910 0.208420 0.314210 -0.532275
O8    O     O_R   0.807090 0.791580 0.685790 -0.532275
C1    C     C_R   0.326740 0.540809 0.170731 0.723104
C2    C     C_R   0.673260 0.459191 0.829269 0.723104
C3    C     C_R   0.173262 0.040812 0.329271 0.725468
C4    C     C_R   0.826738 0.959188 0.670729 0.725467
O9    O     O_R   0.188180 0.709480 0.181650 -0.543248
O10   O     O_R   0.811820 0.290520 0.818350 -0.543248
O11   O     O_R   0.311820 0.209480 0.318350 -0.543966
O12   O     O_R   0.688180 0.790520 0.681650 -0.543967
O13   O     O_R   0.192210 0.880960 0.306500 -0.536648
O14   O     O_R   0.807790 0.119040 0.693500 -0.536648
O15   O     O_R   0.307790 0.380960 0.193500 -0.536710
O16   O     O_R   0.692210 0.619040 0.806500 -0.536710
C5    C     C_R   0.167740 0.540618 0.165348 0.711748
C6    C     C_R   0.832259 0.459382 0.834652 0.711749
C7    C     C_R   0.332405 0.040515 0.334479 0.712256
C8    C     C_R   0.667595 0.959485 0.665521 0.712256
O17   O     O_3   0.251460 0.546730 0.290970 -0.368896
O18   O     O_3   0.748540 0.453270 0.709030 -0.368896
O19   O     O_3   0.248540 0.046730 0.209030 -0.369639
O20   O     O_3   0.751460 0.953270 0.790970 -0.369639
V1    V     V_3+5 0.249730 0.821120 0.242400 1.436470
V2    V     V_3+5 0.750270 0.178880 0.757600 1.436470
V3    V     V_3+5 0.250270 0.321120 0.257600 1.436530
V4    V     V_3+5 0.749730 0.678880 0.742400 1.436530
C9    C     C_R   0.582042 0.134714 0.612873 -0.207238
C10   C     C_R   0.417958 0.865286 0.387127 -0.207238
C11   C     C_R   0.921335 0.316886 0.892138 -0.212340
C12   C     C_R   0.078664 0.683114 0.107862 -0.212340
C13   C     C_R   0.618094 0.970713 0.616291 -0.082762
C14   C     C_R   0.381906 0.029287 0.383709 -0.082762
C15   C     C_R   0.881409 0.469826 0.884307 -0.080846
C16   C     C_R   0.118591 0.530174 0.115693 -0.080846
C17   C     C_R   0.606386 0.818348 0.572714 -0.216464
C18   C     C_R   0.393614 0.181652 0.427286 -0.216464
C19   C     C_R   0.889250 0.634554 0.923382 -0.212633
C20   C     C_R   0.110750 0.365446 0.076618 -0.212633
C21   C     C_R   0.559838 0.829932 0.525845 0.089857
C22   C     C_R   0.440162 0.170068 0.474155 0.089857
C23   C     C_R   0.935882 0.646478 0.970099 0.089004
C24   C     C_R   0.064118 0.353521 0.029901 0.089004
C25   C     C_R   0.523649 0.994112 0.523276 0.055579
C26   C     C_R   0.476351 0.005888 0.476724 0.055579
C27   C     C_R   0.976205 0.493824 0.976895 0.055311
C28   C     C_R   0.023794 0.506176 0.023105 0.055311
C29   C     C_R   0.534676 0.146559 0.567171 0.088376
C30   C     C_R   0.465324 0.853440 0.432829 0.088376
C31   C     C_R   0.969071 0.328969 0.937496 0.090485
C32   C     C_R   0.030929 0.671031 0.062504 0.090485
C33   C     C_R   0.548845 0.680348 0.481359 -0.176349
C34   C     C_R   0.451155 0.319652 0.518640 -0.176349
C35   C     C_R   0.942947 0.808455 0.010194 -0.184948
C36   C     C_R   0.057053 0.191544 0.989806 -0.184948
C37   C     C_R   0.501988 0.691886 0.435326 -0.184222
C38   C     C_R   0.498012 0.308114 0.564674 -0.184222
C39   C     C_R   0.989965 0.820451 0.056034 -0.176408
C40   C     C_R   0.010035 0.179549 0.943966 -0.176408
H1    H     H_    0.590328 0.252423 0.646448 0.125444
H2    H     H_    0.409672 0.747577 0.353552 0.125444
H3    H     H_    0.915925 0.190024 0.861994 0.124159
H4    H     H_    0.084075 0.809976 0.138006 0.124159
H5    H     H_    0.633944 0.691732 0.574693 0.130763
H6    H     H_    0.366056 0.308268 0.425307 0.130763
H7    H     H_    0.858620 0.752781 0.917942 0.129383
H8    H     H_    0.141380 0.247218 0.082058 0.129382
H9    H     H_    0.576280 0.553555 0.482431 0.138591
H10   H     H_    0.423720 0.446445 0.517569 0.138591
H11   H     H_    0.912284 0.926715 0.005825 0.137264
H12   H     H_    0.087716 0.073285 0.994175 0.137264
H13   H     H_    0.494218 0.573639 0.401891 0.136022
H14   H     H_    0.505782 0.426361 0.598109 0.136022
H15   H     H_    0.994498 0.947505 0.086164 0.138566
H16   H     H_    0.005502 0.052495 0.913836 0.138566
C41   C     C_3   0.036829 0.137700 0.519536 0.036775
C42   C     C_3   0.963171 0.862300 0.480463 0.036775
C43   C     C_3   0.463214 0.637972 0.980521 0.037040
C44   C     C_3   0.536786 0.362028 0.019479 0.037040
C45   C     C_3   0.022931 0.957840 0.559711 -0.175587
C46   C     C_3   0.977069 0.042160 0.440289 -0.175587
C47   C     C_3   0.477067 0.458281 0.940270 -0.175745
C48   C     C_3   0.522933 0.541719 0.059730 -0.175745
H17   H     H_    0.041923 0.923987 0.608879 0.151824
H18   H     H_    0.958077 0.076013 0.391121 0.151824
H19   H     H_    0.458075 0.424802 0.891085 0.151679
H20   H     H_    0.541925 0.575198 0.108915 0.151679
H21   H     H_    0.051996 0.691864 0.496518 0.157969
H22   H     H_    0.948004 0.308136 0.503482 0.157969
H23   H     H_    0.447908 0.192146 0.003337 0.158025
H24   H     H_    0.552092 0.807854 0.996663 0.158025
C49   C     C_1   0.872195 0.968449 0.624997 -0.155463
C50   C     C_1   0.127805 0.031551 0.375003 -0.155463
C51   C     C_1   0.627804 0.468460 0.875002 -0.155610
C52   C     C_1   0.372196 0.531539 0.124998 -0.155610
C53   C     C_3   0.971341 0.168830 0.501612 -0.185399
C54   C     C_3   0.028658 0.831170 0.498388 -0.185399
C55   C     C_3   0.528706 0.668690 0.998466 -0.185409
C56   C     C_3   0.471294 0.331310 0.001534 -0.185409
C57   C     C_3   0.957525 0.987381 0.540964 0.082198
C58   C     C_3   0.042475 0.012619 0.459036 0.082198
C59   C     C_3   0.542476 0.487407 0.959038 0.082156
C60   C     C_3   0.457524 0.512593 0.040962 0.082156
C61   C     C_1   0.910541 0.976630 0.587061 0.037741
C62   C     C_1   0.089459 0.023370 0.412939 0.037741
C63   C     C_1   0.589460 0.476652 0.912939 0.037503
C64   C     C_1   0.410540 0.523348 0.087061 0.037503
C65   C     C_2   0.077159 0.294871 0.543085 0.735928
O21   O     O_2   0.067148 0.382269 0.592426 -0.559699
O22   O     O_R   0.125717 0.341453 0.508615 -0.666922
H25   H     H_    0.149277 0.450778 0.529210 0.294451
C66   C     C_2   0.922841 0.705129 0.456915 0.735928
O23   O     O_2   0.932851 0.617731 0.407574 -0.559699
O24   O     O_R   0.874283 0.658547 0.491384 -0.666922
H26   H     H_    0.850723 0.549222 0.470790 0.294451
C67   C     C_2   0.422917 0.795408 0.957026 0.735760
O25   O     O_2   0.432942 0.883002 0.907714 -0.559855
O26   O     O_R   0.374370 0.841990 0.991508 -0.666882
H27   H     H_    0.350839 0.951544 0.970954 0.294276
C68   C     C_2   0.577083 0.204592 0.042974 0.735760
O27   O     O_2   0.567058 0.116997 0.092286 -0.559855
O28   O     O_R   0.625630 0.158009 0.008492 -0.666882
H28   H     H_    0.649161 0.048456 0.029046 0.294276

loop_
_geom_bond_atom_site_label_1
_geom_bond_atom_site_label_2
_ccdc_geom_bond_type
C34   C38   A    
C43   C47   S    
O1    C5    A    
C50   C62   T    
C47   H19   S    
O19   V1    S    
O13   V1    S    
O3    C7    A    
C18   H6    S    
O15   V3    S    
C10   H2    S    
C9    H1    S    
O26   H27   S    
C39   H15   S    
O7    C3    A    
C21   C33   A    
C26   C30   A    
C43   C55   S    
C3    C50   S    
O9    V1    S    
C14   C18   A    
C24   C28   A    
C66   O24   S    
C58   C62   S    
O4    C8    A    
O22   H25   S    
O1    V3    S    
C44   C59   S    
C43   C60   S    
O2    V4    S    
C18   C22   A    
C42   C57   S    
C33   H9    S    
O3    V1    S    
C12   C16   A    
C1    O15   A    
C48   H20   S    
H22   C53   S    
C2    O16   A    
O2    C6    A    
C54   C58   S    
O14   V2    S    
C11   H3    S    
O11   C7    A    
O12   C8    A    
C22   C34   A    
O17   V1    S    
C40   H16   S    
C46   C58   S    
O10   V2    S    
C45   C57   S    
C24   C36   A    
O5    V1    S    
C9    C29   A    
C53   C57   S    
O7    V3    S    
C11   C31   A    
C27   C28   A    
O8    V4    S    
O20   V4    S    
C46   H18   S    
C37   H13   S    
C45   H17   S    
O18   V4    S    
C41   C53   S    
C42   C46   S    
O19   V3    S    
C36   H12   S    
C9    C13   A    
C60   C64   S    
C11   C15   A    
O5    C1    A    
C12   C32   A    
C49   C61   T    
C29   C38   A    
C21   C25   A    
O8    C4    A    
C51   C63   T    
C31   C40   A    
C12   H4    S    
C8    C13   S    
C42   C54   S    
C32   C39   A    
O9    C5    A    
C43   C67   S    
C33   C37   A    
C4    C49   S    
O6    V2    S    
C52   C64   T    
C1    C52   S    
C68   O27   D    
C44   C56   S    
C41   C65   S    
O28   H28   S    
C35   H11   S    
C56   C60   S    
C48   C55   S    
H23   C56   S    
C34   H10   S    
C17   H5    S    
C65   O21   D    
O16   V4    S    
C44   C68   S    
C57   C61   S    
C41   C58   S    
C3    O13   A    
C19   H7    S    
C10   C14   A    
C59   C63   S    
O17   V3    S    
C38   H14   S    
C44   C48   S    
H21   C54   S    
O6    C2    A    
C23   C27   A    
O24   H26   S    
C67   O25   D    
O11   V3    S    
C30   C37   A    
O12   V4    S    
C7    C14   S    
C22   C26   A    
C35   C39   A    
C36   C40   A    
O10   C6    A    
O20   V2    S    
C66   O23   D    
C10   C30   A    
C5    C16   S    
C25   C29   A    
C6    C15   S    
C20   H8    S    
C27   C31   A    
C13   C17   A    
C2    C51   S    
O4    V2    S    
C67   O26   S    
C23   C35   A    
C47   C56   S    
C48   C60   S    
C28   C32   A    
C16   C20   A    
C47   C59   S    
C15   C19   A    
C25   C26   A    
H24   C55   S    
C4    O14   A    
C68   O28   S    
C17   C21   A    
C55   C59   S    
C42   C66   S    
C46   C53   S    
C19   C23   A    
C41   C45   S    
C45   C54   S    
C20   C24   A    
C65   O22   S    
O18   V2    S    
