data_mof_unit_68276.cif
_audit_creation_date              2012-10-26T19:40:05-0400
_audit_creation_method            fapswitch 2.2
_symmetry_space_group_name_H-M    P1
_symmetry_Int_Tables_number       1
_space_group_crystal_system       triclinic
_cell_length_a                    14.796499
_cell_length_b                    8.852833
_cell_length_c                    7.545688
_cell_angle_alpha                 101.972416
_cell_angle_beta                  98.675415
_cell_angle_gamma                 89.749067
_cell_volume                      955.483345737

loop_
_atom_site_label
_atom_site_type_symbol
_atom_type_description
_atom_site_fract_x
_atom_site_fract_y
_atom_site_fract_z
_atom_type_partial_charge
C1    C     C_R   0.496961 0.200527 0.454573 0.539851
C2    C     C_R   0.174884 0.429505 0.344528 0.109993
C3    C     C_R   0.770324 0.464298 0.518348 0.020023
C4    C     C_R   0.229676 0.535702 0.481652 0.020023
C5    C     C_R   0.812965 0.338517 0.415251 -0.019443
C6    C     C_R   0.187035 0.661483 0.584748 -0.019443
C7    C     C_R   0.909326 0.347738 0.426657 0.037837
C8    C     C_R   0.090674 0.652262 0.573343 0.037837
C9    C     C_R   0.954443 0.488985 0.509806 0.006983
C10   C     C_R   0.045557 0.511015 0.490194 0.006983
C11   C     C_R   0.911875 0.603089 0.624232 0.024674
C12   C     C_R   0.503039 0.799473 0.545427 0.539851
C13   C     C_R   0.088125 0.396911 0.375769 0.024674
C14   C     C_R   0.966518 0.222489 0.383630 0.128604
C15   C     C_R   0.033481 0.777511 0.616371 0.128603
C16   C     C_3   0.757500 0.199281 0.303820 -0.339676
C17   C     C_3   0.242500 0.800720 0.696179 -0.339674
C18   C     C_R   0.044183 0.251537 0.307268 0.154867
C19   C     C_R   0.955817 0.748463 0.692733 0.154867
C20   C     C_2   0.492975 0.034074 0.428760 -0.134277
C21   C     C_2   0.507025 0.965925 0.571240 -0.134277
C22   C     C_R   0.328854 0.517479 0.497165 0.545325
C23   C     C_R   0.671146 0.482521 0.502834 0.545325
C24   C     C_R   0.825116 0.570495 0.655473 0.109993
Cu1   Cu    Cu3+1 0.510010 0.517380 0.684380 1.090044
Cu2   Cu    Cu3+1 0.489990 0.482620 0.315620 1.090043
H1    H     H_    0.477749 0.966676 0.289520 0.157086
H2    H     H_    0.522251 0.033324 0.710480 0.157086
H3    H     H_    0.801050 0.109622 0.236345 0.189475
H4    H     H_    0.719837 0.147443 0.394221 0.144171
H5    H     H_    0.707716 0.234083 0.195049 0.166483
H6    H     H_    0.198949 0.890381 0.763645 0.189475
H7    H     H_    0.292281 0.765920 0.804956 0.166483
H8    H     H_    0.280167 0.852555 0.605778 0.144169
I1    I     I_    0.820534 0.552755 0.930786 -0.206648
I2    I     I_    0.179466 0.447243 0.069214 -0.206648
I3    I     I_    0.020910 0.178477 0.647591 -0.241198
I4    I     I_    0.979089 0.821523 0.352411 -0.241197
I5    I     I_    0.115476 0.066947 0.163396 -0.224422
I6    I     I_    0.884525 0.933052 0.836611 -0.224422
I7    I     I_    0.388175 0.273203 0.893697 -0.157599
I8    I     I_    0.611825 0.726796 0.106303 -0.157599
N1    N     N_2   0.474890 0.456420 0.038520 -0.034685
N2    N     N_2   0.525110 0.543580 0.961480 -0.034685
O1    O     O_R   0.506510 0.286130 0.619770 -0.496001
O2    O     O_R   0.493490 0.713870 0.380230 -0.496001
O3    O     O_R   0.489600 0.256770 0.308360 -0.496451
O4    O     O_R   0.510400 0.743230 0.691640 -0.496451
O5    O     O_R   0.378710 0.514640 0.655720 -0.490635
O6    O     O_R   0.621290 0.485360 0.344280 -0.490636
O7    O     O_R   0.361800 0.485290 0.344300 -0.474380
O8    O     O_R   0.638200 0.514710 0.655700 -0.474380

loop_
_geom_bond_atom_site_label_1
_geom_bond_atom_site_label_2
_ccdc_geom_bond_type
C2    C4    A    
N1    N2    D    
C15   I4    S    
C20   H1    S    
C4    C22   S    
C9    C10   A    
C14   C18   A    
C3    C23   S    
C12   O4    A    
C1    O1    A    
C23   O8    A    
Cu1   O8    S    
C17   H7    S    
Cu2   O7    S    
C14   I3    S    
C15   C19   A    
C9    C11   A    
Cu1   O4    S    
C11   C19   A    
C3    C24   A    
I8    N2    S    
Cu2   O3    S    
C22   O5    A    
C13   C18   A    
Cu1   N2    S    
C8    C10   A    
C21   H2    S    
Cu2   N1    S    
C8    C15   A    
C7    C9    A    
Cu2   O6    S    
C18   I5    S    
Cu1   O5    S    
C24   I1    S    
C17   H8    S    
Cu2   O2    S    
C16   H4    S    
C6    C17   S    
Cu1   O1    S    
C11   C24   A    
C2    C13   A    
C20   C21   D    
C16   H3    S    
C12   O2    A    
C4    C6    A    
C19   I6    S    
C2    I2    S    
C5    C7    A    
C17   H6    S    
C1    O3    A    
C5    C16   S    
C6    C8    A    
C3    C5    A    
Cu1   Cu2   S    
C16   H5    S    
C12   C21   S    
C7    C14   A    
I7    N1    S    
C23   O6    A    
C22   O7    A    
C1    C20   S    
C10   C13   A    
