data_mof_unit_38218.cif
_audit_creation_date              2012-12-11T14:13:57-0500
_audit_creation_method            fapswitch 2.2
_symmetry_space_group_name_H-M    P1
_symmetry_Int_Tables_number       1
_space_group_crystal_system       triclinic
_cell_length_a                    17.102645
_cell_length_b                    7.249322
_cell_length_c                    16.92482
_cell_angle_alpha                 90.00345
_cell_angle_beta                  99.200861
_cell_angle_gamma                 89.867949
_cell_volume                      2071.37917572

loop_
_atom_site_label
_atom_site_type_symbol
_atom_type_description
_atom_site_fract_x
_atom_site_fract_y
_atom_site_fract_z
_atom_type_partial_charge
O1    O     O_R   0.414560 0.494370 0.416770 -0.536496
O2    O     O_R   0.585440 0.994370 0.583230 -0.539708
O3    O     O_R   0.578370 0.819590 0.429320 -0.528502
O4    O     O_R   0.421630 0.319590 0.570680 -0.533613
C1    C     C_R   0.604733 0.655331 0.414319 0.783139
C2    C     C_R   0.395511 0.155524 0.585891 0.708693
O5    O     O_R   0.414740 0.823790 0.407360 -0.543871
O6    O     O_R   0.585260 0.323790 0.592640 -0.547764
O7    O     O_R   0.420650 0.998510 0.561120 -0.537533
O8    O     O_R   0.579350 0.498510 0.438880 -0.541478
C3    C     C_R   0.386940 0.656110 0.386829 0.761521
C4    C     C_R   0.613430 0.155809 0.612889 0.732636
O9    O     O_3   0.502130 0.662240 0.550470 -0.383188
O10   O     O_3   0.497870 0.162240 0.449530 -0.375952
V1    V     V_3+5 0.499600 0.935390 0.490640 1.444478
V2    V     V_3+5 0.500400 0.435390 0.509360 1.432028
C5    C     C_2   0.785345 0.264548 0.786028 0.377653
C6    C     C_2   0.219779 0.763089 0.209068 0.383178
C7    C     C_2   0.814111 0.112337 0.826581 -0.312027
C8    C     C_2   0.186382 0.609849 0.173161 -0.314883
H1    H     H_    0.780091 0.985482 0.818670 0.108076
H2    H     H_    0.216874 0.478702 0.184960 0.108485
C9    C     C_2   0.705579 0.259916 0.734576 0.039944
C10   C     C_2   0.299069 0.751556 0.261288 0.030227
C11   C     C_2   0.689610 0.147429 0.669164 0.008376
C12   C     C_2   0.311245 0.649746 0.330084 0.005889
C13   C     C_R   0.331799 0.146718 0.635905 -0.201085
C14   C     C_R   0.670094 0.646307 0.366338 -0.142580
C15   C     C_R   0.167763 0.122779 0.863998 -0.175620
C16   C     C_R   0.832237 0.625378 0.136874 -0.181639
C17   C     C_R   0.304884 0.199580 0.851832 0.431533
C18   C     C_R   0.703055 0.749801 0.156653 0.369960
C19   C     C_R   0.243784 0.185763 0.898980 0.190157
C20   C     C_R   0.761925 0.724259 0.107548 0.224124
C21   C     C_R   0.152901 0.078507 0.781509 0.080352
C22   C     C_R   0.843158 0.554173 0.215976 0.073368
C23   C     C_R   0.209889 0.125576 0.731550 -0.044497
C24   C     C_R   0.789799 0.606671 0.269114 -0.015267
C25   C     C_R   0.288765 0.165156 0.768031 -0.070720
C26   C     C_R   0.714717 0.680073 0.236012 -0.112071
C27   C     C_R   0.350246 0.168526 0.720230 0.353524
C28   C     C_R   0.653568 0.687294 0.284232 0.321583
C29   C     C_R   0.251843 0.131758 0.598945 0.101310
C30   C     C_R   0.748370 0.602938 0.402324 0.072047
C31   C     C_R   0.190742 0.136423 0.646490 0.188968
C32   C     C_R   0.809234 0.593494 0.354282 0.192815
O11   O     O_R   0.920750 0.773600 0.061260 -0.530499
O12   O     O_R   0.079250 0.273600 0.938740 -0.532584
O13   O     O_R   0.085340 0.439850 0.092570 -0.548953
O14   O     O_R   0.914660 0.939850 0.907430 -0.548657
C33   C     C_R   0.113225 0.607783 0.113114 0.764196
C34   C     C_R   0.887070 0.108191 0.886659 0.769725
O15   O     O_R   0.921720 0.444130 0.070790 -0.541870
O16   O     O_R   0.078280 0.944130 0.929210 -0.542706
O17   O     O_R   0.914480 0.269530 0.916840 -0.503059
O18   O     O_R   0.085520 0.769530 0.083160 -0.502104
C35   C     C_R   0.896649 0.612706 0.086936 0.705988
C36   C     C_R   0.103053 0.112430 0.913060 0.711382
O19   O     O_3   0.997840 0.601520 0.949550 -0.374811
O20   O     O_3   0.002160 0.101520 0.050450 -0.375031
V3    V     V_3+5 0.000400 0.328340 0.009360 1.485423
V4    V     V_3+5 0.999600 0.828340 0.990640 1.487152
O21   O     O_3   0.827344 0.427944 0.795797 -0.633460
H3    H     H_    0.798168 0.521773 0.759833 0.286014
O22   O     O_3   0.183291 0.932594 0.193668 -0.632485
H4    H     H_    0.215353 0.026708 0.226773 0.286654
C37   C     C_3   0.081134 0.960700 0.750934 -0.729922
H5    H     H_    0.079790 0.838469 0.790088 0.218414
H6    H     H_    0.025727 0.041312 0.750230 0.187602
H7    H     H_    0.083207 0.901646 0.691012 0.214794
C38   C     C_3   0.905008 0.404909 0.238614 -0.714361
H8    H     H_    0.896348 0.292656 0.193549 0.222732
H9    H     H_    0.965560 0.462466 0.241834 0.187689
H10   H     H_    0.899225 0.335370 0.295591 0.211562
C39   C     C_3   0.644339 0.391144 0.757881 -0.732282
H11   H     H_    0.664890 0.452007 0.817843 0.220799
H12   H     H_    0.633579 0.506578 0.714424 0.217197
H13   H     H_    0.588289 0.316896 0.760914 0.223768
C40   C     C_3   0.364846 0.863003 0.234849 -0.725482
H14   H     H_    0.346489 0.918121 0.173409 0.222462
H15   H     H_    0.380292 0.982214 0.275404 0.221512
H16   H     H_    0.417735 0.774585 0.234020 0.233508
C41   C     C_3   0.752328 0.019079 0.645995 -0.823936
H17   H     H_    0.734848 0.964763 0.584338 0.212695
H18   H     H_    0.809160 0.093569 0.647025 0.214846
H19   H     H_    0.761201 0.899033 0.687041 0.211881
C42   C     C_3   0.245110 0.539049 0.356655 -0.830498
H20   H     H_    0.261433 0.493575 0.419803 0.210580
H21   H     H_    0.190586 0.624162 0.353184 0.216302
H22   H     H_    0.232751 0.413673 0.319286 0.214800
O23   O     O_3   0.427927 0.187843 0.757814 -0.596831
H23   H     H_    0.465290 0.148804 0.722108 0.267849
O24   O     O_3   0.575788 0.723568 0.252083 -0.631219
H24   H     H_    0.563461 0.651311 0.201914 0.321825
C43   C     C_3   0.230063 0.113349 0.508575 -0.750268
H25   H     H_    0.281507 0.092517 0.477281 0.199962
H26   H     H_    0.190890 0.992008 0.494086 0.210318
H27   H     H_    0.198715 0.238955 0.482917 0.203769
C44   C     C_3   0.768494 0.569695 0.492007 -0.761144
H28   H     H_    0.716224 0.565224 0.522984 0.196386
H29   H     H_    0.799467 0.435220 0.503335 0.216231
H30   H     H_    0.807186 0.681443 0.520726 0.205848
O25   O     O_3   0.380470 0.253238 0.886032 -0.587509
H31   H     H_    0.385055 0.263079 0.944869 0.343562
O26   O     O_3   0.635579 0.852783 0.130192 -0.621586
H32   H     H_    0.634768 0.894887 0.074494 0.346055
C45   C     C_3   0.107385 0.183986 0.605807 -0.765566
H33   H     H_    0.108885 0.304423 0.565627 0.205864
H34   H     H_    0.080371 0.065354 0.570015 0.204773
H35   H     H_    0.068562 0.228684 0.648702 0.219372
C46   C     C_3   0.894751 0.600691 0.395902 -0.768708
H36   H     H_    0.902234 0.711879 0.441500 0.206283
H37   H     H_    0.912354 0.467100 0.425659 0.207132
H38   H     H_    0.936496 0.637639 0.354782 0.215502
O27   O     O_3   0.261644 0.230397 0.979489 -0.650058
H39   H     H_    0.221177 0.180974 0.009398 0.296624
O28   O     O_3   0.747576 0.793635 0.030339 -0.648805
H40   H     H_    0.778153 0.722774 0.995649 0.291791

loop_
_geom_bond_atom_site_label_1
_geom_bond_atom_site_label_2
_ccdc_geom_bond_type
C42   H20   S    
O24   H24   S    
C28   O24   S    
C43   H25   S    
O1    C3    A    
O2    C4    A    
O11   V4    S    
C43   H27   S    
C25   C27   A    
C9    C11   D    
C6    O22   S    
O5    C3    A    
C5    C9    S    
C41   H17   S    
C6    C10   S    
C21   C23   A    
C10   C12   D    
C8    C33   S    
C30   C44   S    
O27   H39   S    
C16   C35   S    
C15   C19   A    
C40   H16   S    
C33   O18   A    
C14   C28   A    
O15   V3    S    
C7    C34   S    
C46   H36   S    
C12   C42   S    
O13   C33   A    
C29   C43   S    
C45   H33   S    
C17   C19   A    
C34   O17   A    
C20   O28   S    
O5    V1    S    
O6    V2    S    
C32   C46   S    
C45   H34   S    
C2    O7    A    
C30   C32   A    
C19   O27   S    
O13   V3    S    
C16   C20   A    
C37   H5    S    
C22   C38   S    
O4    C2    A    
O23   H23   S    
C38   H9    S    
O15   C35   A    
O16   V4    S    
C3    C12   S    
C14   C30   A    
O21   H3    S    
O20   V3    S    
C37   H6    S    
C18   C20   A    
O4    V2    S    
C39   H11   S    
O11   C35   A    
C1    C14   S    
C39   H12   S    
C13   C27   A    
C10   C40   S    
O14   C34   A    
C2    C13   S    
C21   C37   S    
O6    C4    A    
C44   H30   S    
C46   H37   S    
O1    V2    S    
O2    V1    S    
C29   C31   A    
C41   H18   S    
C8    H2    S    
C18   O26   S    
C42   H21   S    
O14   V4    S    
C45   H35   S    
O18   V4    S    
O9    V2    S    
C23   C31   A    
O3    V1    S    
C40   H15   S    
O16   C36   A    
O19   V4    S    
C27   O23   S    
C9    C39   S    
O3    C1    A    
C38   H10   S    
C43   H26   S    
O12   C36   A    
O26   H32   S    
C15   C21   A    
C44   H28   S    
C16   C22   A    
C4    C11   S    
C37   H7    S    
C22   C24   A    
O7    V1    S    
C1    O8    A    
C23   C25   A    
O8    V2    S    
O28   H40   S    
C5    O21   S    
C24   C26   A    
O12   V3    S    
O17   V3    S    
C26   C28   A    
C5    C7    D    
C17   C25   A    
C46   H38   S    
C6    C8    D    
C18   C26   A    
C39   H13   S    
C24   C32   A    
C40   H14   S    
C13   C29   A    
C38   H8    S    
C41   H19   S    
C15   C36   S    
O22   H4    S    
C42   H22   S    
O25   H31   S    
C11   C41   S    
O10   V1    S    
C44   H29   S    
C31   C45   S    
C17   O25   S    
C7    H1    S    
