data_mof_unit_64820.cif
_audit_creation_date              2012-12-10T19:39:13-0500
_audit_creation_method            fapswitch 2.2
_symmetry_space_group_name_H-M    P1
_symmetry_Int_Tables_number       1
_space_group_crystal_system       triclinic
_cell_length_a                    25.900232
_cell_length_b                    43.126883
_cell_length_c                    25.124478
_cell_angle_alpha                 89.999839
_cell_angle_beta                  120.930627
_cell_angle_gamma                 90.003071
_cell_volume                      24072.9818861

loop_
_atom_site_label
_atom_site_type_symbol
_atom_type_description
_atom_site_fract_x
_atom_site_fract_y
_atom_site_fract_z
_atom_type_partial_charge
C1    C     C_R   0.360231 0.749612 0.000693 0.790471
C2    C     C_R   0.499999 0.032607 0.000001 -0.029449
C3    C     C_R   0.531697 0.615236 0.056772 -0.070346
C4    C     C_R   0.030704 0.884762 0.057020 -0.055778
C5    C     C_R   0.968355 0.115267 0.943088 -0.070274
C6    C     C_R   0.969313 0.884759 0.942979 -0.055768
C7    C     C_R   0.031631 0.115268 0.056903 -0.070233
C8    C     C_R   0.500056 0.368401 0.999808 -0.276680
C9    C     C_R   0.500001 0.631608 0.999912 -0.267491
C10   C     C_R   0.000006 0.868404 0.000000 -0.278859
C11   C     C_R   0.999994 0.131607 0.999996 -0.267529
C12   C     C_R   0.898751 0.729395 0.731109 -0.191471
C13   C     C_R   0.999999 0.467393 0.999999 -0.029496
C14   C     C_R   0.101159 0.270565 0.268879 -0.189208
C15   C     C_R   0.101252 0.729393 0.268889 -0.191473
C16   C     C_R   0.898857 0.270556 0.731123 -0.189216
C17   C     C_R   0.398743 0.229391 0.731109 -0.191427
C18   C     C_R   0.601150 0.770559 0.268879 -0.189208
C19   C     C_R   0.601245 0.229397 0.268889 -0.191501
C20   C     C_R   0.398848 0.770561 0.731123 -0.189176
C21   C     C_R   0.867049 0.728824 0.666108 0.218192
C22   C     C_R   0.132807 0.271112 0.333879 0.218547
C23   C     C_R   0.132955 0.728820 0.333890 0.218190
C24   C     C_R   0.999999 0.532607 0.000001 -0.029470
C25   C     C_R   0.867214 0.271100 0.666122 0.218555
C26   C     C_R   0.367042 0.228820 0.666108 0.218206
C27   C     C_R   0.632795 0.771105 0.333879 0.218528
C28   C     C_R   0.632949 0.228824 0.333890 0.218170
C29   C     C_R   0.367202 0.771106 0.666122 0.218530
C30   C     C_R   0.817763 0.749102 0.632996 0.085247
C31   C     C_R   0.182045 0.250808 0.367000 0.083476
C32   C     C_R   0.182241 0.749100 0.367005 0.085245
C33   C     C_R   0.817963 0.250800 0.632999 0.083483
C34   C     C_R   0.317772 0.249106 0.632996 0.085307
C35   C     C_R   0.500166 0.532301 0.999642 0.138807
C36   C     C_R   0.682041 0.750805 0.367000 0.083489
C37   C     C_R   0.682247 0.249097 0.367005 0.085228
C38   C     C_R   0.317960 0.750802 0.632999 0.083484
C39   C     C_R   0.801774 0.769754 0.665197 -0.230086
C40   C     C_R   0.198026 0.230146 0.334805 -0.225103
C41   C     C_R   0.198231 0.769756 0.334806 -0.230083
C42   C     C_R   0.801967 0.230144 0.665192 -0.225110
C43   C     C_R   0.301796 0.269767 0.665197 -0.230177
C44   C     C_R   0.698031 0.730148 0.334806 -0.225121
C45   C     C_R   0.698249 0.269746 0.334806 -0.230068
C46   C     C_R   0.500384 0.467685 0.999446 0.150690
C47   C     C_R   0.301973 0.730141 0.665192 -0.225077
C48   C     C_R   0.833582 0.770104 0.729817 -0.180812
C49   C     C_R   0.166269 0.229820 0.270184 -0.190438
C50   C     C_R   0.166422 0.770106 0.270185 -0.180814
C51   C     C_R   0.833721 0.229821 0.729813 -0.190464
C52   C     C_R   0.333602 0.270115 0.729817 -0.181392
C53   C     C_R   0.666276 0.729823 0.270185 -0.190442
C54   C     C_R   0.666439 0.270097 0.270185 -0.180639
C55   C     C_R   0.333728 0.729816 0.729813 -0.190499
C56   C     C_R   0.882198 0.749865 0.763314 -0.050751
C57   C     C_R   0.000000 0.032294 0.999992 0.139676
C58   C     C_R   0.117720 0.250094 0.236682 -0.058376
C59   C     C_R   0.117805 0.749865 0.236687 -0.050767
C60   C     C_R   0.882281 0.250091 0.763317 -0.058388
C61   C     C_R   0.382202 0.249867 0.763314 -0.050932
C62   C     C_R   0.617719 0.750094 0.236682 -0.058338
C63   C     C_R   0.617808 0.249863 0.236687 -0.050703
C64   C     C_R   0.382281 0.750092 0.763317 -0.058403
C65   C     C_R   0.786042 0.775321 0.532767 -0.189111
C66   C     C_R   0.213740 0.224591 0.467230 -0.189313
C67   C     C_R   0.213958 0.775316 0.467236 -0.189108
C68   C     C_R   0.000006 0.967670 0.999996 0.163243
C69   C     C_R   0.786250 0.224578 0.532768 -0.189307
C70   C     C_R   0.286062 0.275321 0.532766 -0.189174
C71   C     C_R   0.713747 0.724584 0.467229 -0.189309
C72   C     C_R   0.713976 0.275317 0.467235 -0.189110
C73   C     C_R   0.286257 0.724584 0.532767 -0.189305
C74   C     C_R   0.499998 0.665871 0.999990 0.905697
C75   C     C_R   0.500001 0.334130 0.000011 0.882078
C76   C     C_R   0.999998 0.165871 0.999998 0.905784
C77   C     C_R   0.000002 0.834131 0.000001 0.880248
C78   C     C_R   0.753341 0.775701 0.468089 -0.173679
C79   C     C_R   0.632534 0.650207 0.980125 -0.124606
C80   C     C_R   0.246445 0.224211 0.531910 -0.174269
C81   C     C_R   0.246658 0.775696 0.531915 -0.173680
C82   C     C_R   0.753549 0.224197 0.468088 -0.174308
C83   C     C_R   0.253359 0.275701 0.468087 -0.173658
C84   C     C_R   0.746451 0.724203 0.531909 -0.174292
C85   C     C_R   0.746674 0.275697 0.531913 -0.173702
C86   C     C_R   0.253555 0.724204 0.468087 -0.174295
C87   C     C_R   0.716828 0.750406 0.435132 0.118046
C88   C     C_R   0.282969 0.249503 0.564864 0.117986
C89   C     C_R   0.283172 0.750403 0.564868 0.118040
C90   C     C_R   0.367972 0.349617 0.020130 -0.127478
C91   C     C_R   0.717049 0.249494 0.435136 0.117988
C92   C     C_R   0.216834 0.250409 0.435132 0.118046
C93   C     C_R   0.782961 0.749499 0.564864 0.117983
C94   C     C_R   0.783177 0.250401 0.564867 0.118052
C95   C     C_R   0.217043 0.749497 0.435136 0.117982
C96   C     C_R   0.530912 0.417604 0.056394 0.091910
C97   C     C_R   0.468717 0.582562 0.942755 0.086376
C98   C     C_R   0.469373 0.417354 0.942315 0.091911
C99   C     C_R   0.531360 0.582495 0.056809 0.086027
C100  C     C_R   0.029850 0.917493 0.057058 0.094099
C101  C     C_R   0.367355 0.650196 0.019734 -0.124670
C102  C     C_R   0.968744 0.082526 0.942962 0.086194
C103  C     C_R   0.970168 0.917490 0.942940 0.094100
C104  C     C_R   0.031247 0.082527 0.057026 0.086191
C105  C     C_R   0.500422 0.433601 0.999215 0.042693
C106  C     C_R   0.500062 0.566353 0.999739 0.054812
C107  C     C_R   0.000009 0.933555 0.999998 0.032146
C108  C     C_R   0.999998 0.066349 0.999993 0.053811
C109  C     C_R   0.450902 0.483769 0.994000 -0.195683
C110  C     C_R   0.549610 0.516220 0.005000 -0.189313
C111  C     C_R   0.549699 0.483927 0.004868 -0.193477
C112  C     C_R   0.639769 0.250388 0.999308 0.789894
C113  C     C_R   0.632515 0.349754 0.980041 -0.129651
C114  C     C_R   0.450802 0.516064 0.994128 -0.190320
C115  C     C_R   0.950482 0.983835 0.994245 -0.197766
C116  C     C_R   0.049531 0.016135 0.005739 -0.187795
C117  C     C_R   0.049527 0.983841 0.005745 -0.197756
C118  C     C_R   0.950472 0.016130 0.994248 -0.187784
C119  C     C_R   0.500000 0.834146 1.000000 0.785742
C120  C     C_R   0.500000 0.165853 0.000000 0.784686
C121  C     C_R   1.000000 0.334147 1.000000 0.785739
C122  C     C_R   1.000000 0.665853 0.000000 0.784691
C123  C     C_R   0.513577 0.115245 0.960406 -0.203574
C124  C     C_R   0.132597 0.150204 0.980222 -0.124570
C125  C     C_R   0.486409 0.884754 0.039583 -0.203332
C126  C     C_R   0.486422 0.115245 0.039596 -0.203556
C127  C     C_R   0.513591 0.884755 0.960414 -0.203335
C128  C     C_R   0.013482 0.615245 0.960334 -0.203559
C129  C     C_R   0.986511 0.384754 0.039661 -0.203344
C130  C     C_R   0.986516 0.615245 0.039667 -0.203563
C131  C     C_R   0.013489 0.384755 0.960337 -0.203334
C132  C     C_R   0.513563 0.082918 0.960438 -0.177011
C133  C     C_R   0.486424 0.917082 0.039552 -0.176938
C134  C     C_R   0.486436 0.082917 0.039564 -0.177020
C135  C     C_R   0.867918 0.849652 0.020344 -0.129488
C136  C     C_R   0.513576 0.917083 0.960445 -0.176940
C137  C     C_R   0.013465 0.582918 0.960364 -0.177016
C138  C     C_R   0.986528 0.417082 0.039631 -0.176942
C139  C     C_R   0.986533 0.582917 0.039638 -0.177009
C140  C     C_R   0.013471 0.417083 0.960366 -0.176939
C141  C     C_R   0.499999 0.066726 0.000001 0.153941
C142  C     C_R   0.500000 0.933273 0.999998 0.153893
C143  C     C_R   0.999999 0.566726 0.000001 0.153940
C144  C     C_R   1.000000 0.433273 0.999999 0.153908
C145  C     C_R   0.500000 0.131708 0.000001 -0.003860
C146  C     C_R   0.867303 0.150187 0.019609 -0.124550
C147  C     C_R   0.500000 0.868292 0.999999 -0.004091
C148  C     C_R   0.999999 0.631708 0.000001 -0.003863
C149  C     C_R   1.000000 0.368292 0.999999 -0.004087
C150  C     C_R   0.446243 0.016389 0.959551 0.153792
C151  C     C_R   0.553756 0.983611 0.040447 0.153643
C152  C     C_R   0.553756 0.016393 0.040449 0.153791
C153  C     C_R   0.446244 0.983608 0.959551 0.153642
C154  C     C_R   0.946196 0.516389 0.959685 0.153782
C155  C     C_R   0.053802 0.483611 0.040315 0.153636
C156  C     C_R   0.053802 0.516393 0.040315 0.153793
C157  C     C_R   0.132136 0.849657 0.979742 -0.129467
C158  C     C_R   0.946196 0.483607 0.959684 0.153662
C159  C     C_2   0.563861 0.367791 0.116360 0.946117
C160  C     C_2   0.437093 0.632535 0.883105 0.953293
C161  C     C_2   0.437826 0.367480 0.882870 0.956048
C162  C     C_2   0.562894 0.632401 0.116716 0.953200
C163  C     C_2   0.062957 0.867593 0.116659 0.945637
C164  C     C_2   0.937167 0.132467 0.883185 0.953099
C165  C     C_2   0.937065 0.867586 0.883341 0.945643
C166  C     C_2   0.062803 0.132468 0.116806 0.953105
C167  C     C_3   0.887223 0.707248 0.633087 -0.929272
C168  C     C_R   0.653452 0.678540 0.971411 -0.123943
C169  C     C_3   0.112627 0.292692 0.366888 -0.932444
C170  C     C_3   0.112781 0.707242 0.366909 -0.929263
C171  C     C_3   0.887411 0.292674 0.633116 -0.932466
C172  C     C_3   0.387204 0.207236 0.633088 -0.929332
C173  C     C_3   0.612605 0.792680 0.366888 -0.932400
C174  C     C_3   0.612764 0.207253 0.366910 -0.929255
C175  C     C_3   0.387390 0.792685 0.633116 -0.932397
C176  C     C_3   0.560803 0.436115 0.116451 -0.853163
C177  C     C_3   0.437183 0.565337 0.881172 -0.859180
C178  C     C_3   0.438121 0.434504 0.880689 -0.862970
C179  C     C_R   0.346783 0.321361 0.028794 -0.124900
C180  C     C_3   0.562925 0.565189 0.118297 -0.858735
C181  C     C_3   0.058740 0.935922 0.117169 -0.852726
C182  C     C_3   0.937304 0.065262 0.881423 -0.859021
C183  C     C_3   0.941282 0.935917 0.882828 -0.852726
C184  C     C_3   0.062688 0.065264 0.118565 -0.859003
C185  C     C_3   0.388333 0.033649 0.915960 -0.887467
C186  C     C_3   0.611666 0.966350 0.084035 -0.887137
C187  C     C_3   0.611666 0.033656 0.084041 -0.887465
C188  C     C_3   0.388334 0.966343 0.915963 -0.887140
C189  C     C_3   0.888237 0.533649 0.916237 -0.887407
C190  C     C_R   0.346438 0.678516 0.028506 -0.124182
C191  C     C_3   0.111761 0.466351 0.083764 -0.887070
C192  C     C_3   0.111761 0.533656 0.083764 -0.887431
C193  C     C_3   0.888238 0.466344 0.916234 -0.887134
C194  C     C_R   0.653511 0.321437 0.971378 -0.124000
C195  C     C_R   0.153507 0.178532 0.971477 -0.123980
C196  C     C_R   0.639767 0.749612 0.999304 0.790416
C197  C     C_R   0.846759 0.821365 0.028918 -0.124627
C198  C     C_R   0.846423 0.178513 0.028403 -0.123884
C199  C     C_R   0.153276 0.821370 0.971147 -0.124545
C200  C     C_R   0.708017 0.691063 0.018864 0.130256
C201  C     C_R   0.292120 0.308940 0.981308 0.131899
C202  C     C_R   0.291928 0.691075 0.981041 0.130289
C203  C     C_R   0.708042 0.308924 0.018902 0.131593
C204  C     C_R   0.208052 0.191073 0.018930 0.130281
C205  C     C_R   0.792138 0.808940 0.981370 0.131791
C206  C     C_R   0.791886 0.191070 0.980976 0.130291
C207  C     C_R   0.360232 0.250384 0.000690 0.789452
C208  C     C_R   0.207897 0.808940 0.018677 0.131794
C209  C     C_R   0.741719 0.674537 0.074585 -0.148844
C210  C     C_R   0.258555 0.325511 0.925624 -0.152157
C211  C     C_R   0.258277 0.674601 0.925246 -0.148751
C212  C     C_R   0.741639 0.325444 0.074650 -0.154644
C213  C     C_R   0.241743 0.174571 0.074683 -0.148792
C214  C     C_R   0.758598 0.825528 0.925704 -0.154027
C215  C     C_R   0.758170 0.174587 0.925200 -0.148895
C216  C     C_R   0.241458 0.825524 0.074347 -0.154082
C217  C     C_R   0.720503 0.646253 0.083145 -0.106384
C218  C     C_R   0.860235 0.249608 0.000700 0.790439
C219  C     C_R   0.280022 0.353729 0.917121 -0.108642
C220  C     C_R   0.279493 0.646331 0.916628 -0.106330
C221  C     C_R   0.720349 0.353716 0.083158 -0.104699
C222  C     C_R   0.220533 0.146291 0.083275 -0.106478
C223  C     C_R   0.780044 0.853773 0.917288 -0.105657
C224  C     C_R   0.779348 0.146310 0.916561 -0.106496
C225  C     C_R   0.220034 0.853770 0.082784 -0.105703
C226  C     C_R   0.665871 0.634148 0.036041 -0.091110
C227  C     C_R   0.334773 0.365719 0.964243 -0.083468
C228  C     C_R   0.334071 0.634189 0.963747 -0.090984
C229  C     C_R   0.139770 0.750385 0.999311 0.789654
C230  C     C_R   0.665754 0.365813 0.035974 -0.078632
C231  C     C_R   0.165921 0.134169 0.036170 -0.091130
C232  C     C_R   0.834743 0.865775 0.964482 -0.079546
C233  C     C_R   0.833955 0.134171 0.963640 -0.091051
C234  C     C_R   0.165334 0.865775 0.035608 -0.079506
C235  C     C_R   0.284282 0.223006 0.013048 -0.250736
C236  C     C_R   0.715745 0.777001 0.986993 -0.250597
C237  C     C_R   0.715690 0.223007 0.986910 -0.250772
C238  C     C_R   0.284270 0.777000 0.013027 -0.250604
C239  C     C_R   0.784264 0.722998 0.013011 -0.250749
C240  C     C_R   0.139769 0.249614 0.999308 0.790427
C241  C     C_R   0.215743 0.277005 0.986984 -0.250615
C242  C     C_R   0.215713 0.723003 0.986952 -0.250752
C243  C     C_R   0.784322 0.276983 0.013119 -0.250625
C244  C     C_R   0.304661 0.250925 0.001818 -0.047630
C245  C     C_R   0.695347 0.749075 0.998193 -0.048115
C246  C     C_R   0.695353 0.250922 0.998208 -0.047954
C247  C     C_R   0.304646 0.749077 0.001796 -0.048118
C248  C     C_R   0.804656 0.750921 0.001808 -0.047779
C249  C     C_R   0.195354 0.249081 0.998205 -0.048092
C250  C     C_R   0.195344 0.750923 0.998191 -0.047800
C251  C     C_R   0.860231 0.750384 0.000690 0.789647
C252  C     C_R   0.804658 0.249068 0.001815 -0.048177
C253  C     C_R   0.415958 0.749945 0.831653 0.800966
C254  C     C_R   0.584062 0.250044 0.168348 0.810905
C255  C     C_R   0.584041 0.749946 0.168346 0.800929
C256  C     C_R   0.415941 0.250045 0.831653 0.811864
C257  C     C_R   0.915958 0.249945 0.831653 0.800959
C258  C     C_R   0.084061 0.750044 0.168348 0.811396
C259  C     C_R   0.084041 0.249946 0.168346 0.800931
C260  C     C_R   0.915940 0.750044 0.831653 0.811368
C261  C     C_R   0.270585 0.278394 0.989402 0.000764
C262  C     C_R   0.500000 0.967393 0.999998 -0.029464
C263  C     C_R   0.729444 0.721611 0.010635 0.000665
C264  C     C_R   0.729491 0.278376 0.010719 0.000986
C265  C     C_R   0.270528 0.721617 0.989320 0.000600
C266  C     C_R   0.770587 0.778389 0.989411 0.000996
C267  C     C_R   0.229464 0.221619 0.010672 0.000610
C268  C     C_R   0.229430 0.778389 0.010611 0.000994
C269  C     C_R   0.770510 0.221614 0.989287 0.000664
C270  C     C_R   0.531342 0.384866 0.056629 -0.055872
C271  C     C_R   0.468320 0.615302 0.942966 -0.070472
C272  C     C_R   0.468859 0.384646 0.942734 -0.064831
H1    H     H_    0.783853 0.683798 0.111664 0.129930
H2    H     H_    0.254323 0.366243 0.873877 0.139594
H3    H     H_    0.590372 0.359208 0.943496 0.159919
H4    H     H_    0.090464 0.140715 0.943729 0.164887
H5    H     H_    0.910150 0.859026 0.056897 0.160319
H6    H     H_    0.909432 0.140687 0.056081 0.164800
H7    H     H_    0.089903 0.859034 0.943204 0.160272
H8    H     H_    0.627015 0.690831 0.927961 0.116036
H9    H     H_    0.373129 0.309026 0.072204 0.117184
H10   H     H_    0.372837 0.690769 0.072006 0.116052
H11   H     H_    0.627152 0.309145 0.927916 0.117984
H12   H     H_    0.127079 0.190806 0.928004 0.116029
H13   H     H_    0.253716 0.633886 0.873313 0.140172
H14   H     H_    0.873081 0.809018 0.072317 0.117698
H15   H     H_    0.872870 0.190771 0.071892 0.116018
H16   H     H_    0.126938 0.809028 0.927744 0.117682
H17   H     H_    0.643313 0.358280 0.193646 0.336841
H18   H     H_    0.442674 0.664709 0.827965 0.338985
H19   H     H_    0.360287 0.358833 0.802800 0.338250
H20   H     H_    0.557277 0.664489 0.171974 0.339001
H21   H     H_    0.142093 0.858299 0.194497 0.336864
H22   H     H_    0.942783 0.164618 0.828029 0.338996
H23   H     H_    0.857933 0.858285 0.805501 0.336861
H24   H     H_    0.746077 0.366196 0.126442 0.141193
H25   H     H_    0.057161 0.164614 0.171956 0.338987
H26   H     H_    0.851714 0.689825 0.606011 0.241416
H27   H     H_    0.896571 0.720712 0.601284 0.251457
H28   H     H_    0.928917 0.694566 0.666191 0.237636
H29   H     H_    0.103228 0.279230 0.398654 0.250864
H30   H     H_    0.148153 0.310103 0.394000 0.241900
H31   H     H_    0.070961 0.305391 0.333773 0.237397
H32   H     H_    0.148290 0.689820 0.393983 0.241417
H33   H     H_    0.103434 0.720703 0.398713 0.251457
H34   H     H_    0.071088 0.694557 0.333803 0.237637
H35   H     H_    0.246344 0.133823 0.126560 0.140097
H36   H     H_    0.896802 0.279206 0.601351 0.250869
H37   H     H_    0.851899 0.310088 0.606004 0.241893
H38   H     H_    0.929086 0.305368 0.666233 0.237396
H39   H     H_    0.351684 0.189818 0.606011 0.241431
H40   H     H_    0.396561 0.220694 0.601286 0.251445
H41   H     H_    0.428889 0.194548 0.666192 0.237640
H42   H     H_    0.603211 0.779213 0.398653 0.250865
H43   H     H_    0.648123 0.810093 0.394001 0.241899
H44   H     H_    0.570934 0.805375 0.333772 0.237408
H45   H     H_    0.648264 0.189826 0.393983 0.241423
H46   H     H_    0.754364 0.866303 0.874060 0.140941
H47   H     H_    0.603425 0.220719 0.398714 0.251452
H48   H     H_    0.571064 0.194573 0.333804 0.237635
H49   H     H_    0.396786 0.779222 0.601349 0.250867
H50   H     H_    0.351870 0.810096 0.606005 0.241898
H51   H     H_    0.429060 0.805384 0.666233 0.237409
H52   H     H_    0.599221 0.449483 0.120339 0.244753
H53   H     H_    0.527828 0.452488 0.116673 0.233417
H54   H     H_    0.577827 0.421820 0.158788 0.253170
H55   H     H_    0.445839 0.540060 0.885255 0.239534
H56   H     H_    0.387793 0.568614 0.858390 0.264296
H57   H     H_    0.753518 0.133856 0.873260 0.140094
H58   H     H_    0.452818 0.574354 0.850432 0.238771
H59   H     H_    0.388725 0.431200 0.857654 0.268560
H60   H     H_    0.446772 0.459787 0.884840 0.239639
H61   H     H_    0.454017 0.425460 0.850191 0.238176
H62   H     H_    0.554278 0.539909 0.114069 0.240967
H63   H     H_    0.612310 0.568485 0.141080 0.264158
H64   H     H_    0.547297 0.574122 0.149099 0.238631
H65   H     H_    0.097326 0.949441 0.121826 0.245240
H66   H     H_    0.025282 0.952161 0.116787 0.232786
H67   H     H_    0.075249 0.921539 0.159328 0.252970
H68   H     H_    0.245731 0.866296 0.126014 0.140927
H69   H     H_    0.946032 0.039991 0.885587 0.240852
H70   H     H_    0.887903 0.068512 0.858582 0.264200
H71   H     H_    0.952969 0.074268 0.850700 0.238653
H72   H     H_    0.902697 0.949434 0.878168 0.245243
H73   H     H_    0.974742 0.952156 0.883209 0.232787
H74   H     H_    0.924772 0.921531 0.840670 0.252972
H75   H     H_    0.053969 0.039991 0.114399 0.240850
H76   H     H_    0.112089 0.068521 0.141410 0.264203
H77   H     H_    0.047017 0.074264 0.149284 0.238656
H78   H     H_    0.352962 0.027425 0.926513 0.240956
H79   H     H_    0.310198 0.201909 0.021514 0.160142
H80   H     H_    0.392560 0.059213 0.919119 0.246695
H81   H     H_    0.372872 0.027412 0.867159 0.241266
H82   H     H_    0.607438 0.940787 0.080875 0.246761
H83   H     H_    0.647035 0.972575 0.073480 0.240968
H84   H     H_    0.627130 0.972588 0.132837 0.241269
H85   H     H_    0.647036 0.027435 0.073487 0.240956
H86   H     H_    0.607438 0.059220 0.080884 0.246696
H87   H     H_    0.627128 0.027418 0.132842 0.241268
H88   H     H_    0.392562 0.940780 0.919119 0.246761
H89   H     H_    0.352967 0.972565 0.926523 0.240969
H90   H     H_    0.689846 0.798101 0.978555 0.160274
H91   H     H_    0.372867 0.972582 0.867162 0.241270
H92   H     H_    0.852978 0.527428 0.926958 0.240964
H93   H     H_    0.892471 0.559213 0.919378 0.246691
H94   H     H_    0.872617 0.527409 0.867400 0.241263
H95   H     H_    0.107527 0.440787 0.080624 0.246757
H96   H     H_    0.147020 0.472571 0.073042 0.240968
H97   H     H_    0.127382 0.472592 0.132601 0.241264
H98   H     H_    0.147020 0.527437 0.073044 0.240953
H99   H     H_    0.107527 0.559220 0.080623 0.246693
H100  H     H_    0.127380 0.527417 0.132601 0.241268
H101  H     H_    0.689739 0.201917 0.978387 0.160169
H102  H     H_    0.892472 0.440780 0.919373 0.246744
H103  H     H_    0.852979 0.472562 0.926955 0.240975
H104  H     H_    0.872618 0.472585 0.867398 0.241261
H105  H     H_    0.216363 0.316323 0.888510 0.129059
H106  H     H_    0.310184 0.798099 0.021486 0.160288
H107  H     H_    0.810173 0.701900 0.021459 0.160123
H108  H     H_    0.189833 0.298103 0.978526 0.160277
H109  H     H_    0.189790 0.701907 0.978477 0.160163
H110  H     H_    0.810264 0.298075 0.021633 0.160370
H111  H     H_    0.936543 0.713843 0.756624 0.162896
H112  H     H_    0.063408 0.286140 0.243358 0.162800
H113  H     H_    0.063459 0.713839 0.243372 0.162896
H114  H     H_    0.936618 0.286128 0.756645 0.162800
H115  H     H_    0.436523 0.213832 0.756625 0.162869
H116  H     H_    0.216190 0.683894 0.888155 0.129915
H117  H     H_    0.563392 0.786131 0.243358 0.162810
H118  H     H_    0.563442 0.213849 0.243373 0.162917
H119  H     H_    0.436602 0.786136 0.756645 0.162807
H120  H     H_    0.764260 0.785518 0.640094 0.150819
H121  H     H_    0.235503 0.214361 0.359914 0.153812
H122  H     H_    0.235746 0.785522 0.359911 0.150818
H123  H     H_    0.764482 0.214363 0.640082 0.153807
H124  H     H_    0.264294 0.285538 0.640094 0.150859
H125  H     H_    0.735513 0.714367 0.359914 0.153807
H126  H     H_    0.735773 0.285506 0.359910 0.150787
H127  H     H_    0.783737 0.316186 0.111789 0.129362
H128  H     H_    0.264493 0.714355 0.640082 0.153808
H129  H     H_    0.820099 0.786221 0.753507 0.169029
H130  H     H_    0.179745 0.213698 0.246498 0.177990
H131  H     H_    0.179905 0.786225 0.246497 0.169028
H132  H     H_    0.820234 0.213703 0.753499 0.177974
H133  H     H_    0.320130 0.286239 0.753507 0.169328
H134  H     H_    0.679758 0.713705 0.246498 0.177964
H135  H     H_    0.679931 0.286210 0.246496 0.168972
H136  H     H_    0.320249 0.713695 0.753499 0.177994
H137  H     H_    0.814149 0.794971 0.557839 0.141179
H138  H     H_    0.283861 0.183846 0.111764 0.129916
H139  H     H_    0.185626 0.204943 0.442160 0.140450
H140  H     H_    0.185850 0.794965 0.442168 0.141179
H141  H     H_    0.814346 0.204926 0.557839 0.140450
H142  H     H_    0.314179 0.294969 0.557836 0.141098
H143  H     H_    0.685643 0.704933 0.442157 0.140444
H144  H     H_    0.685877 0.294968 0.442165 0.141199
H145  H     H_    0.314363 0.704934 0.557836 0.140451
H146  H     H_    0.756585 0.795612 0.443688 0.136816
H147  H     H_    0.243196 0.204302 0.556314 0.136436
H148  H     H_    0.243411 0.795604 0.556318 0.136816
H149  H     H_    0.716436 0.816337 0.888545 0.129296
H150  H     H_    0.756780 0.204285 0.443684 0.136436
H151  H     H_    0.256613 0.295608 0.443685 0.136803
H152  H     H_    0.743213 0.704291 0.556311 0.136435
H153  H     H_    0.743436 0.295608 0.556316 0.136805
H154  H     H_    0.256796 0.704294 0.443682 0.136435
H155  H     H_    0.524209 0.127317 0.929434 0.161635
H156  H     H_    0.475766 0.872683 0.070547 0.161560
H157  H     H_    0.475790 0.127316 0.070567 0.161649
H158  H     H_    0.524233 0.872684 0.929451 0.161560
H159  H     H_    0.024038 0.627317 0.929305 0.161648
H160  H     H_    0.716058 0.183875 0.888140 0.129914
H161  H     H_    0.975950 0.372683 0.070687 0.161555
H162  H     H_    0.975960 0.627316 0.070696 0.161644
H163  H     H_    0.024050 0.372684 0.929311 0.161552
H164  H     H_    0.524093 0.070482 0.929735 0.142270
H165  H     H_    0.475882 0.929518 0.070246 0.142218
H166  H     H_    0.475905 0.070480 0.070267 0.142272
H167  H     H_    0.524117 0.929520 0.929751 0.142218
H168  H     H_    0.023920 0.570481 0.929604 0.142270
H169  H     H_    0.976067 0.429518 0.070388 0.142213
H170  H     H_    0.976078 0.570480 0.070398 0.142272
H171  H     H_    0.283622 0.816330 0.111492 0.129300
H172  H     H_    0.023931 0.429520 0.929610 0.142201
H173  H     H_    0.412660 0.471271 0.989707 0.142487
H174  H     H_    0.587830 0.528716 0.009234 0.143355
H175  H     H_    0.587975 0.471554 0.008961 0.140176
H176  H     H_    0.412485 0.528438 0.989932 0.143807
H177  H     H_    0.912129 0.971398 0.989827 0.138271
H178  H     H_    0.087899 0.028571 0.010189 0.142960
H179  H     H_    0.087883 0.971408 0.010165 0.138272
H180  H     H_    0.912102 0.028561 0.989797 0.142965
H181  H     H_    0.649393 0.612320 0.042825 0.136878
H182  H     H_    0.746324 0.633767 0.126405 0.140122
H183  H     H_    0.351463 0.387482 0.957481 0.139402
H184  H     H_    0.350552 0.612375 0.956917 0.136913
H185  H     H_    0.649217 0.387630 0.042718 0.142695
H186  H     H_    0.149446 0.112346 0.042980 0.136846
H187  H     H_    0.851412 0.887564 0.957798 0.141941
H188  H     H_    0.850406 0.112351 0.956793 0.136896
H189  H     H_    0.148681 0.887565 0.042309 0.141981
H190  H     H_    0.590387 0.640731 0.943632 0.164878
H191  H     H_    0.410256 0.358976 0.056624 0.159752
H192  H     H_    0.409463 0.640694 0.056235 0.164890
O1    O     O_3   0.500000 0.749970 0.000000 -0.482643
O2    O     O_R   0.097640 0.731860 0.963670 -0.648197
O3    O     O_R   0.097640 0.268140 0.963670 -0.648932
O4    O     O_R   0.902360 0.731860 0.036330 -0.648203
O5    O     O_R   0.400350 0.731780 0.861400 -0.634598
O6    O     O_R   0.599650 0.268220 0.138600 -0.632363
O7    O     O_R   0.599650 0.731780 0.138600 -0.634618
O8    O     O_R   0.400350 0.268220 0.861400 -0.631849
O9    O     O_R   0.900350 0.231780 0.861400 -0.634603
O10   O     O_R   0.099650 0.768220 0.138600 -0.632128
O11   O     O_R   0.099650 0.231780 0.138600 -0.634603
O12   O     O_3   0.500000 0.250030 0.000000 -0.483998
O13   O     O_R   0.900350 0.768220 0.861400 -0.632130
O14   O     O_R   0.451490 0.680670 0.963650 -0.618116
O15   O     O_R   0.548510 0.319330 0.036350 -0.617426
O16   O     O_R   0.548510 0.680670 0.036350 -0.618078
O17   O     O_R   0.451490 0.319330 0.963650 -0.618162
O18   O     O_R   0.951490 0.180670 0.963650 -0.618100
O19   O     O_R   0.048510 0.819330 0.036350 -0.617401
O20   O     O_R   0.048510 0.180670 0.036350 -0.618081
O21   O     O_R   0.951490 0.819330 0.963650 -0.617380
O22   O     O_R   0.487790 0.819270 0.036340 -0.648487
O23   O     O_3   0.000000 0.249970 0.000000 -0.482630
O24   O     O_R   0.512210 0.180730 0.963660 -0.648941
O25   O     O_R   0.512210 0.819270 0.963660 -0.648492
O26   O     O_R   0.487790 0.180730 0.036340 -0.648872
O27   O     O_R   0.987790 0.319270 0.036340 -0.648490
O28   O     O_R   0.012210 0.680730 0.963660 -0.648899
O29   O     O_R   0.012210 0.319270 0.963660 -0.648493
O30   O     O_R   0.987790 0.680730 0.036340 -0.648905
O31   O     O_R   0.461070 0.768120 0.861410 -0.649771
O32   O     O_R   0.538930 0.231880 0.138590 -0.651765
O33   O     O_R   0.538930 0.768120 0.138590 -0.649792
O34   O     O_3   0.000000 0.750030 0.000000 -0.484056
O35   O     O_R   0.461070 0.231880 0.861410 -0.651723
O36   O     O_R   0.961070 0.268120 0.861410 -0.649789
O37   O     O_R   0.038930 0.731880 0.138590 -0.651752
O38   O     O_R   0.038930 0.268120 0.138590 -0.649791
O39   O     O_R   0.961070 0.731880 0.861410 -0.651756
O40   O     O_R   0.366040 0.731790 0.963660 -0.629164
O41   O     O_R   0.633960 0.268210 0.036340 -0.630858
O42   O     O_R   0.633960 0.731790 0.036340 -0.629161
O43   O     O_R   0.366040 0.268210 0.963660 -0.631256
O44   O     O_R   0.866040 0.231790 0.963660 -0.629187
O45   O     O_R   0.402360 0.768140 0.036330 -0.648938
O46   O     O_R   0.133960 0.768210 0.036340 -0.630990
O47   O     O_R   0.133960 0.231790 0.036340 -0.629161
O48   O     O_R   0.866040 0.768210 0.963660 -0.630974
O49   O     O_2   0.536298 0.350470 0.131610 -0.665754
O50   O     O_R   0.626135 0.371303 0.154581 -0.809777
O51   O     O_2   0.383620 0.628034 0.846225 -0.636762
O52   O     O_R   0.468884 0.654187 0.869514 -0.844332
O53   O     O_2   0.466088 0.349329 0.870020 -0.667740
O54   O     O_R   0.376294 0.371959 0.841619 -0.814288
O55   O     O_2   0.616355 0.627883 0.153610 -0.636695
O56   O     O_R   0.597640 0.231860 0.963670 -0.648169
O57   O     O_R   0.531087 0.654011 0.130370 -0.844344
O58   O     O_2   0.035328 0.849957 0.131279 -0.666138
O59   O     O_R   0.125077 0.871405 0.155552 -0.809143
O60   O     O_2   0.883718 0.127935 0.846253 -0.636684
O61   O     O_R   0.968967 0.154122 0.869612 -0.844382
O62   O     O_2   0.964698 0.849953 0.868726 -0.666135
O63   O     O_R   0.874945 0.871393 0.844444 -0.809126
O64   O     O_2   0.116251 0.127945 0.153747 -0.636653
O65   O     O_R   0.030987 0.154116 0.130371 -0.844372
O66   O     O_R   0.597640 0.768140 0.963670 -0.648929
O67   O     O_R   0.402360 0.231860 0.036330 -0.648234
O68   O     O_R   0.902360 0.268140 0.036330 -0.648946
Zn1   Zn    Zn3+2 0.517420 0.775920 0.948090 0.963317
Zn2   Zn    Zn3+2 0.569330 0.276000 0.051920 1.014832
Zn3   Zn    Zn3+2 0.569330 0.724000 0.051920 1.012351
Zn4   Zn    Zn3+2 0.430670 0.276000 0.948080 1.014366
Zn5   Zn    Zn3+2 0.930670 0.224000 0.948080 1.012360
Zn6   Zn    Zn3+2 0.069330 0.776000 0.051920 1.014655
Zn7   Zn    Zn3+2 0.069330 0.224000 0.051920 1.012372
Zn8   Zn    Zn3+2 0.930670 0.776000 0.948080 1.014652
Zn9   Zn    Zn3+2 0.482580 0.224080 0.051910 0.963339
Zn10  Zn    Zn3+2 0.482580 0.775920 0.051910 0.963285
Zn11  Zn    Zn3+2 0.517420 0.224080 0.948090 0.963970
Zn12  Zn    Zn3+2 0.017420 0.275920 0.948090 0.963304
Zn13  Zn    Zn3+2 0.982580 0.724080 0.051910 0.963622
Zn14  Zn    Zn3+2 0.982580 0.275920 0.051910 0.963286
Zn15  Zn    Zn3+2 0.017420 0.724080 0.948090 0.963618
Zn16  Zn    Zn3+2 0.430670 0.724000 0.948080 1.012371

loop_
_geom_bond_atom_site_label_1
_geom_bond_atom_site_label_2
_ccdc_geom_bond_type
C101  H192  S    
C198  C206  A    
O27   Zn14  S    
C110  H174  S    
C48   H129  S    
C150  C185  S    
H25   O65   S    
C113  C230  A    
C211  C220  A    
C172  H39   S    
C126  H157  S    
C103  C183  S    
C50   C59   A    
H19   O54   S    
C225  H68   S    
C237  C269  A    
C77   O19   A    
C159  O50   S    
C11   C76   S    
C191  H95   S    
C81   H148  S    
C54   C63   A    
C170  H33   S    
C191  H97   S    
C46   C105  S    
C184  H76   S    
C196  O66   A    
O41   Zn2   S    
C242  C265  A    
C256  O35   A    
C110  C111  A    
C131  C140  A    
C165  O63   S    
C163  O59   S    
C44   C53   A    
C175  H49   S    
C123  C145  A    
C19   C63   A    
C238  C247  A    
C122  C148  S    
C96   C176  S    
C119  O22   A    
C217  C226  A    
C20   C29   A    
C251  O4    A    
C25   C171  S    
C6    C165  S    
C26   C172  S    
C240  C249  S    
O7    Zn3   S    
C122  O30   A    
C29   C175  S    
C152  C187  S    
C24   C154  A    
C57   C116  A    
C222  H35   S    
C2    C152  A    
C158  C193  S    
O48   Zn8   S    
C102  C182  S    
C241  C249  A    
C127  C136  A    
O32   Zn9   S    
O5    Zn16  S    
C37   C91   S    
C226  H181  S    
O1    Zn3   S    
O16   Zn3   S    
C82   C91   A    
C239  C248  A    
C193  H102  S    
C257  O36   A    
C180  H63   S    
C213  C222  A    
O9    Zn5   S    
C189  H93   S    
C115  C118  A    
C229  O46   A    
C231  H186  S    
C192  H99   S    
C100  C181  S    
C241  H108  S    
C189  H94   S    
C7    C166  S    
C205  C214  A    
C135  C232  A    
C224  C233  A    
C184  H77   S    
C129  C138  A    
O1    Zn16  S    
C131  C149  A    
C37   C45   A    
C74   O16   A    
C186  H84   S    
C223  C232  A    
C168  H8    S    
C16   C25   A    
C182  H70   S    
C125  H156  S    
C223  H46   S    
C120  O26   A    
O45   Zn10  S    
O13   Zn8   S    
C190  C202  A    
C109  H173  S    
O34   Zn13  S    
C135  C197  A    
C154  C158  A    
C178  H60   S    
O26   Zn9   S    
O25   Zn1   S    
C171  H38   S    
C200  C209  A    
C52   C61   A    
C209  C217  A    
C238  C268  A    
C75   O15   A    
C99   C180  S    
C80   C88   A    
O42   Zn3   S    
C134  C141  A    
C217  H182  S    
O34   Zn15  S    
C12   C21   A    
C121  C149  S    
C84   C93   A    
C219  H2    S    
H22   O61   S    
C236  H90   S    
C86   C95   A    
C76   O18   A    
C178  H61   S    
C126  C134  A    
C259  O11   A    
C155  C156  A    
C131  H163  S    
C195  H12   S    
C103  C107  A    
O29   Zn12  S    
C129  H161  S    
C47   H128  S    
C24   C156  A    
C176  H54   S    
C57   C118  A    
C78   C87   A    
C2    C150  A    
C151  C186  S    
C20   C64   A    
C215  H160  S    
C123  C132  A    
C113  C194  A    
C15   H113  S    
C174  H47   S    
C128  C137  A    
C40   H121  S    
C72   C85   A    
C129  C149  A    
C133  C142  A    
C112  O56   A    
C225  C234  A    
C193  H104  S    
C78   H146  S    
C53   H134  S    
C252  C269  A    
C17   H115  S    
C24   C143  S    
C40   C49   A    
C16   C60   A    
C13   C144  S    
C169  H29   S    
C233  H188  S    
C8    C270  A    
C69   C82   A    
C151  C262  A    
O35   Zn11  S    
C42   H123  S    
O43   Zn4   S    
C139  C143  A    
C128  H159  S    
C1    O40   A    
C221  C230  A    
C32   C41   A    
C59   C258  S    
C54   H135  S    
C98   C178  S    
C74   O14   A    
C186  H82   S    
C17   C61   A    
C65   C93   A    
C67   C95   A    
C239  C263  A    
C218  O44   A    
O34   Zn8   S    
C212  H127  S    
C126  C145  A    
C7    C11   A    
C161  C272  S    
C235  C267  A    
C62   C255  S    
C171  H36   S    
C124  C231  A    
C161  O53   D    
C211  H116  S    
C181  H65   S    
C1    C247  S    
C203  C264  S    
C18   C62   A    
C200  C263  S    
C66   C92   A    
O21   Zn8   S    
C123  H155  S    
C210  C219  A    
O12   Zn9   S    
C50   H131  S    
C146  C198  A    
C111  H175  S    
C3    C9    A    
C229  O2    A    
C157  H7    S    
C4    C163  S    
C55   H136  S    
C12   H111  S    
C166  O65   S    
C19   C28   A    
C164  O60   D    
C109  C114  A    
C180  H62   S    
O20   Zn7   S    
O36   Zn12  S    
O12   Zn2   S    
C173  H42   S    
C206  C269  S    
C192  H98   S    
C9    C74   S    
C174  H45   S    
C239  H107  S    
C245  C263  A    
C156  C192  S    
C160  O52   S    
C246  C264  A    
C18   H117  S    
C64   C253  S    
C227  H183  S    
C132  C141  A    
C99   C106  A    
O38   Zn14  S    
O56   Zn11  S    
C34   C43   A    
C52   H133  S    
C121  O27   A    
C45   C54   A    
C257  O9    A    
C67   C81   A    
C66   C80   A    
C172  H40   S    
C7    C104  A    
C254  O32   A    
C249  C267  A    
C115  H177  S    
O68   Zn14  S    
C159  O49   D    
C170  H32   S    
C207  C244  S    
C187  H86   S    
C28   C174  S    
C28   C37   A    
C170  H34   S    
O31   Zn1   S    
C199  C208  A    
C30   C39   A    
C185  H78   S    
O23   Zn12  S    
C114  H176  S    
C214  C223  A    
C247  C265  A    
C3    C99   A    
C32   C95   S    
C241  C261  A    
C51   C60   A    
C146  H6    S    
C253  O5    A    
O34   Zn6   S    
C177  H55   S    
O4    Zn13  S    
C25   C33   A    
C67   H140  S    
C206  C215  A    
C96   C105  A    
C167  H28   S    
C84   H152  S    
C196  C245  S    
O66   Zn1   S    
C201  C210  A    
C197  C205  A    
C181  H67   S    
C187  H87   S    
C215  C224  A    
C113  H3    S    
C197  H14   S    
C183  H73   S    
C56   C260  S    
C199  H16   S    
C214  H149  S    
O1    Zn10  S    
O12   Zn11  S    
O23   Zn7   S    
C5    C11   A    
C45   H126  S    
C157  C234  A    
C63   C254  S    
C119  C147  S    
C260  O13   A    
C240  O3    A    
O14   Zn16  S    
C31   C40   A    
C220  C228  A    
O23   Zn14  S    
C136  C142  A    
C57   C108  S    
C180  H64   S    
C166  O64   D    
H21   O59   S    
C179  C201  A    
C150  C153  A    
C253  O31   A    
H17   O50   S    
O12   Zn4   S    
C167  H27   S    
C151  C152  A    
C173  H44   S    
C192  H100  S    
C68   C107  S    
O33   Zn10  S    
C183  H74   S    
C79   H190  S    
C71   H143  S    
C202  C211  A    
C79   C226  A    
C77   O21   A    
C72   H144  S    
C81   C89   A    
C9    C271  A    
C146  C233  A    
C237  H101  S    
C120  C145  S    
C46   C111  A    
C33   C94   S    
C236  C266  A    
O8    Zn4   S    
C243  H110  S    
C162  O55   D    
C121  O29   A    
C130  C139  A    
C185  H81   S    
O30   Zn13  S    
C20   H119  S    
C182  H71   S    
C14   C58   A    
O3    Zn12  S    
C90   H191  S    
C242  C250  A    
C90   C227  A    
C43   H124  S    
C69   C94   A    
C125  C147  A    
C191  H96   S    
C189  H92   S    
C97   C271  A    
C195  C204  A    
O37   Zn13  S    
C208  C268  S    
C171  H37   S    
C184  H75   S    
C185  H80   S    
C60   C257  S    
C122  O28   A    
C260  O39   A    
C175  H50   S    
C97   C177  S    
O22   Zn10  S    
H18   O52   S    
C137  H168  S    
C34   C88   S    
C6    C103  A    
C19   H118  S    
C70   C83   A    
C255  O7    A    
C35   C110  A    
C71   C87   A    
C97   C106  A    
C104  C184  S    
C101  C190  A    
C167  H26   S    
O6    Zn2   S    
C66   H139  S    
O2    Zn15  S    
C33   C42   A    
O67   Zn9   S    
O19   Zn6   S    
C41   C50   A    
C104  C108  A    
C14   H112  S    
C198  H15   S    
C204  C267  S    
C76   O20   A    
C72   C91   A    
C242  H109  S    
C5    C102  A    
C179  H9    S    
C160  C271  S    
C73   H145  S    
C65   C78   A    
C168  C200  A    
C135  H5    S    
C15   C59   A    
C236  C245  A    
O23   Zn5   S    
C128  C148  A    
C140  C144  A    
C174  H48   S    
C44   H125  S    
C6    C10   A    
C69   H141  S    
C153  C188  S    
C27   C36   A    
C21   C30   A    
C216  C225  A    
C21   C167  S    
C58   C259  S    
C98   C272  A    
C23   C32   A    
C127  H158  S    
C193  H103  S    
O18   Zn5   S    
C73   C89   A    
O44   Zn5   S    
C176  H52   S    
C14   C22   A    
C230  H185  S    
C237  C246  A    
C235  H79   S    
C39   H120  S    
C169  H31   S    
C43   C52   A    
C235  C244  A    
C22   C169  S    
C68   C115  A    
C250  C268  A    
C75   O17   A    
C205  C266  S    
C8    C272  A    
C46   C109  A    
O39   Zn15  S    
C258  O10   A    
C138  C144  A    
C142  C262  S    
C219  C227  A    
C216  H171  S    
C186  H83   S    
C39   C48   A    
C182  H69   S    
C80   H147  S    
O11   Zn7   S    
C117  H179  S    
H20   O57   S    
C164  O61   S    
C70   C88   A    
C27   C173  S    
C224  H57   S    
O15   Zn2   S    
C119  O25   A    
C178  H59   S    
C238  H106  S    
C112  C246  S    
C83   C92   A    
C23   C170  S    
C38   C89   S    
C41   H122  S    
C98   C105  A    
C132  H164  S    
C101  C228  A    
C17   C26   A    
C133  H165  S    
C258  O37   A    
C201  C261  S    
C30   C93   S    
C163  O58   D    
C82   H150  S    
C248  C266  A    
C96   C270  A    
C232  H187  S    
C116  C117  A    
C35   C114  A    
C177  H58   S    
C13   C155  A    
C218  O68   A    
C86   H154  S    
C26   C34   A    
C188  H89   S    
C221  H24   S    
C240  O47   A    
C102  C108  A    
C259  O38   A    
C79   C168  A    
C162  O57   S    
C229  C250  S    
C3    C162  S    
C248  C251  S    
C176  H53   S    
C159  C270  S    
C15   C23   A    
C137  C143  A    
C208  C216  A    
C188  H88   S    
C120  O24   A    
C251  O48   A    
C51   H132  S    
C256  O8    A    
C228  H184  S    
C136  H167  S    
O28   Zn15  S    
C10   C77   S    
H23   O63   S    
C49   H130  S    
C212  C221  A    
C36   C87   S    
C22   C31   A    
O40   Zn16  S    
C130  C148  A    
C5    C164  S    
C165  O62   D    
C196  O42   A    
C183  H72   S    
C207  O43   A    
C204  C213  A    
C8    C75   S    
C49   C58   A    
C190  H10   S    
C220  H13   S    
C157  C199  A    
C177  H56   S    
C29   C38   A    
C169  H30   S    
C68   C117  A    
C85   C94   A    
C210  H105  S    
C55   C64   A    
C138  H169  S    
C112  O41   A    
C153  C262  A    
C38   C47   A    
C12   C56   A    
C155  C191  S    
O46   Zn6   S    
C175  H51   S    
C222  C231  A    
C61   C256  S    
C209  H1    S    
C213  H138  S    
C4    C100  A    
C194  H11   S    
C203  C212  A    
C243  C264  A    
O24   Zn11  S    
C4    C10   A    
C13   C158  A    
C47   C55   A    
C71   C84   A    
C125  C133  A    
C48   C56   A    
C90   C179  A    
C100  C107  A    
C65   H137  S    
C243  C252  A    
C130  H162  S    
C218  C252  S    
C161  O54   S    
C154  C189  S    
C18   C27   A    
C181  H66   S    
C207  O67   A    
C118  H180  S    
O10   Zn6   S    
C139  H170  S    
C16   H114  S    
C42   C51   A    
C255  O33   A    
C172  H41   S    
C116  H178  S    
C234  H189  S    
C35   C106  S    
C124  H4    S    
C188  H91   S    
C134  H166  S    
O1    Zn1   S    
C194  C203  A    
C124  C195  A    
O17   Zn4   S    
C1    O45   A    
C202  C265  S    
C85   H153  S    
C73   C86   A    
C36   C44   A    
C140  H172  S    
C53   C62   A    
C31   C92   S    
O47   Zn7   S    
C2    C141  S    
C173  H43   S    
C244  C261  A    
C254  O6    A    
C83   H151  S    
C160  O51   D    
C127  C147  A    
C70   H142  S    
C187  H85   S    
