data_mof_unit_33289.cif
_audit_creation_date              2012-12-10T18:11:40-0500
_audit_creation_method            fapswitch 2.2
_symmetry_space_group_name_H-M    P1
_symmetry_Int_Tables_number       1
_space_group_crystal_system       triclinic
_cell_length_a                    10.665028
_cell_length_b                    12.665118
_cell_length_c                    13.144457
_cell_angle_alpha                 82.206742
_cell_angle_beta                  92.249235
_cell_angle_gamma                 101.911913
_cell_volume                      1721.07784955

loop_
_atom_site_label
_atom_site_type_symbol
_atom_type_description
_atom_site_fract_x
_atom_site_fract_y
_atom_site_fract_z
_atom_type_partial_charge
C1    C     C_R   0.472412 0.439294 0.690088 0.976114
C2    C     C_3   0.061690 0.600273 0.496142 0.441343
C3    C     C_3   0.974968 0.552238 0.590466 -0.299327
C4    C     C_3   0.874640 0.495676 0.516301 -0.270159
C5    C     C_R   0.475584 0.724231 0.052741 -0.279050
C6    C     C_R   0.522908 0.598333 0.197430 -0.287102
C7    C     C_R   0.423078 0.289323 0.837649 0.353485
C8    C     C_R   0.428098 0.260133 0.943799 0.543643
C9    C     C_R   0.444620 0.339702 0.008792 -0.269832
C10   C     C_R   0.448751 0.450075 0.969727 -0.058040
C11   C     C_R   0.423133 0.475972 0.864554 -0.110723
C12   C     C_R   0.740567 0.497357 0.508822 0.945664
C13   C     C_R   0.472915 0.535060 0.032104 -0.010454
C14   C     C_R   0.448387 0.638761 0.992903 -0.038831
C15   C     C_R   0.398959 0.656322 0.893809 -0.212400
C16   C     C_R   0.384539 0.575452 0.830351 0.665004
C17   C     C_R   0.526154 0.521566 0.131136 0.424618
C18   C     C_R   0.516400 0.705650 0.155571 0.379795
C19   C     C_R   0.435269 0.400467 0.797624 -0.308969
C20   C     C_R   0.363246 0.101070 0.321195 0.536424
C21   C     C_R   0.634768 0.792518 0.642846 0.659157
C22   C     C_R   0.635078 0.884508 0.689239 0.455490
C23   C     C_R   0.518642 0.561015 0.308409 0.894655
C24   C     C_R   0.573160 0.964353 0.640739 -0.336935
C25   C     C_R   0.516475 0.955194 0.542417 -0.001024
C26   C     C_R   0.506020 0.854161 0.504944 0.022176
C27   C     C_R   0.467184 0.039437 0.481160 -0.241252
C28   C     C_R   0.406144 0.017937 0.385103 -0.268287
C29   C     C_R   0.389396 0.914474 0.353216 0.530122
C30   C     C_R   0.433696 0.832825 0.417046 -0.127415
C31   C     C_R   0.481837 0.146446 0.507048 0.663795
C32   C     C_R   0.378858 0.202959 0.351490 0.347315
C33   C     C_R   0.257362 0.499314 0.501612 0.899967
C34   C     C_3   0.935151 0.394921 0.534089 0.465665
C35   C     C_3   0.038378 0.451133 0.605653 -0.323417
C36   C     C_3   0.121516 0.498004 0.509469 -0.204774
C37   C     C_3   0.016917 0.441219 0.439836 0.325970
C38   C     C_3   0.960269 0.544499 0.423721 0.242807
H1    H     H_    0.074880 0.416550 0.680381 0.178769
H2    H     H_    0.448224 0.312048 0.089789 0.291095
H3    H     H_    0.570376 0.030455 0.683217 0.280017
H4    H     H_    0.415430 0.753688 0.395120 0.208242
H5    H     H_    0.950053 0.593082 0.654225 0.196682
H6    H     H_    0.372579 0.733185 0.864914 0.168799
H7    H     H_    0.462789 0.804429 0.019824 0.171601
N1    N     N_R   0.432930 0.222190 0.444670 -0.228602
N2    N     N_R   0.566370 0.776980 0.554790 -0.202360
O1    O     O_R   0.467970 0.366730 0.627150 -0.535702
O2    O     O_R   0.510820 0.544830 0.662520 -0.528310
O3    O     O_R   0.664630 0.410960 0.482340 -0.552018
O4    O     O_R   0.707470 0.589060 0.517710 -0.625976
O5    O     O_R   0.489180 0.455170 0.337480 -0.536266
O6    O     O_R   0.532030 0.633270 0.372850 -0.626628
O7    O     O_R   0.292530 0.410940 0.482290 -0.659051
O8    O     O_R   0.335370 0.589040 0.517660 -0.562347
Zn1   Zn    Zn3+2 0.471390 0.381080 0.476380 1.050588
Zn2   Zn    Zn3+2 0.528610 0.618920 0.523620 1.021317
O9    O     O_3   0.596561 0.441702 0.159735 -0.581488
C39   C     C_3   0.720156 0.475370 0.115702 0.073475
H8    H     H_    0.789957 0.494889 0.178080 0.198487
H9    H     H_    0.732555 0.549489 0.057215 0.145356
C40   C     C_3   0.754226 0.383882 0.064960 -0.818553
H10   H     H_    0.702670 0.377312 0.990460 0.263140
H11   H     H_    0.858615 0.401552 0.049579 0.205801
H12   H     H_    0.728410 0.305190 0.115332 0.272731
O10   O     O_3   0.407061 0.209383 0.773485 -0.521807
C41   C     C_3   0.275689 0.158954 0.772483 0.181324
H13   H     H_    0.213759 0.220140 0.753388 0.086194
H14   H     H_    0.247243 0.110918 0.848314 0.179936
C42   C     C_3   0.250871 0.081337 0.691933 -0.807231
H15   H     H_    0.320113 0.026091 0.701437 0.273869
H16   H     H_    0.152426 0.031403 0.700489 0.198894
H17   H     H_    0.259304 0.128134 0.613957 0.228986
F1    F     F_    0.422000 0.154698 0.984036 -0.624467
F2    F     F_    0.323093 0.591617 0.738872 -0.676149
O11   O     O_3   0.364442 0.287758 0.277542 -0.561207
C43   C     C_3   0.236181 0.300247 0.270627 0.231405
H18   H     H_    0.234508 0.379406 0.296517 0.211453
H19   H     H_    0.168096 0.234702 0.317691 0.133053
C44   C     C_3   0.191419 0.307183 0.158874 -0.848048
H20   H     H_    0.204125 0.234607 0.124881 0.304497
H21   H     H_    0.088962 0.312030 0.152698 0.213486
H22   H     H_    0.246129 0.381993 0.114540 0.238391
O12   O     O_3   0.352863 0.901993 0.251977 -0.531699
C45   C     C_3   0.258886 0.807374 0.243393 0.163423
H23   H     H_    0.181817 0.798098 0.299452 0.162912
H24   H     H_    0.301262 0.733663 0.254258 0.142917
C46   C     C_3   0.200719 0.816764 0.135840 -0.738917
H25   H     H_    0.276624 0.849356 0.077985 0.271527
H26   H     H_    0.150400 0.735328 0.118438 0.191818
H27   H     H_    0.132430 0.872768 0.129765 0.256967
F3    F     F_    0.310319 0.086530 0.227082 -0.598902
F4    F     F_    0.553700 0.181202 0.587599 -0.602986
F5    F     F_    0.694926 0.714502 0.689931 -0.636120
O13   O     O_3   0.863914 0.287403 0.555062 -0.547767
C47   C     C_3   0.948280 0.216407 0.587659 0.099567
H28   H     H_    0.001188 0.238121 0.658860 0.128161
H29   H     H_    0.018316 0.217319 0.526794 0.161069
C48   C     C_3   0.871657 0.101388 0.613056 -0.749239
H30   H     H_    0.810996 0.076148 0.546571 0.246155
H31   H     H_    0.937231 0.044016 0.633189 0.194368
H32   H     H_    0.810045 0.098068 0.679939 0.300405
F6    F     F_    0.693025 0.895497 0.782032 -0.641189
O14   O     O_3   0.032517 0.375094 0.365175 -0.666546
C49   C     C_3   0.916771 0.345620 0.309411 0.192192
H33   H     H_    0.932953 0.384488 0.229196 0.159605
H34   H     H_    0.832323 0.371405 0.338177 0.191860
C50   C     C_3   0.880299 0.222699 0.309438 -0.892259
H35   H     H_    0.867716 0.180676 0.388652 0.280875
H36   H     H_    0.787927 0.201674 0.267771 0.227696
H37   H     H_    0.953773 0.192027 0.271412 0.244854
O15   O     O_3   0.920740 0.581445 0.323533 -0.648723
C51   C     C_3   0.896681 0.687415 0.316216 0.095091
H38   H     H_    0.979644 0.745105 0.342151 0.174976
H39   H     H_    0.811677 0.689227 0.361134 0.181619
C52   C     C_3   0.872133 0.727162 0.204265 -0.868429
H40   H     H_    0.772835 0.692623 0.182098 0.243816
H41   H     H_    0.887598 0.817275 0.192052 0.225055
H42   H     H_    0.937284 0.701095 0.153642 0.265239
O16   O     O_3   0.132484 0.708883 0.479778 -0.629904
C53   C     C_3   0.074618 0.776065 0.533342 0.121962
H43   H     H_    0.094015 0.759753 0.617188 0.191037
H44   H     H_    0.969065 0.762727 0.519265 0.137881
C54   C     C_3   0.129393 0.895406 0.499373 -0.913913
H45   H     H_    0.125482 0.913930 0.414508 0.257427
H46   H     H_    0.072922 0.946347 0.532930 0.217703
H47   H     H_    0.229204 0.915517 0.527995 0.269664
O17   O     O_3   0.546734 0.788640 0.217151 -0.596362
C55   C     C_3   0.623894 0.883596 0.164929 0.181900
H48   H     H_    0.562160 0.935178 0.121291 0.212196
H49   H     H_    0.691673 0.864488 0.110956 0.136737
C56   C     C_3   0.703056 0.949031 0.242791 -0.827810
H50   H     H_    0.753567 0.896019 0.296656 0.248846
H51   H     H_    0.775079 0.015813 0.202138 0.214596
H52   H     H_    0.640734 0.985319 0.287479 0.262056

loop_
_geom_bond_atom_site_label_1
_geom_bond_atom_site_label_2
_ccdc_geom_bond_type
C33   O8    A    
C34   C37   S    
C35   C36   S    
O17   C55   S    
C7    C8    A    
C43   H18   S    
C52   H40   S    
C49   H34   S    
C11   C19   A    
C40   H10   S    
C36   C37   S    
C37   C38   S    
C15   H6    S    
C51   H38   S    
C45   H23   S    
C43   C44   S    
C21   F5    S    
C15   C16   A    
C16   F2    S    
C47   C48   S    
C33   C36   S    
O2    Zn2   S    
C50   H35   S    
C34   C35   S    
O14   C49   S    
C53   C54   S    
C40   H11   S    
C18   O17   S    
O12   C45   S    
O13   C47   S    
C52   H41   S    
C8    C9    A    
C31   N1    A    
C47   H29   S    
C42   H15   S    
O4    Zn2   S    
C4    C12   S    
C9    C10   A    
C17   O9    S    
C55   C56   S    
C45   H24   S    
O10   C41   S    
C39   H8    S    
C21   C22   A    
C24   H3    S    
C44   H22   S    
O15   C51   S    
C23   O6    A    
C4    C34   S    
O11   C43   S    
C43   H19   S    
C6    C18   A    
C49   C50   S    
O7    Zn1   S    
C39   H9    S    
C1    C19   S    
C27   C31   A    
C41   H13   S    
C24   C25   A    
C29   O12   S    
C44   H21   S    
O6    Zn2   S    
C56   H50   S    
C5    C18   A    
C20   C28   A    
O9    C39   S    
C31   F4    S    
C5    H7    S    
C9    H2    S    
O3    Zn1   S    
C22   F6    S    
C51   H39   S    
C41   H14   S    
C35   H1    S    
C29   C30   A    
N2    Zn2   S    
C20   F3    S    
C11   C16   A    
C2    C38   S    
C48   H30   S    
C46   H27   S    
C3    C35   S    
C3    H5    S    
C47   H28   S    
C42   H17   S    
C8    F1    S    
C5    C14   A    
C34   O13   S    
C53   H43   S    
C26   N2    A    
C54   H47   S    
C48   H31   S    
C4    C38   S    
C26   C30   A    
C7    C19   A    
O8    Zn2   S    
C22   C24   A    
C38   O15   S    
C3    C4    S    
C12   O4    A    
O16   C53   S    
C54   H46   S    
C55   H48   S    
C20   C32   A    
C45   C46   S    
C2    C36   S    
C33   O7    A    
O1    Zn1   S    
C6    C17   A    
C28   C29   A    
C39   C40   S    
C2    O16   S    
C40   H12   S    
C32   N1    A    
C46   H26   S    
C44   H20   S    
C10   C13   A    
C32   O11   S    
C37   O14   S    
C12   O3    A    
C50   H37   S    
C1    O1    A    
C25   C27   A    
C49   H33   S    
C52   H42   S    
C13   C17   A    
C41   C42   S    
C51   C52   S    
C2    C3    S    
C25   C26   A    
C7    O10   S    
C23   O5    A    
C56   H52   S    
C6    C23   S    
C50   H36   S    
C53   H44   S    
C10   C11   A    
C48   H32   S    
C46   H25   S    
C56   H51   S    
N1    Zn1   S    
C27   C28   A    
C14   C15   A    
C30   H4    S    
C42   H16   S    
C55   H49   S    
C13   C14   A    
C1    O2    A    
O5    Zn1   S    
C54   H45   S    
C21   N2    A    
