data_mof_unit_6529.cif
_audit_creation_date              2012-10-26T18:50:25-0400
_audit_creation_method            fapswitch 2.2
_symmetry_space_group_name_H-M    P1
_symmetry_Int_Tables_number       1
_space_group_crystal_system       triclinic
_cell_length_a                    9.605196
_cell_length_b                    10.939492
_cell_length_c                    15.523752
_cell_angle_alpha                 86.30613
_cell_angle_beta                  73.981339
_cell_angle_gamma                 90.591931
_cell_volume                      1563.90866758

loop_
_atom_site_label
_atom_site_type_symbol
_atom_type_description
_atom_site_fract_x
_atom_site_fract_y
_atom_site_fract_z
_atom_type_partial_charge
C1    C     C_R   0.995097 0.262907 0.510844 0.552690
C2    C     C_R   0.224547 0.437874 0.044849 -0.004169
C3    C     C_R   0.325503 0.462548 0.093147 0.008513
C4    C     C_R   0.918045 0.501049 0.671750 0.542019
C5    C     C_R   0.076025 0.434228 0.089299 -0.072298
C6    C     C_R   0.026770 0.455309 0.180218 0.180187
C7    C     C_R   0.276352 0.455175 0.187698 0.177633
C8    C     C_R   0.231522 0.116924 0.555081 -0.059714
C9    C     C_R   0.368049 0.066370 0.530258 -0.071460
C10   C     C_R   0.387316 0.963185 0.481223 -0.048454
C11   C     C_R   0.267023 0.902618 0.468597 -0.059736
C12   C     C_R   0.671430 0.495832 0.906537 0.042843
C13   C     C_R   0.126139 0.944446 0.502249 -0.008786
C14   C     C_R   0.114317 0.064263 0.530231 0.024668
C15   C     C_R   0.989620 0.128856 0.526702 -0.039692
C16   C     C_R   0.000448 0.738917 0.499819 0.549074
C17   C     C_R   0.863845 0.063317 0.527528 -0.098867
C18   C     C_R   0.864421 0.936615 0.524280 0.217943
C19   C     C_R   0.998060 0.874693 0.505543 0.006758
C20   C     C_R   0.703770 0.656151 0.374195 -0.041449
C21   C     C_R   0.663016 0.728195 0.308987 -0.093924
C22   C     C_R   0.521087 0.724546 0.305847 0.172282
C23   C     C_R   0.763636 0.551534 0.951123 0.045435
C24   C     C_R   0.419369 0.649490 0.368670 -0.056455
C25   C     C_R   0.455894 0.573419 0.435650 0.151993
C26   C     C_R   0.604514 0.575253 0.437030 0.196496
C27   C     C_R   0.545697 0.430082 0.561279 0.019083
C28   C     C_R   0.081787 0.490109 0.328483 0.590954
C29   C     C_R   0.397585 0.431659 0.562111 0.015291
C30   C     C_R   0.871729 0.509937 0.769135 0.021438
C31   C     C_R   0.127495 0.468476 0.231095 0.028115
C32   C     C_R   0.907742 0.584448 0.904753 -0.086441
C33   C     C_R   0.961046 0.565090 0.813850 -0.065735
C34   C     C_R   0.523006 0.469519 0.953062 -0.003478
C35   C     C_R   0.730387 0.472129 0.816008 -0.102796
C36   C     C_R   0.472687 0.490291 0.045709 0.051621
C37   C     C_R   0.566883 0.548701 0.086803 -0.020151
C38   C     C_R   0.709913 0.577849 0.040558 -0.082460
C39   C     C_R   0.421744 0.428252 0.909466 -0.080179
C40   C     C_R   0.274824 0.414970 0.953744 0.236426
Cl1   Cl    Cl    0.692354 0.863861 0.545958 -0.641249
Cl2   Cl    Cl    0.391383 0.385786 0.248116 -0.509618
Cl3   Cl    Cl    0.467583 0.820771 0.226429 -0.599702
Cl4   Cl    Cl    0.837170 0.450366 0.226673 -0.569457
Cl5   Cl    Cl    0.159239 0.361633 0.892670 -0.640636
Cu1   Cu    Cu3+1 0.140660 0.499990 0.500010 0.989598
Cu2   Cu    Cu3+1 0.859340 0.500010 0.499990 1.021593
H1    H     H_    0.778080 0.623522 0.074581 0.153832
H2    H     H_    0.742138 0.788610 0.261653 0.170493
H3    H     H_    0.311486 0.661889 0.366066 0.186771
H4    H     H_    0.319005 0.377553 0.614133 0.117872
H5    H     H_    0.978228 0.627782 0.938345 0.129751
H6    H     H_    0.070704 0.595459 0.778217 0.158117
H7    H     H_    0.668836 0.425003 0.779344 0.111731
H8    H     H_    0.529195 0.578006 0.154144 0.206739
H9    H     H_    0.451186 0.410354 0.839531 0.138270
H10   H     H_    0.996493 0.418129 0.053336 0.210437
H11   H     H_    0.763656 0.110478 0.532017 0.163803
H12   H     H_    0.218106 0.196768 0.593446 0.130212
H13   H     H_    0.459339 0.110368 0.545207 0.133618
H14   H     H_    0.494476 0.929497 0.453056 0.187222
H15   H     H_    0.285564 0.830023 0.426101 0.147006
H16   H     H_    0.577615 0.372635 0.611532 0.107641
H17   H     H_    0.814108 0.668449 0.372851 0.189164
N1    N     N_R   0.648320 0.501210 0.499140 -0.225815
N2    N     N_R   0.352470 0.501290 0.499110 -0.236343
O1    O     O_R   0.118810 0.319640 0.500010 -0.487466
O2    O     O_R   0.881240 0.319660 0.500000 -0.500978
O3    O     O_R   0.055570 0.499980 0.629840 -0.506998
O4    O     O_R   0.818000 0.500010 0.629830 -0.506276
O5    O     O_R   0.118760 0.680340 0.500000 -0.546766
O6    O     O_R   0.881190 0.680360 0.499990 -0.461720
O7    O     O_R   0.182000 0.499990 0.370170 -0.478647
O8    O     O_R   0.944430 0.500020 0.370160 -0.477419

loop_
_geom_bond_atom_site_label_1
_geom_bond_atom_site_label_2
_ccdc_geom_bond_type
C27   C29   A    
C16   O6    A    
C11   H15   S    
C28   O8    A    
C21   H2    S    
C12   C23   A    
C30   C35   A    
C36   C37   A    
Cu1   N2    S    
C3    C7    A    
C8    H12   S    
C5    C6    A    
C1    O2    A    
C18   C19   A    
C7    Cl2   S    
C32   H5    S    
Cu1   O3    S    
C39   H9    S    
C8    C9    A    
C1    C15   S    
C9    C10   A    
C38   H1    S    
C17   H11   S    
C6    C31   A    
C6    Cl4   S    
C13   C14   A    
C35   H7    S    
C33   H6    S    
C16   O5    A    
C28   O7    A    
C4    O4    A    
C4    O3    A    
C24   H3    S    
C40   Cl5   S    
C7    C31   A    
C13   C19   A    
C34   C39   A    
C24   C25   A    
C18   Cl1   S    
C39   C40   A    
C25   C26   A    
C37   H8    S    
C20   H17   S    
Cu2   O4    S    
C37   C38   A    
C27   N1    A    
C22   Cl3   S    
C17   C18   A    
C12   C35   A    
Cu1   O5    S    
C27   H16   S    
C22   C24   A    
C2    C5    A    
C12   C34   A    
Cu2   O2    S    
C29   H4    S    
C15   C17   A    
Cu1   Cu2   S    
C8    C14   A    
C30   C33   A    
C26   N1    A    
C28   C31   S    
C25   N2    A    
Cu2   O8    S    
C23   C38   A    
C5    H10   S    
C9    H13   S    
C23   C32   A    
C2    C3    A    
Cu1   O1    S    
C32   C33   A    
C11   C13   A    
C20   C26   A    
C3    C36   A    
C16   C19   S    
C1    O1    A    
C34   C36   A    
Cu2   O6    S    
C10   C11   A    
C29   N2    A    
C10   H14   S    
C2    C40   A    
C20   C21   A    
C14   C15   A    
C21   C22   A    
Cu2   N1    S    
Cu1   O7    S    
C4    C30   S    
