data_mof_unit_30233.cif
_audit_creation_date              2012-12-10T18:58:12-0500
_audit_creation_method            fapswitch 2.2
_symmetry_space_group_name_H-M    P1
_symmetry_Int_Tables_number       1
_space_group_crystal_system       triclinic
_cell_length_a                    11.003795
_cell_length_b                    10.839946
_cell_length_c                    9.560408
_cell_angle_alpha                 89.486559
_cell_angle_beta                  102.690888
_cell_angle_gamma                 90.834056
_cell_volume                      1112.37354466

loop_
_atom_site_label
_atom_site_type_symbol
_atom_type_description
_atom_site_fract_x
_atom_site_fract_y
_atom_site_fract_z
_atom_type_partial_charge
C1    C     C_R   0.500946 0.262396 0.500744 0.792569
C2    C     C_R   0.509924 0.129310 0.503551 -0.089692
C3    C     C_R   0.527550 0.065951 0.382131 -0.219026
C4    C     C_R   0.525797 0.937607 0.381107 -0.230424
C5    C     C_R   0.508246 0.871050 0.501772 -0.094636
C6    C     C_R   0.503837 0.935031 0.626593 0.117735
C7    C     C_3   0.408312 0.926658 0.715927 -0.464048
C8    C     C_3   0.410361 0.066455 0.718335 -0.484029
C9    C     C_R   0.527083 0.605720 0.078366 0.185444
C10   C     C_R   0.457879 0.400590 0.064674 -0.063874
C11   C     C_R   0.457246 0.400917 0.915850 -0.065767
C12   C     C_R   0.262590 0.495871 0.441894 0.857868
C13   C     C_R   0.528922 0.604646 0.932146 0.176745
C14   C     C_3   0.646070 0.678914 0.953027 -0.546539
C15   C     C_3   0.641088 0.687263 0.110551 0.285562
C16   C     C_R   0.500364 0.737646 0.499707 0.786832
C17   C     C_R   0.737513 0.498610 0.558416 0.734120
C18   C     C_2   0.127224 0.483522 0.410009 -0.388727
C19   C     C_2   0.068716 0.467162 0.517450 -0.141024
C20   C     C_2   0.873952 0.496156 0.592786 0.282826
C21   C     C_2   0.933332 0.463787 0.490519 -0.248549
C22   C     C_R   0.504904 0.062335 0.627696 0.135743
Cu1   Cu    Cu3+1 0.499990 0.499980 0.640670 0.948464
Cu2   Cu    Cu3+1 0.500010 0.500020 0.359330 0.966518
H1    H     H_    0.881782 0.443427 0.382341 0.185532
H2    H     H_    0.450199 0.104017 0.826710 0.188390
H3    H     H_    0.425302 0.319222 0.112133 0.134261
H4    H     H_    0.423479 0.320389 0.852932 0.133935
H5    H     H_    0.725123 0.624125 0.933139 0.224519
H6    H     H_    0.633185 0.769262 0.896548 0.153740
H7    H     H_    0.617037 0.780835 0.140932 0.034551
H8    H     H_    0.120968 0.463224 0.627948 0.222427
H9    H     H_    0.075408 0.488062 0.299436 0.169401
H10   H     H_    0.536992 0.114908 0.285744 0.160384
H11   H     H_    0.532210 0.891341 0.283895 0.149714
H12   H     H_    0.318307 0.886638 0.656407 0.198948
H13   H     H_    0.445190 0.884787 0.823018 0.188936
H14   H     H_    0.321069 0.108126 0.661714 0.197883
N1    N     N_R   0.500780 0.500930 0.148120 -0.163607
N2    N     N_R   0.500790 0.500890 0.852210 -0.168102
O1    O     O_R   0.500000 0.319640 0.618810 -0.584296
O2    O     O_R   0.500010 0.319680 0.381230 -0.595333
O3    O     O_R   0.320680 0.500000 0.575130 -0.584969
O4    O     O_R   0.320690 0.500040 0.337550 -0.575221
O5    O     O_R   0.499990 0.680320 0.618770 -0.579734
O6    O     O_R   0.500000 0.680360 0.381190 -0.586842
O7    O     O_R   0.679310 0.499960 0.662450 -0.557687
O8    O     O_R   0.679320 0.500000 0.424870 -0.552108
O9    O     O_3   0.743468 0.630381 0.202502 -0.566748
C23   C     C_3   0.833952 0.719973 0.265032 0.091198
H15   H     H_    0.883044 0.684097 0.370680 0.158149
H16   H     H_    0.793784 0.809189 0.288800 0.111858
C24   C     C_3   0.929434 0.741402 0.172223 -0.381900
H17   H     H_    0.962948 0.651066 0.143059 0.226476
H18   H     H_    0.884801 0.790793 0.072236 0.206680
C25   C     C_3   0.040828 0.817632 0.251193 -0.907405
H19   H     H_    0.009751 0.908826 0.281130 0.257600
H20   H     H_    0.107484 0.832571 0.180521 0.256289
H21   H     H_    0.089562 0.768445 0.349604 0.253110
O10   O     O_3   0.940433 0.519176 0.731501 -0.604521
C26   C     C_3   0.932356 0.645323 0.765327 0.069747
H22   H     H_    0.941464 0.651061 0.882867 0.162253
H23   H     H_    0.841186 0.687640 0.715227 0.114026
C27   C     C_3   0.039364 0.720111 0.725786 -0.369407
H24   H     H_    0.129808 0.678375 0.778150 0.231433
H25   H     H_    0.030638 0.718365 0.607892 0.211115
C28   C     C_3   0.038236 0.853993 0.773382 -0.924512
H26   H     H_    0.949160 0.897977 0.720694 0.256653
H27   H     H_    0.116141 0.906040 0.742784 0.259177
H28   H     H_    0.049769 0.858680 0.891595 0.259916

loop_
_geom_bond_atom_site_label_1
_geom_bond_atom_site_label_2
_ccdc_geom_bond_type
C10   H3    S    
C2    C22   A    
C26   C27   S    
C8    C22   S    
Cu1   Cu2   S    
C17   O8    A    
C15   H7    S    
C6    C7    S    
Cu1   O5    S    
C20   O10   S    
C8    H2    S    
C7    H12   S    
C23   H16   S    
Cu1   O1    S    
C25   H21   S    
C28   H28   S    
Cu2   O6    S    
C27   H24   S    
Cu2   N1    S    
C6    C22   A    
C15   O9    S    
C2    C3    A    
C7    H13   S    
C4    H11   S    
Cu1   O3    S    
C7    C8    S    
C12   O4    A    
C13   C14   S    
C25   H19   S    
C4    C5    A    
C28   H27   S    
C11   N2    A    
C5    C6    A    
C8    H14   S    
C11   H4    S    
C14   H6    S    
C19   H8    S    
C1    O1    A    
C19   C21   S    
C25   H20   S    
O9    C23   S    
C12   O3    A    
C24   H18   S    
C9    C15   S    
C26   H22   S    
Cu2   O4    S    
C18   H9    S    
C23   C24   S    
Cu1   O7    S    
C10   C11   A    
C16   O5    A    
C12   C18   S    
Cu1   N2    S    
Cu2   O8    S    
C27   C28   S    
C17   O7    A    
C1    O2    A    
C9    N1    A    
C17   C20   S    
Cu2   O2    S    
C20   C21   D    
C1    C2    S    
C24   C25   S    
C16   O6    A    
C26   H23   S    
C9    C13   A    
C14   C15   S    
C18   C19   D    
C13   N2    A    
C21   H1    S    
C14   H5    S    
C3    H10   S    
C23   H15   S    
C24   H17   S    
C10   N1    A    
C3    C4    A    
C28   H26   S    
O10   C26   S    
C5    C16   S    
C27   H25   S    
