data_mof_unit_53406.cif
_audit_creation_date              2012-12-11T17:03:15-0500
_audit_creation_method            fapswitch 2.2
_symmetry_space_group_name_H-M    P1
_symmetry_Int_Tables_number       1
_space_group_crystal_system       triclinic
_cell_length_a                    16.757909
_cell_length_b                    7.127392
_cell_length_c                    15.144322
_cell_angle_alpha                 90.000333
_cell_angle_beta                  94.417445
_cell_angle_gamma                 90.000413
_cell_volume                      1803.46720708

loop_
_atom_site_label
_atom_site_type_symbol
_atom_type_description
_atom_site_fract_x
_atom_site_fract_y
_atom_site_fract_z
_atom_type_partial_charge
O1    O     O_R   0.413460 0.494300 0.415980 -0.534984
O2    O     O_R   0.586540 0.994300 0.584020 -0.534978
O3    O     O_R   0.577100 0.822370 0.413730 -0.538418
O4    O     O_R   0.422900 0.322370 0.586270 -0.538420
C1    C     C_R   0.603829 0.655447 0.393589 0.724565
C2    C     C_R   0.396172 0.155447 0.606411 0.724569
O5    O     O_R   0.413490 0.823910 0.405510 -0.550747
O6    O     O_R   0.586510 0.323910 0.594490 -0.550758
O7    O     O_R   0.421770 0.995890 0.575740 -0.527681
O8    O     O_R   0.578230 0.495890 0.424260 -0.527685
C3    C     C_R   0.387112 0.655133 0.381492 0.696820
C4    C     C_R   0.612889 0.155134 0.618507 0.696821
O9    O     O_3   0.502910 0.661350 0.555860 -0.383099
O10   O     O_3   0.497090 0.161350 0.444140 -0.383103
V1    V     V_3+5 0.499460 0.935550 0.489640 1.382410
V2    V     V_3+5 0.500540 0.435550 0.510360 1.382393
C5    C     C_R   0.729586 0.987170 0.695562 0.052037
C6    C     C_R   0.270414 0.487168 0.304435 0.052039
C7    C     C_R   0.681625 0.146016 0.686761 -0.099238
C8    C     C_R   0.318378 0.646012 0.313235 -0.099238
C9    C     C_R   0.705652 0.299100 0.740550 -0.163188
C10   C     C_R   0.294353 0.799097 0.259447 -0.163176
H1    H     H_    0.670233 0.423577 0.737981 0.131302
H2    H     H_    0.329777 0.923572 0.262013 0.131304
C11   C     C_R   0.772328 0.287100 0.803048 -0.161816
C12   C     C_R   0.227674 0.787102 0.196952 -0.161796
H3    H     H_    0.783423 0.402242 0.848808 0.124554
H4    H     H_    0.216579 0.902244 0.151193 0.124556
C13   C     C_R   0.821427 0.125425 0.809320 -0.127276
C14   C     C_R   0.178571 0.625429 0.190682 -0.127272
C15   C     C_R   0.802434 0.982032 0.747143 0.066041
C16   C     C_R   0.197563 0.482035 0.252859 0.066038
C17   C     C_3   0.794969 0.774441 0.759777 -0.212699
C18   C     C_3   0.205023 0.274443 0.240223 -0.212695
C19   C     C_3   0.708457 0.790705 0.718776 -0.202790
C20   C     C_3   0.291538 0.290703 0.281214 -0.202794
H5    H     H_    0.800514 0.731244 0.830493 0.124983
H6    H     H_    0.199470 0.231242 0.169508 0.124984
H7    H     H_    0.694151 0.703322 0.658803 0.128159
H8    H     H_    0.305851 0.203315 0.341183 0.128160
C21   C     C_1   0.165803 0.120509 0.831134 -0.198117
C22   C     C_1   0.834197 0.620508 0.168866 -0.198117
C23   C     C_1   0.218497 0.128629 0.779793 -0.001101
C24   C     C_1   0.781503 0.628629 0.220207 -0.001098
C25   C     C_1   0.280740 0.138368 0.719629 -0.001883
C26   C     C_1   0.719261 0.638368 0.280371 -0.001879
C27   C     C_1   0.333505 0.146442 0.668376 -0.195543
C28   C     C_1   0.666495 0.646442 0.331624 -0.195541
O11   O     O_R   0.921840 0.772560 0.075830 -0.532721
O12   O     O_R   0.078160 0.272560 0.924170 -0.532722
O13   O     O_R   0.086520 0.441250 0.094510 -0.541684
O14   O     O_R   0.913480 0.941250 0.905490 -0.541682
C29   C     C_R   0.112898 0.610524 0.118635 0.684541
C30   C     C_R   0.887101 0.110523 0.881366 0.684548
O15   O     O_R   0.922920 0.442940 0.086290 -0.530434
O16   O     O_R   0.077080 0.942940 0.913710 -0.530433
O17   O     O_R   0.913440 0.271120 0.915960 -0.546859
O18   O     O_R   0.086560 0.771120 0.084040 -0.546857
C31   C     C_R   0.896730 0.611479 0.106737 0.713451
C32   C     C_R   0.103270 0.111479 0.893263 0.713452
O19   O     O_3   0.997130 0.604020 0.944190 -0.381101
O20   O     O_3   0.002870 0.104020 0.055810 -0.381105
V3    V     V_3+5 0.000530 0.329760 0.010360 1.377944
V4    V     V_3+5 0.999470 0.829760 0.989640 1.377952
C33   C     C_R   0.851236 0.670443 0.701667 0.119575
C34   C     C_R   0.910298 0.552458 0.741573 -0.109759
C35   C     C_R   0.962838 0.454545 0.690966 -0.117545
C36   C     C_R   0.957722 0.475608 0.599096 -0.100521
C37   C     C_R   0.900288 0.595213 0.557984 -0.130870
C38   C     C_R   0.847562 0.692747 0.608621 -0.116366
H9    H     H_    0.914887 0.535509 0.812070 0.150077
H10   H     H_    0.007525 0.362473 0.723089 0.108333
H11   H     H_    0.998429 0.399997 0.559836 0.110753
H12   H     H_    0.896643 0.612689 0.486778 0.111303
H13   H     H_    0.804214 0.785288 0.574681 0.102071
C39   C     C_R   0.148761 0.170441 0.298338 0.119579
C40   C     C_R   0.089694 0.052463 0.258435 -0.109783
C41   C     C_R   0.037161 0.954542 0.309048 -0.117551
C42   C     C_R   0.042291 0.975582 0.400921 -0.100510
C43   C     C_R   0.099731 0.095178 0.442030 -0.130869
C44   C     C_R   0.152448 0.192727 0.391386 -0.116361
H14   H     H_    0.085095 0.035525 0.187937 0.150082
H15   H     H_    0.992469 0.862477 0.276927 0.108333
H16   H     H_    0.001591 0.899959 0.440186 0.110746
H17   H     H_    0.103389 0.112633 0.513238 0.111305
H18   H     H_    0.195802 0.285260 0.425324 0.102068
C45   C     C_R   0.644345 0.784929 0.786185 0.109459
C46   C     C_R   0.654813 0.873253 0.869932 -0.108301
C47   C     C_R   0.594238 0.868993 0.928458 -0.130556
C48   C     C_R   0.522334 0.776820 0.904824 -0.099113
C49   C     C_R   0.510976 0.688552 0.822629 -0.127847
C50   C     C_R   0.571371 0.693042 0.763944 -0.136974
H19   H     H_    0.709499 0.945513 0.890965 0.110287
H20   H     H_    0.603146 0.937293 0.992310 0.109050
H21   H     H_    0.475571 0.773293 0.950287 0.110949
H22   H     H_    0.455414 0.615889 0.804378 0.114432
H23   H     H_    0.561779 0.620787 0.701803 0.146136
C51   C     C_R   0.355642 0.284931 0.213795 0.109466
C52   C     C_R   0.345154 0.373207 0.130040 -0.108287
C53   C     C_R   0.405718 0.368939 0.071502 -0.130553
C54   C     C_R   0.477634 0.276817 0.095134 -0.099112
C55   C     C_R   0.489014 0.188607 0.177339 -0.127851
C56   C     C_R   0.428627 0.193095 0.236035 -0.137001
H24   H     H_    0.290460 0.445434 0.109008 0.110269
H25   H     H_    0.396793 0.437195 0.007643 0.109053
H26   H     H_    0.524390 0.273287 0.049662 0.110942
H27   H     H_    0.544585 0.115988 0.195589 0.114435
H28   H     H_    0.438235 0.120886 0.298183 0.146136

loop_
_geom_bond_atom_site_label_1
_geom_bond_atom_site_label_2
_ccdc_geom_bond_type
C45   C46   A    
C54   C55   A    
O15   C31   A    
O1    C3    A    
O2    C4    A    
C2    O7    A    
C17   C33   S    
C48   H21   S    
C40   C41   A    
O5    C3    A    
C53   H25   S    
C43   H17   S    
C10   H2    S    
C7    C9    A    
C42   H16   S    
C13   C30   S    
C51   C56   A    
C51   C52   A    
C35   H10   S    
C47   H20   S    
C17   C19   S    
C49   H22   S    
C19   C45   S    
C41   H15   S    
C52   C53   A    
O14   C30   A    
C36   C37   A    
O15   V3    S    
O16   V4    S    
C56   H28   S    
C18   C20   S    
C44   H18   S    
O5    V1    S    
C52   H24   S    
O6    V2    S    
O11   V4    S    
C45   C50   A    
C11   C13   A    
O12   V3    S    
C21   C23   T    
C55   C56   A    
C22   C24   T    
C14   C29   S    
C24   C26   S    
C50   H23   S    
O17   V3    S    
C25   C27   T    
O18   V4    S    
C1    C28   S    
C26   C28   T    
C3    C8    S    
C2    C27   S    
C35   C36   A    
C37   H12   S    
O13   V3    S    
C39   C40   A    
O4    C2    A    
O14   V4    S    
C49   C50   A    
C41   C42   A    
C36   H11   S    
C17   H5    S    
O16   C32   A    
O13   C29   A    
C16   C18   S    
O4    V2    S    
O19   V4    S    
C19   H7    S    
O20   V3    S    
C34   H9    S    
C20   H8    S    
O6    C4    A    
C15   C17   S    
C55   H27   S    
O1    V2    S    
O2    V1    S    
C23   C25   S    
C8    C10   A    
C12   C14   A    
O9    V1    S    
C5    C15   A    
O10   V2    S    
O9    V2    S    
C6    C16   A    
O3    V1    S    
C54   H26   S    
C9    C11   A    
C46   H19   S    
C18   H6    S    
C21   C32   S    
C43   C44   A    
O3    C1    A    
C39   C44   A    
C29   O18   A    
C11   H3    S    
C12   H4    S    
O11   C31   A    
O12   C32   A    
C9    H1    S    
O7    V1    S    
C1    O8    A    
C13   C15   A    
O8    V2    S    
C14   C16   A    
C48   C49   A    
C40   H14   S    
C4    C7    S    
C53   C54   A    
C5    C7    A    
C34   C35   A    
C6    C8    A    
C37   C38   A    
C42   C43   A    
C46   C47   A    
C33   C34   A    
C10   C12   A    
C22   C31   S    
C38   H13   S    
O10   V1    S    
C20   C51   S    
C5    C19   S    
C47   C48   A    
C6    C20   S    
C33   C38   A    
C18   C39   S    
C30   O17   A    
