data_mof_unit_66631.cif
_audit_creation_date              2013-03-05T15:41:06-0500
_audit_creation_method            fapswitch 2.2
_symmetry_space_group_name_H-M    P1
_symmetry_Int_Tables_number       1
_space_group_crystal_system       triclinic
_cell_length_a                    8.41042
_cell_length_b                    14.390369
_cell_length_c                    15.295331
_cell_angle_alpha                 93.966828
_cell_angle_beta                  99.942361
_cell_angle_gamma                 91.070879
_cell_volume                      1818.12573711

loop_
_atom_site_label
_atom_site_type_symbol
_atom_site_description
_atom_site_fract_x
_atom_site_fract_y
_atom_site_fract_z
_atom_type_partial_charge
P1    P     P_3+3 0.947560 0.714050 0.560480 0.443843
O1    O     O_2   0.113690 0.728200 0.532750 -0.347761
O2    O     O_3   0.871900 0.612110 0.540440 -0.451856
O3    O     O_3   0.325660 0.668890 0.372600 -0.337483
O4    O     O_2   0.251645 0.828605 0.443535 -0.399409
O5    O     O_3   0.996035 0.743082 0.675091 -0.607666
O6    O     O_3   0.242645 0.838969 0.277083 -0.604310
C1    C     C_3   0.170211 0.856989 0.121159 0.687011
H1    H     H_    0.045424 0.832975 0.121711 0.060181
P2    P     P_3+3 0.325150 0.423860 0.297970 0.599286
P3    P     P_3+3 0.854875 0.625874 0.216228 0.519023
O7    O     O_2   0.147570 0.451710 0.282630 -0.283429
O8    O     O_3   0.905540 0.621350 0.329600 -0.376428
O9    O     O_2   0.992085 0.574565 0.180443 -0.351543
O10   O     O_3   0.309169 0.302267 0.276845 -0.567889
O11   O     O_3   0.885430 0.741260 0.193465 -0.551310
C2    C     C_3   0.851313 0.801870 0.263610 0.258901
H2    H     H_    0.942528 0.795995 0.324744 0.151090
H3    H     H_    0.729583 0.785491 0.278298 0.115285
C3    C     C_3   0.858055 0.902049 0.236077 -0.048748
H4    H     H_    0.984481 0.928940 0.250538 0.218367
H5    H     H_    0.812997 0.904806 0.163375 0.137979
C4    C     C_3   0.787367 0.252840 0.248732 1.560847
C5    C     C_3   0.816039 0.163487 0.189507 -1.060012
H6    H     H_    0.735645 0.105539 0.201245 0.258582
H7    H     H_    0.794324 0.170652 0.116934 0.209048
H8    H     H_    0.942620 0.141498 0.207787 0.257014
Ba1   Ba    Ba6+2 0.142880 0.544780 0.454020 1.595425
C6    C     C_3   0.031512 0.663349 0.720906 0.371250
H9    H     H_    0.139392 0.630628 0.701232 0.062201
H10   H     H_    0.928117 0.612658 0.706894 0.144638
C7    C     C_3   0.064540 0.692871 0.820174 -0.096188
H11   H     H_    0.187213 0.726695 0.838295 0.146534
H12   H     H_    0.973594 0.743756 0.835949 0.165882
C8    C     C_3   0.326642 0.256358 0.355570 1.019624
H13   H     H_    0.416952 0.290438 0.409717 0.106715
C9    C     C_3   0.381193 0.157190 0.337877 -1.106737
H14   H     H_    0.295338 0.119785 0.283018 0.260409
H15   H     H_    0.383811 0.118997 0.398529 0.250529
H16   H     H_    0.502796 0.158088 0.319489 0.271921
P4    P     P_3+3 0.862730 0.285940 0.439440 0.477864
O12   O     O_2   0.696600 0.271740 0.467230 -0.403718
O13   O     O_3   0.938380 0.387880 0.459490 -0.440519
O14   O     O_3   0.484630 0.331100 0.627330 -0.359803
O15   O     O_3   0.821203 0.220187 0.334638 -0.651034
P5    P     P_3+3 0.958558 0.380953 0.785941 0.545345
O16   O     O_3   0.389110 0.548970 0.605210 -0.397755
O17   O     O_3   0.904740 0.378630 0.670330 -0.339829
O18   O     O_2   0.843756 0.451226 0.820148 -0.362262
O19   O     O_3   0.894355 0.276451 0.823498 -0.536980
Ba2   Ba    Ba6+2 0.667290 0.455210 0.545900 1.613282
P6    P     P_3+3 0.348890 0.790742 0.372790 0.483485
C10   C     C_3   0.281139 0.804178 0.194266 1.198403
O20   O     O_3   0.421180 0.451020 0.394720 -0.408239
C11   C     C_3   0.547422 0.739178 0.656012 0.466142
H17   H     H_    0.674001 0.719672 0.655302 0.084440
H18   H     H_    0.469475 0.713799 0.592182 0.116279
C12   C     C_3   0.540131 0.844667 0.664324 -1.017831
H19   H     H_    0.609432 0.872888 0.729538 0.266733
H20   H     H_    0.592183 0.875241 0.610676 0.226901
H21   H     H_    0.412085 0.864564 0.658445 0.260100
P7    P     P_3+3 0.483180 0.582086 0.714860 0.433749
O21   O     O_2   0.662730 0.548230 0.717350 -0.368173
O22   O     O_3   0.493412 0.703794 0.729320 -0.572439
C13   C     C_3   0.003080 0.204401 0.815250 1.239648
C14   C     C_3   0.923967 0.112550 0.835552 0.087885
H22   H     H_    0.813625 0.097018 0.785480 0.152325
H23   H     H_    0.883745 0.121765 0.901485 0.024696
P8    P     P_3+3 0.459680 0.209489 0.623583 0.472078
C15   C     C_3   0.493292 0.189590 0.796172 0.989732
H24   H     H_    0.379918 0.228926 0.779290 -0.034313
O23   O     O_2   0.555716 0.170224 0.553246 -0.396314
O24   O     O_3   0.562252 0.164044 0.720466 -0.565092
H25   H     H_    0.398395 0.119525 0.898640 0.156487
C16   C     C_3   0.453680 0.100784 0.839258 -0.097130
H26   H     H_    0.566876 0.064070 0.863247 0.095987
C17   C     C_R   0.015758 0.941665 0.546888 -0.085049
C18   C     C_R   0.821456 0.804632 0.501085 0.226247
C19   C     C_R   0.669549 0.773181 0.454838 -0.510841
C20   C     C_R   0.555584 0.835048 0.417981 0.287971
C21   C     C_R   0.593014 0.930454 0.425451 -0.261188
C22   C     C_R   0.747206 0.965335 0.466782 0.121931
C23   C     C_R   0.863235 0.902989 0.506144 -0.042256
H27   H     H_    0.635950 0.699932 0.451639 0.200603
C24   C     C_R   0.937505 0.101048 0.508144 -0.051997
C25   C     C_R   0.054172 0.038194 0.546268 0.079306
C26   C     C_R   0.979616 0.199840 0.511760 0.376984
C27   C     C_R   0.133221 0.230477 0.556111 -0.286464
C28   C     C_R   0.250602 0.167053 0.585588 0.166063
C29   C     C_R   0.211913 0.071739 0.579960 -0.241152
C30   C     C_R   0.785907 0.061733 0.466707 -0.017292
H28   H     H_    0.502255 0.977060 0.397029 0.152969
H29   H     H_    0.305675 0.023634 0.601256 0.157456
H30   H     H_    0.167655 0.303631 0.558985 0.155548
H31   H     H_    0.107135 0.897215 0.578565 0.175159
H32   H     H_    0.696428 0.104997 0.432558 0.176934
C31   C     C_R   0.250572 0.464800 0.765767 -0.409355
C32   C     C_R   0.166881 0.426589 0.826277 0.330207
C33   C     C_R   0.230389 0.437635 0.917486 -0.298757
C34   C     C_R   0.358256 0.503647 0.952144 0.165442
C35   C     C_R   0.420071 0.553577 0.887317 -0.254036
C36   C     C_R   0.380415 0.526854 0.796181 0.226270
C37   C     C_R   0.585209 0.561150 0.083745 0.340560
C38   C     C_R   0.650376 0.569651 0.174663 0.003163
C39   C     C_R   0.416840 0.485265 0.210176 0.180943
C40   C     C_R   0.344584 0.482467 0.119345 0.265743
C41   C     C_R   0.428345 0.517592 0.052548 -0.241443
C42   C     C_R   0.563701 0.533820 0.236099 0.086941
H33   H     H_    0.175937 0.393712 0.958528 0.180671
H34   H     H_    0.494050 0.615771 0.903776 0.199081
H35   H     H_    0.206990 0.452111 0.695032 0.143123
O25   O     O_3   0.239139 0.708430 0.180249 -0.787362
H36   H     H_    0.331689 0.673818 0.209523 0.316122
O26   O     O_3   0.053194 0.615136 0.868763 -0.756936
H37   H     H_    0.097112 0.635239 0.931670 0.318021
O27   O     O_3   0.178890 0.253390 0.383694 -0.792105
H38   H     H_    0.105739 0.213892 0.337723 0.332503
O28   O     O_3   0.448464 0.820854 0.193512 -0.725464
C43   C     C_3   0.494251 0.788338 0.111978 -0.351029
H39   H     H_    0.497779 0.846426 0.068445 0.195393
H40   H     H_    0.418966 0.728928 0.075647 0.192464
H41   H     H_    0.616996 0.763191 0.124742 0.231024
O29   O     O_3   0.195797 0.835731 0.033656 -0.838620
H42   H     H_    0.149492 0.772160 0.015070 0.286904
O30   O     O_3   0.168881 0.954647 0.141451 -0.647822
C44   C     C_3   0.309768 0.001713 0.127686 -0.204916
H43   H     H_    0.348816 0.979263 0.064067 0.163071
H44   H     H_    0.408385 0.995973 0.184930 0.161602
H45   H     H_    0.281950 0.076353 0.123943 0.143607
O31   O     O_3   0.769263 0.960657 0.284173 -0.757160
H46   H     H_    0.655330 0.953206 0.254051 0.348593
O32   O     O_3   0.033901 0.195211 0.728031 -0.783683
H47   H     H_    0.120012 0.149510 0.727818 0.343566
O33   O     O_3   0.147724 0.223434 0.875754 -0.871871
H48   H     H_    0.119427 0.230875 0.936203 0.267295
O34   O     O_3   0.027773 0.037363 0.827223 -0.592077
C45   C     C_3   0.077192 0.000329 0.909960 0.030564
H49   H     H_    0.972940 0.967270 0.933234 0.118081
H50   H     H_    0.137494 0.054922 0.960369 0.103486
H51   H     H_    0.166010 0.945883 0.901613 0.195811
O35   O     O_3   0.613552 0.239706 0.858407 -0.636219
C46   C     C_3   0.549085 0.313707 0.903982 -0.280110
H52   H     H_    0.446296 0.290089 0.934657 0.138688
H53   H     H_    0.514120 0.368649 0.857991 0.181651
H54   H     H_    0.644195 0.343456 0.958417 0.167619
O36   O     O_3   0.345341 0.041845 0.779894 -0.721260
H55   H     H_    0.411804 0.999629 0.748432 0.337764
O37   O     O_3   0.664501 0.611018 0.029628 -0.646275
C47   C     C_3   0.781584 0.557203 0.996015 -0.054681
H56   H     H_    0.783555 0.482942 0.012003 0.072530
H57   H     H_    0.901902 0.590691 0.020192 0.173036
H58   H     H_    0.759489 0.560444 0.923189 0.202261
O38   O     O_3   0.186664 0.452876 0.099756 -0.751966
H59   H     H_    0.129744 0.498435 0.060783 0.329044
O39   O     O_3   0.619751 0.550983 0.324567 -0.641099
C48   C     C_3   0.724477 0.479907 0.350198 0.191215
H60   H     H_    0.813919 0.465496 0.306221 0.124876
H61   H     H_    0.661367 0.413553 0.355339 0.111737
H62   H     H_    0.791633 0.506860 0.414417 0.214673
O40   O     O_3   0.625613 0.285704 0.234394 -0.695774
C49   C     C_3   0.529466 0.253160 0.151801 -0.412383
H63   H     H_    0.493831 0.179012 0.152890 0.174346
H64   H     H_    0.588362 0.263562 0.093771 0.136930
H65   H     H_    0.417727 0.292968 0.140120 0.229994
O41   O     O_3   0.900293 0.323970 0.239948 -0.646649
C50   C     C_3   0.864660 0.359258 0.154835 -0.248331
H66   H     H_    0.745305 0.391614 0.143162 0.087744
H67   H     H_    0.880181 0.307742 0.100034 0.134299
H68   H     H_    0.950831 0.414932 0.151234 0.266845

loop_
_geom_bond_atom_site_label_1
_geom_bond_atom_site_label_2
_geom_bond_distance
_ccdc_geom_bond_type
C14   H23   1.118036 S    
C11   H17   1.107691 S    
Ba1   O16   2.821748 S    
C35   C36   1.400964 A    
C4    O15   1.410519 S    
C20   C21   1.395279 A    
P4    O12   1.543079 D    
C8    H13   1.102719 S    
C5    H8    1.110734 S    
C38   C42   1.403487 A    
C26   C27   1.399360 A    
C13   O32   1.400238 S    
O16   P7    1.755831 S    
O26   H37   0.990303 S    
C24   C30   1.411309 A    
O29   H42   0.990886 S    
C24   C25   1.424598 A    
C45   H50   1.111374 S    
P5    O18   1.538296 D    
O41   C50   1.415937 S    
O7    Ba1   2.866935 S    
O2    Ba1   2.970806 S    
C8    C9    1.527803 S    
C9    H14   1.108583 S    
C5    H7    1.105746 S    
O6    P6    1.770621 S    
C6    C7    1.524367 S    
P2    O10   1.755602 S    
C47   H57   1.104924 S    
C19   H27   1.081799 S    
C31   H35   1.082341 S    
Ba1   Ba2   4.651305 S    
O11   C2    1.407254 S    
C40   C41   1.449921 A    
C17   C23   1.411715 A    
C12   H20   1.106950 S    
C33   H33   1.070825 S    
C2    C3    1.532315 S    
O27   H38   0.989064 S    
P1    O1    1.542576 D    
O28   C43   1.419271 S    
P7    O22   1.748712 S    
O3    Ba1   2.823117 S    
C30   H32   1.074027 S    
C4    O41   1.412289 S    
C21   H28   1.079983 S    
O35   C46   1.401178 S    
C18   C23   1.445567 A    
O17   Ba2   2.807990 S    
O32   H47   0.987599 S    
C15   O35   1.412274 S    
P1    Ba1   3.436264 S    
C4    C5    1.567777 S    
O8    Ba1   2.807279 S    
P8    O24   1.755422 S    
C15   H24   1.118785 S    
C6    H9    1.107308 S    
C13   O33   1.405374 S    
O12   Ba2   2.857714 S    
C12   H21   1.109719 S    
C43   H40   1.110479 S    
C14   H22   1.104925 S    
P5    C32   1.846449 S    
C11   O22   1.403255 S    
C50   H67   1.106620 S    
P1    C18   1.879390 S    
P4    O13   1.576801 S    
C46   H54   1.106468 S    
P8    C28   1.833203 S    
O10   C8    1.400196 S    
O25   H36   0.989675 S    
C49   H64   1.105907 S    
C37   O37   1.378318 S    
C31   C32   1.391150 A    
C27   H30   1.082506 S    
C24   C26   1.453668 A    
C16   O36   1.397467 S    
P4    C26   1.893356 S    
C45   H51   1.108662 S    
P5    O17   1.745783 S    
H25   C16   1.109275 S    
P1    O5    1.749091 S    
C8    O27   1.384277 S    
Ba2   O21   2.867256 S    
C5    H6    1.107407 S    
C25   C29   1.401499 A    
C47   H58   1.101595 S    
P3    O9    1.539648 D    
O2    Ba2   2.827841 S    
C18   C19   1.399814 A    
C1    H1    1.100393 S    
O16   Ba2   2.966264 S    
C44   H45   1.106782 S    
C12   H19   1.110827 S    
C17   H31   1.080371 S    
C21   C22   1.407839 A    
C22   C30   1.419067 A    
P1    O2    1.576823 S    
C7    H12   1.113419 S    
P8    O23   1.536906 D    
C16   H26   1.115842 S    
P7    O21   1.590406 D    
P3    O11   1.743350 S    
C33   C34   1.426607 A    
C40   O38   1.363430 S    
C4    O40   1.434526 S    
C3    H4    1.104914 S    
C15   O24   1.411871 S    
C2    H2    1.111610 S    
O14   P8    1.754468 S    
O4    P6    1.541852 D    
C39   C42   1.389728 A    
O37   C47   1.407819 S    
P3    C38   1.875143 S    
P2    O7    1.536444 D    
C14   O34   1.415532 S    
O14   Ba2   2.822589 S    
C3    H5    1.114854 S    
C17   C25   1.421312 A    
C22   C23   1.422768 A    
C11   H18   1.112215 S    
C50   H66   1.106086 S    
C46   H53   1.104815 S    
O6    C10   1.421257 S    
C28   C29   1.397101 A    
C37   C38   1.399992 A    
C49   H65   1.104339 S    
C10   O25   1.408535 S    
C29   H29   1.081695 S    
O36   H55   0.989052 S    
C45   H49   1.112410 S    
C43   H41   1.090376 S    
P2    Ba1   3.444333 S    
C48   H60   1.105698 S    
C34   C41   1.544828 S    
C44   H44   1.105961 S    
C10   O28   1.425314 S    
C48   H62   1.087099 S    
C31   C36   1.391763 A    
C3    O31   1.391961 S    
O34   C45   1.406475 S    
C1    C10   1.575482 S    
C37   C41   1.439244 A    
C43   H39   1.107205 S    
C1    O29   1.405864 S    
O33   H48   0.993076 S    
C9    H16   1.106610 S    
C39   C40   1.414517 A    
P5    O19   1.754797 S    
Ba1   O13   2.827316 S    
Ba2   O20   2.821045 S    
C7    H11   1.114462 S    
C48   H61   1.097957 S    
O31   H46   0.989359 S    
C35   H34   1.070261 S    
Ba1   O20   2.967060 S    
C6    H10   1.106593 S    
C49   H63   1.104919 S    
C47   H56   1.112424 S    
O40   C49   1.421400 S    
P3    O8    1.718799 S    
O13   Ba2   2.971509 S    
O30   C44   1.408183 S    
C42   O39   1.357710 S    
C44   H43   1.109018 S    
C34   C35   1.425601 A    
C2    H3    1.109916 S    
C32   C33   1.402005 A    
O3    P6    1.760459 S    
P2    O20   1.578100 S    
O19   C13   1.408650 S    
C19   C20   1.394229 A    
C1    O30   1.418745 S    
O5    C6    1.395860 S    
C27   C28   1.395633 A    
C15   C16   1.534556 S    
C50   H68   1.080896 S    
C9    H15   1.107750 S    
C13   C14   1.543206 S    
C11   C12   1.517823 S    
O39   C48   1.394830 S    
P4    O15   1.780821 S    
C46   H52   1.110927 S    
P2    C39   1.917030 S    
O1    Ba1   2.857233 S    
C7    O26   1.395817 S    
O38   H59   0.990752 S    
P6    C20   1.840904 S    
P4    Ba2   3.436843 S    
P7    C36   1.846131 S    
