data_mof_unit_42597.cif
_audit_creation_date              2012-12-11T15:26:34-0500
_audit_creation_method            fapswitch 2.2
_symmetry_space_group_name_H-M    P1
_symmetry_Int_Tables_number       1
_space_group_crystal_system       triclinic
_cell_length_a                    7.237639
_cell_length_b                    12.141681
_cell_length_c                    28.726976
_cell_angle_alpha                 90.024995
_cell_angle_beta                  89.580836
_cell_angle_gamma                 89.964256
_cell_volume                      2524.37516425

loop_
_atom_site_label
_atom_site_type_symbol
_atom_type_description
_atom_site_fract_x
_atom_site_fract_y
_atom_site_fract_z
_atom_type_partial_charge
O1    O     O_R   0.647170 0.849180 0.201220 -0.535468
O2    O     O_R   0.352830 0.150820 0.798780 -0.536995
O3    O     O_R   0.352830 0.150820 0.701220 -0.534123
O4    O     O_R   0.647170 0.849180 0.298780 -0.535496
O5    O     O_R   0.147170 0.650820 0.298780 -0.535453
O6    O     O_R   0.852830 0.349180 0.701220 -0.533621
O7    O     O_R   0.852830 0.349180 0.798780 -0.536020
O8    O     O_R   0.147170 0.650820 0.201220 -0.535583
O9    O     O_R   0.317430 0.862210 0.298450 -0.537890
O10   O     O_R   0.682570 0.137790 0.701550 -0.538432
O11   O     O_R   0.682570 0.137790 0.798450 -0.536811
O12   O     O_R   0.317430 0.862210 0.201550 -0.538165
O13   O     O_R   0.817430 0.637790 0.201550 -0.538187
O14   O     O_R   0.182570 0.362210 0.798450 -0.536468
O15   O     O_R   0.182570 0.362210 0.701550 -0.537789
O16   O     O_R   0.817430 0.637790 0.298450 -0.539148
H1    H     H_    0.828279 0.232141 0.455425 0.182802
H2    H     H_    0.895346 0.778339 0.545902 0.148615
H3    H     H_    0.077682 0.780727 0.954752 0.171986
H4    H     H_    0.196822 0.237940 0.045253 0.174898
H5    H     H_    0.694704 0.262391 0.045341 0.174896
H6    H     H_    0.587708 0.719406 0.954756 0.146650
H7    H     H_    0.396647 0.721022 0.545871 0.148250
H8    H     H_    0.319707 0.266463 0.456077 0.175997
C1    C     C_R   0.484934 0.887991 0.313538 0.690586
C2    C     C_R   0.514527 0.111939 0.686520 0.690879
C3    C     C_R   0.514031 0.112176 0.813543 0.690768
C4    C     C_R   0.486486 0.888081 0.186550 0.690348
C5    C     C_R   0.986556 0.611892 0.186564 0.690241
C6    C     C_R   0.013903 0.387876 0.813516 0.693065
C7    C     C_R   0.014470 0.387856 0.686462 0.692612
C8    C     C_R   0.985150 0.611937 0.313458 0.689914
H9    H     H_    0.015091 0.609313 0.692837 0.125345
H10   H     H_    0.949598 0.391858 0.307316 0.095545
H11   H     H_    0.050154 0.394716 0.193289 0.089236
H12   H     H_    0.989242 0.608130 0.807218 0.107538
H13   H     H_    0.496916 0.891142 0.807065 0.121581
H14   H     H_    0.549720 0.105261 0.193354 0.088742
H15   H     H_    0.441437 0.106724 0.307380 0.090359
H16   H     H_    0.514909 0.890354 0.692964 0.125684
H17   H     H_    0.005266 0.342903 0.596717 0.131537
H18   H     H_    0.029779 0.654958 0.403104 0.126451
H19   H     H_    0.949354 0.652836 0.096680 0.127724
H20   H     H_    0.013086 0.342584 0.903274 0.129133
H21   H     H_    0.509791 0.157071 0.903498 0.129842
H22   H     H_    0.449187 0.847270 0.096609 0.126945
H23   H     H_    0.532098 0.845542 0.403241 0.125766
H24   H     H_    0.506000 0.156442 0.596766 0.130815
O17   O     O_3   0.480630 0.680630 0.250000 -0.376085
O18   O     O_3   0.519370 0.319370 0.750000 -0.373310
O19   O     O_3   0.980630 0.819370 0.250000 -0.375414
O20   O     O_3   0.019370 0.180630 0.750000 -0.375841
V1    V     V_3+5 0.205800 0.762860 0.250000 1.416700
V2    V     V_3+5 0.794200 0.237140 0.750000 1.432622
V3    V     V_3+5 0.705800 0.737140 0.250000 1.414672
V4    V     V_3+5 0.294200 0.262860 0.750000 1.434366
C9    C     C_R   0.986643 0.532445 0.351832 -0.062670
C10   C     C_R   0.004071 0.467383 0.648191 -0.100522
C11   C     C_R   0.008197 0.467229 0.851940 -0.070260
C12   C     C_R   0.001300 0.532442 0.148283 -0.071380
C13   C     C_R   0.501042 0.967568 0.148288 -0.070921
C14   C     C_R   0.508993 0.032689 0.851914 -0.094963
C15   C     C_R   0.504337 0.032185 0.648291 -0.100584
C16   C     C_R   0.485347 0.967617 0.351966 -0.062075
C17   C     C_R   0.920372 0.348143 0.379639 0.231208
C18   C     C_R   0.973291 0.655499 0.621432 0.191344
C19   C     C_R   0.018201 0.656229 0.879229 0.196405
C20   C     C_R   0.089051 0.350389 0.121004 0.237057
C21   C     C_R   0.588227 0.149678 0.121083 0.237678
C22   C     C_R   0.526372 0.844018 0.878759 0.216490
C23   C     C_R   0.473581 0.843974 0.621533 0.191931
C24   C     C_R   0.413616 0.151722 0.379861 0.224350
C25   C     C_R   0.952978 0.421433 0.342913 -0.203818
C26   C     C_R   0.998989 0.579974 0.657452 -0.116911
C27   C     C_R   0.003651 0.579864 0.842792 -0.179193
C28   C     C_R   0.046757 0.423073 0.157533 -0.177926
C29   C     C_R   0.546264 0.076939 0.157583 -0.177580
C30   C     C_R   0.509360 0.920073 0.842611 -0.141806
C31   C     C_R   0.499075 0.919602 0.657567 -0.119254
C32   C     C_R   0.446892 0.078152 0.343086 -0.204272
C33   C     C_R   0.989446 0.570635 0.397702 -0.214072
C34   C     C_R   0.984295 0.429525 0.602608 -0.220522
C35   C     C_R   0.026628 0.429778 0.897594 -0.222001
C36   C     C_R   0.998051 0.570173 0.102404 -0.215505
C37   C     C_R   0.497816 0.929895 0.102380 -0.216045
C38   C     C_R   0.525776 0.070037 0.897664 -0.220871
C39   C     C_R   0.484824 0.069875 0.602705 -0.219732
C40   C     C_R   0.489831 0.929566 0.397831 -0.213579
C41   C     C_R   0.937010 0.501875 0.435254 0.029886
C42   C     C_R   0.942614 0.502223 0.565744 0.062906
C43   C     C_R   0.059341 0.503433 0.934692 0.042546
C44   C     C_R   0.059710 0.503204 0.065172 0.040502
C45   C     C_R   0.559378 0.996883 0.065177 0.039580
C46   C     C_R   0.560588 0.996445 0.934684 0.058949
C47   C     C_R   0.442922 0.997124 0.565875 0.062629
C48   C     C_R   0.435854 0.997901 0.435416 0.037868
C49   C     C_R   0.910249 0.388147 0.425870 0.066964
C50   C     C_R   0.944569 0.617143 0.575274 -0.004034
C51   C     C_R   0.047092 0.618121 0.925283 0.037667
C52   C     C_R   0.097346 0.390684 0.074712 0.048122
C53   C     C_R   0.596424 0.109449 0.074762 0.048849
C54   C     C_R   0.552522 0.881658 0.925108 0.029395
C55   C     C_R   0.445141 0.882233 0.575358 -0.004244
C56   C     C_R   0.405951 0.111396 0.426127 0.067152
C57   C     C_R   0.916219 0.541960 0.481951 -0.011814
C58   C     C_R   0.908701 0.464298 0.519312 -0.006871
C59   C     C_R   0.094710 0.466531 0.981192 -0.009044
C60   C     C_R   0.078706 0.543830 0.018557 -0.008153
C61   C     C_R   0.579267 0.956213 0.018562 -0.012232
C62   C     C_R   0.594665 0.033525 0.981221 -0.007966
C63   C     C_R   0.408125 0.035049 0.519525 -0.007832
C64   C     C_R   0.416169 0.957574 0.482088 -0.011144
C65   C     C_R   0.859820 0.353240 0.508402 0.208025
C66   C     C_R   0.893220 0.655792 0.493179 0.243716
C67   C     C_R   0.091330 0.658260 0.007486 0.219692
C68   C     C_R   0.153659 0.357274 0.992221 0.220366
C69   C     C_R   0.652350 0.142977 0.992271 0.219553
C70   C     C_R   0.594243 0.841836 0.007470 0.233417
C71   C     C_R   0.394081 0.843674 0.493204 0.244115
C72   C     C_R   0.357021 0.145818 0.508806 0.211898
C73   C     C_R   0.865257 0.317035 0.462422 -0.145245
C74   C     C_R   0.911709 0.691199 0.539005 -0.177523
C75   C     C_R   0.070355 0.693120 0.961683 -0.151897
C76   C     C_R   0.151124 0.321286 0.038231 -0.160352
C77   C     C_R   0.649626 0.178956 0.038297 -0.160157
C78   C     C_R   0.577062 0.806895 0.961550 -0.158985
C79   C     C_R   0.412658 0.808181 0.539026 -0.177332
C80   C     C_R   0.359688 0.181964 0.462847 -0.146627
N1    N     N_3   0.892418 0.233625 0.369688 -0.684992
H25   H     H_    0.010866 0.203769 0.352922 0.254382
H26   H     H_    0.783104 0.227009 0.346293 0.222509
N2    N     N_3   0.978014 0.770523 0.632838 -0.667235
H27   H     H_    0.079245 0.808745 0.612422 0.231323
H28   H     H_    0.850666 0.805723 0.624878 0.241567
N3    N     N_3   0.002434 0.772195 0.869646 -0.679709
H29   H     H_    0.959277 0.785195 0.835421 0.240393
H30   H     H_    0.133965 0.806803 0.872258 0.236246
N4    N     N_3   0.128937 0.236676 0.130861 -0.687678
H31   H     H_    0.130325 0.222664 0.166769 0.226447
H32   H     H_    0.020515 0.189626 0.117551 0.247218
N5    N     N_3   0.628072 0.263357 0.131005 -0.687554
H33   H     H_    0.629569 0.277313 0.166921 0.226052
H34   H     H_    0.519589 0.310494 0.117749 0.247082
N6    N     N_3   0.517317 0.729209 0.867224 -0.675982
H35   H     H_    0.641753 0.691839 0.876295 0.253376
H36   H     H_    0.411331 0.692905 0.886715 0.224666
N7    N     N_3   0.478028 0.728975 0.632948 -0.665072
H37   H     H_    0.350726 0.693919 0.624889 0.241542
H38   H     H_    0.579414 0.690589 0.612599 0.231112
N8    N     N_3   0.381210 0.266446 0.370274 -0.686058
H39   H     H_    0.380889 0.281005 0.334401 0.221080
H40   H     H_    0.492358 0.310917 0.383724 0.232793
N9    N     N_3   0.769126 0.281050 0.540899 -0.695042
H41   H     H_    0.705224 0.324578 0.567949 0.228295
H42   H     H_    0.862947 0.222864 0.553330 0.241137
N10   N     N_3   0.815567 0.734495 0.461516 -0.689676
H43   H     H_    0.743346 0.696290 0.434664 0.221312
H44   H     H_    0.919416 0.785885 0.448566 0.237331
N11   N     N_3   0.161518 0.739135 0.039311 -0.691152
H45   H     H_    0.234057 0.703064 0.066616 0.222231
H46   H     H_    0.053452 0.788126 0.051758 0.238380
N12   N     N_3   0.250786 0.287654 0.959843 -0.694689
H47   H     H_    0.312798 0.332932 0.933061 0.229064
H48   H     H_    0.161812 0.227178 0.947119 0.239993
N13   N     N_3   0.748772 0.212815 0.959886 -0.693051
H49   H     H_    0.659144 0.272923 0.947119 0.239589
H50   H     H_    0.811280 0.167658 0.933109 0.231217
N14   N     N_3   0.662926 0.761098 0.039553 -0.688391
H51   H     H_    0.554213 0.712408 0.051782 0.236317
H52   H     H_    0.734739 0.797239 0.066962 0.221584
N15   N     N_3   0.316679 0.765059 0.461454 -0.689369
H53   H     H_    0.420745 0.713996 0.448325 0.236070
H54   H     H_    0.243997 0.803351 0.434701 0.222648
N16   N     N_3   0.266837 0.217666 0.541581 -0.693836
H55   H     H_    0.360635 0.275968 0.553896 0.238963
H56   H     H_    0.203996 0.173886 0.568683 0.228404

loop_
_geom_bond_atom_site_label_1
_geom_bond_atom_site_label_2
_ccdc_geom_bond_type
C23   N7    S    
N15   H53   S    
C40   C48   A    
N13   H49   S    
C22   C30   A    
C21   C29   A    
C20   N4    S    
N7    H37   S    
H20   C35   S    
C23   C31   A    
O4    C1    A    
C19   C27   A    
O9    C1    A    
N3    H29   S    
C15   C31   A    
N1    H26   S    
C14   C38   A    
H3    C75   S    
O12   C4    A    
O8    C5    A    
C60   C67   A    
O5    V1    S    
N10   H43   S    
H12   C27   S    
C11   C35   A    
N12   H47   S    
C45   C61   A    
N5    H34   S    
H6    C78   S    
C21   N5    S    
C18   C26   A    
C17   C25   A    
N3    H30   S    
C9    C25   A    
N16   H55   S    
C49   C73   A    
C38   C46   A    
C37   C45   A    
C44   C60   A    
C63   C64   A    
C13   C29   A    
N2    H27   S    
C39   C47   A    
O1    C4    A    
C53   C77   A    
C59   C60   A    
N11   H46   S    
O16   C8    A    
O2    C3    A    
H23   C40   S    
N9    H42   S    
C55   C79   A    
C18   N2    S    
O12   V1    S    
C19   C51   A    
H22   C37   S    
C33   C41   A    
C4    C13   S    
O10   C2    A    
N14   H52   S    
O6    C7    A    
N13   H50   S    
O7    C6    A    
H19   C36   S    
C16   C32   A    
H18   C33   S    
C8    C9    S    
O6    V2    S    
O10   V2    S    
C62   C69   A    
C66   N10   S    
C47   C55   A    
C61   C70   A    
N12   H48   S    
H11   C28   S    
H24   C39   S    
C67   C75   A    
C58   C65   A    
C43   C59   A    
C57   C66   A    
C42   C58   A    
N6    H36   S    
C45   C53   A    
C44   C52   A    
C24   C56   A    
O17   V3    S    
C46   C62   A    
O18   V4    S    
O19   V1    S    
C67   N11   S    
C63   C72   A    
C52   C76   A    
C1    C16   S    
C19   N3    S    
C2    C15   S    
C20   C52   A    
C3    C14   S    
N15   H54   S    
O3    V4    S    
C69   N13   S    
N11   H45   S    
C56   C80   A    
C5    C12   S    
O11   C3    A    
C6    C11   S    
C22   C54   A    
H16   C31   S    
O20   V2    S    
C36   C44   A    
O11   V2    S    
C13   C37   A    
H2    C74   S    
H1    C73   S    
N14   H51   S    
C24   N8    S    
C48   C56   A    
O4    V3    S    
N8    H40   S    
O9    V1    S    
O13   C5    A    
H5    C77   S    
C11   C27   A    
C35   C43   A    
C10   C26   A    
H7    C79   S    
N1    H25   S    
C57   C58   A    
C51   C75   A    
C68   N12   S    
C50   C74   A    
C23   C55   A    
C16   C40   A    
C68   C76   A    
C15   C39   A    
C14   C30   A    
O3    C2    A    
C65   N9    S    
N6    H35   S    
C54   C78   A    
C70   N14   S    
O8    V1    S    
C7    C10   S    
C64   C71   A    
C17   N1    S    
C72   C80   A    
O15   C7    A    
N4    H32   S    
H14   C29   S    
C21   C53   A    
C20   C28   A    
N7    H38   S    
H13   C30   S    
C22   N6    S    
C34   C42   A    
C41   C57   A    
O5    C8    A    
C10   C34   A    
H21   C38   S    
O1    V3    S    
O16   V3    S    
C17   C49   A    
C24   C32   A    
O2    V4    S    
C61   C62   A    
H15   C32   S    
O14   V4    S    
C12   C36   A    
C18   C50   A    
H17   C34   S    
N10   H44   S    
C48   C64   A    
C12   C28   A    
C9    C33   A    
C72   N16   S    
O15   V4    S    
N16   H56   S    
C59   C68   A    
H4    C76   S    
N4    H31   S    
H10   C25   S    
C66   C74   A    
H9    C26   S    
C65   C73   A    
C46   C54   A    
N2    H28   S    
C41   C49   A    
H8    C80   S    
N8    H39   S    
C47   C63   A    
C70   C78   A    
O7    V2    S    
C43   C51   A    
N9    H41   S    
N5    H33   S    
C69   C77   A    
C42   C50   A    
O14   C6    A    
C71   N15   S    
O13   V3    S    
C71   C79   A    
