data_mof_unit_16979.cif
_audit_creation_date              2012-12-11T20:00:35-0500
_audit_creation_method            fapswitch 2.2
_symmetry_space_group_name_H-M    P1
_symmetry_Int_Tables_number       1
_space_group_crystal_system       triclinic
_cell_length_a                    8.320169
_cell_length_b                    16.256098
_cell_length_c                    27.078068
_cell_angle_alpha                 72.330715
_cell_angle_beta                  96.775095
_cell_angle_gamma                 96.698449
_cell_volume                      3452.58817916

loop_
_atom_site_label
_atom_site_type_symbol
_atom_type_description
_atom_site_fract_x
_atom_site_fract_y
_atom_site_fract_z
_atom_type_partial_charge
Ba1   Ba    Ba6+2 0.337820 0.939830 0.518500 1.757842
Ba2   Ba    Ba6+2 0.851970 0.060110 0.481480 1.711924
C1    C     C_3   0.003702 0.600344 0.592128 0.605353
C2    C     C_R   0.447964 0.389919 0.189229 0.565165
C3    C     C_2   0.284306 0.270423 0.280398 -0.110608
C4    C     C_3   0.566716 0.632425 0.627574 0.572230
C5    C     C_3   0.278832 0.241470 0.338994 -0.117688
C6    C     C_1   0.489616 0.146459 0.341921 0.037256
C7    C     C_2   0.513629 0.183042 0.291850 -0.124935
C8    C     C_2   0.406222 0.250605 0.258145 0.201395
C9    C     C_R   0.504667 0.396800 0.101498 -0.079229
C10   C     C_R   0.499534 0.305548 0.117453 -0.033792
C11   C     C_R   0.527316 0.263931 0.081280 -0.061448
C12   C     C_3   0.057894 0.594451 0.648876 0.974146
C13   C     C_R   0.478823 0.438928 0.137806 -0.028833
C14   C     C_2   0.402343 0.179696 0.367377 -0.180726
C15   C     C_2   0.822704 0.833272 0.634624 -0.247381
C16   C     C_3   0.557128 0.553809 0.676298 0.909041
C17   C     C_R   0.619241 0.452948 0.963691 0.037652
C18   C     C_R   0.556225 0.586700 0.979994 -0.022925
C19   C     C_R   0.607700 0.544246 0.946424 -0.001043
C20   C     C_R   0.678000 0.414487 0.929781 -0.095112
C21   C     C_R   0.718213 0.462962 0.880240 -0.039766
C22   C     C_R   0.702075 0.552265 0.861947 -0.010671
C23   C     C_3   0.074795 0.009046 0.646128 0.336911
C24   C     C_R   0.646646 0.593109 0.894895 -0.083791
C25   C     C_R   0.628692 0.682468 0.876026 -0.084523
C26   C     C_R   0.670981 0.730492 0.825176 0.621367
C27   C     C_R   0.739841 0.600921 0.811109 0.584352
C28   C     C_3   0.602240 0.886396 0.387289 0.308266
C29   C     C_2   0.898003 0.723610 0.720034 -0.085676
C30   C     C_3   0.908124 0.753333 0.661874 -0.100989
C31   C     C_1   0.705827 0.853629 0.656765 0.031595
C32   C     C_2   0.661019 0.806933 0.703810 -0.102402
C33   C     C_2   0.766403 0.739491 0.739724 0.178069
C34   C     C_3   0.062385 0.970063 0.704322 -0.336495
C35   C     C_R   0.573503 0.403141 0.014134 0.023070
C36   C     C_R   0.537115 0.446090 0.049341 0.040486
C37   C     C_R   0.535602 0.537941 0.033247 0.039871
C38   C     C_R   0.563771 0.311347 0.030962 -0.099655
C39   C     C_R   0.489616 0.529696 0.122509 -0.104523
C40   C     C_3   0.555881 0.811886 0.363798 -0.330321
C41   C     C_R   0.524707 0.675833 0.958615 0.403275
C42   C     C_R   0.563240 0.721869 0.907552 -0.104836
C43   C     C_R   0.521207 0.577875 0.072004 -0.060007
C44   C     C_2   0.411882 0.239309 0.521019 -0.311554
C45   C     C_3   0.568687 0.384593 0.379933 0.382733
C46   C     C_R   0.792273 0.761972 0.485670 -0.327545
C47   C     C_2   0.253826 0.310425 0.565689 0.349925
C48   C     C_2   0.273040 0.241368 0.550026 0.121594
C49   C     C_2   0.518398 0.308336 0.506454 -0.016894
C50   C     C_3   0.472149 0.393688 0.509275 -0.081569
C51   C     C_3   0.388304 0.383149 0.558292 -0.071025
C52   C     C_3   0.621514 0.115079 0.620397 0.943082
C53   C     C_2   0.606876 0.463259 0.503931 -0.022717
C54   C     C_2   0.569242 0.545163 0.489496 0.013395
C55   C     C_R   0.833024 0.613995 0.459166 0.012994
C56   C     C_3   0.556614 0.473988 0.340925 0.458759
C57   C     C_R   0.694697 0.617633 0.482574 -0.092352
C58   C     C_R   0.951400 0.684392 0.447365 0.385512
C59   C     C_R   0.925362 0.760473 0.459132 -0.009008
C60   C     C_R   0.674839 0.691941 0.496379 -0.036634
C61   C     C_3   0.741788 0.180589 0.638520 0.369022
C62   C     C_3   0.095722 0.869851 0.340553 0.653697
C63   C     C_3   0.941296 0.829415 0.317317 0.373275
C64   C     C_3   0.860943 0.211373 0.713055 0.221848
C65   C     C_3   0.155734 0.005055 0.278705 0.298279
C66   C     C_3   0.842706 0.728999 0.274469 0.196280
C67   C     C_3   0.933826 0.332386 0.319883 0.264536
C68   C     C_3   0.826630 0.523356 0.213708 0.159832
C69   C     C_3   0.499794 0.795218 0.986069 0.133171
C70   C     C_3   0.083540 0.390848 0.590179 0.252482
C71   C     C_3   0.105594 0.602099 0.415764 0.219875
C72   C     C_3   0.658107 0.444337 0.652616 0.247038
C73   C     C_3   0.847353 0.385326 0.269503 0.240655
C74   C     C_R   0.465714 0.257730 0.169093 0.585228
F1    F     F_    0.467640 0.129985 0.627176 -0.733533
F2    F     F_    0.105316 0.512475 0.673976 -0.644510
F3    F     F_    0.132762 0.591921 0.566907 -0.680555
F4    F     F_    0.538801 0.533876 0.366451 -0.723271
F5    F     F_    0.408055 0.505962 0.676406 -0.647296
H1    H     H_    0.953474 0.600185 0.668989 -0.116207
H2    H     H_    0.867116 0.881296 0.291820 -0.002635
H3    H     H_    0.870757 0.790264 0.350028 -0.143906
H4    H     H_    0.951971 0.005379 0.625704 -0.063299
H5    H     H_    0.155038 0.970982 0.633331 0.085781
H6    H     H_    0.976537 0.004636 0.717641 0.128265
H7    H     H_    0.017913 0.900635 0.713266 0.065870
H8    H     H_    0.183706 0.975521 0.725671 0.152405
H9    H     H_    0.906889 0.548338 0.589907 -0.121729
H10   H     H_    0.566341 0.579201 0.710220 0.007998
H11   H     H_    0.577981 0.337365 0.358440 -0.098438
H12   H     H_    0.590278 0.830608 0.323244 0.125588
H13   H     H_    0.455139 0.367568 0.400236 -0.071344
H14   H     H_    0.667973 0.493919 0.319859 0.040738
H15   H     H_    0.449791 0.472515 0.312374 0.036279
H16   H     H_    0.063661 0.358480 0.320192 0.000765
H17   H     H_    0.883333 0.342009 0.353636 0.056855
H18   H     H_    0.714501 0.376760 0.273596 0.033298
H19   H     H_    0.520569 0.687815 0.636065 -0.036416
H20   H     H_    0.872394 0.360374 0.237355 0.040663
H21   H     H_    0.618033 0.168879 0.276257 0.120648
H22   H     H_    0.521883 0.193878 0.091848 0.121854
H23   H     H_    0.617535 0.753883 0.387051 0.056187
H24   H     H_    0.983990 0.679555 0.744176 0.127298
H25   H     H_    0.762512 0.429635 0.856115 0.136013
H26   H     H_    0.698218 0.346803 0.940809 0.070114
H27   H     H_    0.580463 0.273649 0.005688 0.071862
H28   H     H_    0.200732 0.316699 0.257139 0.105787
H29   H     H_    0.476601 0.564440 0.150005 0.112973
H30   H     H_    0.695470 0.649339 0.618651 -0.377792
H31   H     H_    0.535179 0.788607 0.891406 0.124023
H32   H     H_    0.546905 0.816404 0.716091 0.145177
H33   H     H_    0.542084 0.646748 0.065287 0.114587
H34   H     H_    0.423668 0.794186 0.363423 0.142346
H35   H     H_    0.413865 0.162150 0.409497 0.070113
H36   H     H_    0.834124 0.860866 0.593209 0.073304
H37   H     H_    0.429725 0.179456 0.513286 0.081074
H38   H     H_    0.776468 0.819554 0.496088 0.068219
H39   H     H_    0.732285 0.447671 0.514187 0.069863
H40   H     H_    0.442419 0.558673 0.482862 0.103551
H41   H     H_    0.736022 0.895137 0.393572 -0.019003
H42   H     H_    0.546753 0.869757 0.424850 0.038650
H43   H     H_    0.964947 0.171280 0.718644 0.060481
H44   H     H_    0.835912 0.213845 0.751892 0.085502
H45   H     H_    0.634764 0.124293 0.578703 -0.179489
H46   H     H_    0.893888 0.278763 0.689211 0.040854
H47   H     H_    0.217558 0.045168 0.303064 0.047541
H48   H     H_    0.022765 0.011510 0.273357 0.008317
H49   H     H_    0.202897 0.030896 0.239811 0.077337
H50   H     H_    0.749256 0.772343 0.251295 0.023757
H51   H     H_    0.791632 0.681934 0.309365 0.081102
H52   H     H_    0.876185 0.691440 0.249824 0.071040
H53   H     H_    0.701587 0.531626 0.220716 0.064325
H54   H     H_    0.824591 0.495477 0.180782 0.030517
H55   H     H_    0.892836 0.588551 0.201955 0.071683
H56   H     H_    0.719065 0.247066 0.613326 -0.058495
H57   H     H_    0.459151 0.846287 0.950555 0.064334
H58   H     H_    0.635018 0.798833 0.992169 0.016207
H59   H     H_    0.455497 0.808873 0.019613 0.075854
H60   H     H_    0.175327 0.421792 0.613757 0.182242
H61   H     H_    0.964556 0.385367 0.605887 0.034379
H62   H     H_    0.070605 0.432033 0.548943 0.056524
H63   H     H_    0.004284 0.586070 0.388614 0.055191
H64   H     H_    0.112903 0.549788 0.453439 0.052165
H65   H     H_    0.220480 0.606560 0.397701 0.102141
H66   H     H_    0.630075 0.478985 0.610870 0.012722
H67   H     H_    0.866207 0.166982 0.634008 -0.002930
H68   H     H_    0.559703 0.393222 0.667225 0.123505
H69   H     H_    0.769610 0.411529 0.655693 0.049258
H70   H     H_    0.167228 0.816302 0.363885 0.068469
H71   H     H_    0.954316 0.663351 0.572142 -0.153272
N1    N     N_R   0.440010 0.299829 0.204630 -0.421909
N2    N     N_R   0.725758 0.689897 0.792785 -0.424607
O1    O     O_2   0.431310 0.922990 0.623550 -0.444732
O2    O     O_2   0.853356 0.306961 0.502956 -0.475597
O3    O     O_3   0.709431 0.386153 0.414022 -0.593765
O4    O     O_3   0.663280 0.983100 0.563360 -0.510656
O5    O     O_3   0.016420 0.932050 0.462720 -0.451021
O6    O     O_2   0.959730 0.164640 0.549160 -0.476274
O7    O     O_3   0.139394 0.095356 0.636387 -0.564669
O8    O     O_2   0.054432 0.097862 0.359159 -0.451279
O9    O     O_3   0.911447 0.243827 0.322594 -0.620720
O10   O     O_2   0.457384 0.178616 0.182091 -0.605078
O11   O     O_2   0.783824 0.563184 0.782997 -0.579215
O12   O     O_3   0.056406 0.920300 0.371306 -0.657875
O13   O     O_2   0.430067 0.427935 0.220552 -0.633687
O14   O     O_2   0.661321 0.808756 0.810271 -0.588351
O15   O     O_3   0.126250 0.812630 0.574830 -0.469775
O16   O     O_2   0.239834 0.806128 0.672345 -0.497833
O17   O     O_3   0.651490 0.032045 0.652250 -0.638283
O18   O     O_3   0.189212 0.656332 0.653020 -0.585872
O19   O     O_2   0.229950 0.835370 0.450810 -0.450045
O20   O     O_3   0.517580 0.797570 0.545130 -0.496979
O21   O     O_2   0.341472 0.695890 0.494671 -0.389299
O22   O     O_3   0.721025 0.173694 0.690743 -0.612362
O23   O     O_3   0.470433 0.613636 0.585573 -0.545051
O24   O     O_3   0.195193 0.918493 0.300541 -0.647232
O25   O     O_3   0.983574 0.776782 0.288697 -0.628602
O26   O     O_3   0.907287 0.473196 0.259783 -0.650065
O27   O     O_3   0.430133 0.712597 0.983940 -0.643982
O28   O     O_3   0.122868 0.307042 0.594092 -0.659830
O29   O     O_3   0.090175 0.682811 0.423533 -0.655949
O30   O     O_3   0.688015 0.501758 0.683283 -0.656070
O31   O     O_2   0.758370 0.077020 0.376420 -0.428576
O32   O     O_3   0.526390 0.016840 0.436620 -0.501304
O33   O     O_3   0.063420 0.187310 0.425160 -0.471460
O34   O     O_3   0.546194 0.962083 0.352278 -0.606225
O35   O     O_3   0.173250 0.067890 0.537260 -0.492810
O36   O     O_3   0.672100 0.202370 0.454860 -0.487061
P1    P     P_3+3 0.610630 0.953360 0.619150 1.017303
P2    P     P_3+3 0.057260 0.861390 0.437850 1.037122
P3    P     P_3+3 0.500459 0.700293 0.529580 1.047864
P4    P     P_3+3 0.579040 0.046590 0.380840 1.024439
P5    P     P_3+3 0.688805 0.299853 0.470795 0.970765
P6    P     P_3+3 0.115942 0.758263 0.641196 0.939308
P7    P     P_3+3 0.139048 0.142585 0.569114 1.082940
P8    P     P_3+3 0.077106 0.193017 0.360548 0.979082

loop_
_geom_bond_atom_site_label_1
_geom_bond_atom_site_label_2
_ccdc_geom_bond_type
C34   H8    S    
C6    C7    D    
C70   H62   S    
C26   N2    Am   
C53   C54   D    
C66   H50   S    
C40   H12   S    
C29   H24   S    
C45   H11   S    
C69   O27   S    
Ba2   O35   S    
O31   P4    D    
C30   P6    S    
C1    F3    S    
C61   O22   S    
C28   H42   S    
Ba1   O32   S    
C34   H7    S    
C32   H32   S    
C70   H61   S    
C52   H45   S    
Ba1   O19   S    
C1    H71   S    
O23   P3    S    
C1    H9    S    
C16   H10   S    
C66   H52   S    
C17   C19   A    
C22   C24   A    
Ba1   Ba2   S    
C35   C38   A    
C36   C37   A    
C71   O29   S    
C55   C57   A    
C72   O30   S    
C52   C61   S    
C20   H26   S    
C74   N1    Am   
C16   F5    S    
C64   H46   S    
C44   H37   S    
Ba1   O1    S    
C32   C33   S    
C4    H30   S    
C27   O11   D    
C66   H51   S    
C54   C57   S    
C56   H15   S    
C22   C27   A    
C11   C38   A    
C62   O12   S    
C17   C35   A    
Ba2   O33   S    
C9    C13   A    
C25   C42   A    
C28   H41   S    
O9    P8    S    
C23   O7    S    
C7    H21   S    
C59   P2    S    
C21   C22   A    
C33   N2    S    
C72   H68   S    
C6    P4    S    
O15   P6    S    
C7    C8    S    
O12   P2    S    
C50   C53   S    
C56   F4    S    
C37   C43   A    
C52   F1    S    
C67   H17   S    
C58   O29   S    
C2    N1    Am   
O34   P4    S    
O7    P7    S    
C6    C14   D    
C68   H55   S    
C61   H56   S    
C64   O22   S    
C65   H48   S    
C15   C31   D    
C14   H35   S    
C8    N1    S    
C73   H18   S    
C48   P7    S    
C69   H57   S    
C53   H39   S    
C34   H6    S    
C70   H60   S    
C4    C16   S    
Ba1   O20   S    
O33   P8    S    
C49   C50   S    
C56   H14   S    
Ba2   O36   S    
C72   H66   S    
Ba1   O5    S    
C17   C20   A    
C13   C39   A    
C12   O18   S    
C3    C5    S    
C18   C37   A    
Ba2   O5    S    
C63   H3    S    
C69   H58   S    
C63   O25   S    
C43   H33   S    
C21   H25   S    
C44   C49   D    
C41   O27   S    
C71   H64   S    
C58   C59   A    
Ba2   P4    S    
C28   O34   S    
C9    C36   A    
C41   C42   A    
Ba2   O32   S    
C35   C36   A    
C62   O24   S    
C46   C60   A    
C29   C30   S    
O18   P6    S    
C16   O30   S    
Ba2   O4    S    
O2    P5    D    
C23   H4    S    
C31   C32   D    
C24   C25   A    
O17   P1    S    
C18   C19   A    
C73   O26   S    
C69   H59   S    
C1    C12   S    
O1    P1    D    
O36   P5    S    
C42   H31   S    
C5    C14   S    
C67   H16   S    
C39   H29   S    
C10   C74   A    
C4    O23   S    
C68   H54   S    
C64   H43   S    
C74   O10   D    
C65   H49   S    
C11   H22   S    
C12   H1    S    
Ba1   P1    S    
C61   H67   S    
C18   C41   A    
C50   C51   S    
C73   H20   S    
C45   O3    S    
O35   P7    S    
C44   C48   S    
Ba1   O4    S    
C57   C60   A    
O19   P2    D    
O3    P5    S    
C52   O17   S    
O32   P4    S    
C28   C40   S    
C67   O9    S    
C55   C58   A    
C65   O24   S    
C40   H23   S    
C46   H38   S    
C9    C10   A    
C64   H44   S    
O6    P7    D    
C15   H36   S    
O8    P8    D    
C66   O25   S    
C2    O13   D    
C38   H27   S    
C71   H65   S    
C31   P1    S    
C62   C63   S    
C5    P8    S    
Ba2   O31   S    
C70   O28   S    
C3    C8    D    
C49   P5    S    
O4    P1    S    
C54   H40   S    
C45   C56   S    
O16   P6    D    
C68   O26   S    
C46   C59   A    
C3    H28   S    
C2    C13   A    
C47   C51   S    
O5    P2    S    
C19   C24   A    
Ba1   O15   S    
C23   H5    S    
C45   H13   S    
C67   C73   S    
C29   C33   D    
C12   F2    S    
C62   H70   S    
C63   H2    S    
C26   O14   D    
C23   C34   S    
C47   O28   S    
Ba1   P2    S    
C40   H34   S    
C10   C11   A    
O20   P3    S    
Ba2   O6    S    
C47   C48   D    
C25   C26   A    
C68   H53   S    
C15   C30   S    
C39   C43   A    
C20   C21   A    
C72   H69   S    
C60   P3    S    
C65   H47   S    
O21   P3    D    
C4    H19   S    
C27   N2    Am   
C71   H63   S    
Ba1   O35   S    
