data_mof_unit_50181.cif
_audit_creation_date              2012-12-11T16:21:51-0500
_audit_creation_method            fapswitch 2.2
_symmetry_space_group_name_H-M    P1
_symmetry_Int_Tables_number       1
_space_group_crystal_system       triclinic
_cell_length_a                    13.558626
_cell_length_b                    14.039743
_cell_length_c                    29.962264
_cell_angle_alpha                 97.604101
_cell_angle_beta                  90.369648
_cell_angle_gamma                 118.866163
_cell_volume                      4934.72706578

loop_
_atom_site_label
_atom_site_type_symbol
_atom_type_description
_atom_site_fract_x
_atom_site_fract_y
_atom_site_fract_z
_atom_type_partial_charge
C1    C     C_R   0.720888 0.098980 0.569156 0.544068
C2    C     C_R   0.349355 0.684595 0.679895 0.040050
C3    C     C_R   0.256832 0.680497 0.657118 -0.091093
C4    C     C_R   0.264338 0.705040 0.613245 -0.111068
C5    C     C_R   0.263435 0.688450 0.839549 0.090963
C6    C     C_R   0.254485 0.671646 0.885412 -0.001550
C7    C     C_R   0.399687 0.617166 0.879165 -0.135254
C8    C     C_R   0.422316 0.651472 0.836911 -0.002347
C9    C     C_R   0.346102 0.675083 0.815186 0.032224
C10   C     C_1   0.348024 0.677498 0.767225 0.071628
C11   C     C_1   0.348568 0.678869 0.727226 0.043024
C12   C     C_R   0.383911 0.789113 0.551323 0.548348
C13   C     C_R   0.310407 0.618441 0.902148 -0.011371
C14   C     C_3   0.233388 0.103424 0.726051 0.003564
C15   C     C_3   0.262551 0.039768 0.757611 -0.084561
C16   C     C_1   0.301337 0.190774 0.878631 -0.012970
C17   C     C_1   0.371761 0.129996 0.615612 0.012979
C18   C     C_3   0.293842 0.210461 0.760617 -0.089193
C19   C     C_3   0.324590 0.147345 0.791605 0.013690
C20   C     C_3   0.405456 0.240662 0.738331 0.012832
C21   C     C_3   0.344369 0.135610 0.703561 0.028002
C22   C     C_3   0.436869 0.179012 0.769871 -0.105780
C23   C     C_R   0.398546 0.117857 0.570025 0.553941
C24   C     C_3   0.374475 0.073095 0.734815 0.075462
C25   C     C_1   0.312852 0.165336 0.839911 -0.044705
C26   C     C_1   0.356699 0.133698 0.655093 -0.023098
C27   C     C_3   0.916795 0.258107 0.733762 0.105091
C28   C     C_3   0.838243 0.273953 0.767178 0.017034
C29   C     C_1   0.891308 0.203651 0.879380 -0.011511
C30   C     C_1   0.767697 0.131435 0.614852 0.017324
C31   C     C_3   0.917571 0.169734 0.759151 -0.120627
C32   C     C_3   0.838015 0.185357 0.792220 0.026585
C33   C     C_3   0.812607 0.079225 0.728711 -0.139686
C34   C     C_R   0.724861 0.098292 0.444281 0.562469
C35   C     C_3   0.813083 0.168387 0.703697 0.027806
C36   C     C_3   0.733609 0.094995 0.762422 -0.108770
C37   C     C_3   0.733109 0.183860 0.736719 -0.101379
C38   C     C_1   0.860499 0.193746 0.840593 -0.052966
C39   C     C_1   0.793597 0.151829 0.654722 0.000921
C40   C     C_3   0.273553 0.644406 0.256442 -0.020952
C41   C     C_3   0.288390 0.729669 0.225488 -0.134447
C42   C     C_1   0.317304 0.621816 0.108566 0.043814
C43   C     C_1   0.376775 0.756313 0.375959 0.052094
C44   C     C_3   0.346299 0.607783 0.227512 0.054503
C45   C     C_R   0.384007 0.788309 0.423616 0.547596
C46   C     C_3   0.361544 0.692676 0.196566 -0.032354
C47   C     C_3   0.453469 0.695280 0.257105 0.018602
C48   C     C_3   0.379905 0.730702 0.286366 -0.011538
C49   C     C_3   0.468969 0.780117 0.225679 0.015283
C50   C     C_3   0.396197 0.816249 0.255422 0.047072
C51   C     C_1   0.342545 0.661312 0.147673 0.029255
C52   C     C_1   0.378278 0.742626 0.335575 0.065284
C53   C     C_R   0.348255 0.130114 0.400985 -0.025582
C54   C     C_R   0.411854 0.229661 0.384647 -0.163791
C55   C     C_R   0.393987 0.240641 0.340007 0.015634
C56   C     C_R   0.394161 0.114205 0.443049 0.553375
C57   C     C_R   0.316374 0.146113 0.309916 -0.024611
C58   C     C_R   0.246540 0.046874 0.326316 0.075911
C59   C     C_R   0.253731 0.041893 0.373137 0.003032
C60   C     C_R   0.252837 0.068460 0.141195 -0.007194
C61   C     C_R   0.245257 0.092445 0.097233 0.045084
C62   C     C_R   0.424207 0.264131 0.115257 -0.029877
C63   C     C_R   0.423481 0.246994 0.160778 0.047368
C64   C     C_R   0.332835 0.152988 0.174038 0.000428
C65   C     C_1   0.321889 0.146406 0.221633 0.135544
C66   C     C_1   0.317393 0.146151 0.261714 0.148764
C67   C     C_R   0.365104 0.734914 0.591874 0.023899
C68   C     C_R   0.323692 0.197255 0.086234 -0.030291
C69   C     C_R   0.802717 0.147000 0.408616 -0.001078
C70   C     C_R   0.834576 0.080949 0.379097 0.051836
C71   C     C_R   0.869381 0.110010 0.336345 -0.030289
C72   C     C_R   0.869665 0.203534 0.323588 0.024558
C73   C     C_R   0.860831 0.281140 0.356289 0.024434
C74   C     C_R   0.836265 0.256124 0.400717 0.007405
C75   C     C_R   0.855683 0.285569 0.164468 0.042774
C76   C     C_R   0.872622 0.285085 0.117973 -0.143379
C77   C     C_R   0.937700 0.152818 0.119544 -0.113244
C78   C     C_R   0.454502 0.730390 0.613846 -0.137214
C79   C     C_R   0.930924 0.158285 0.165725 0.046474
C80   C     C_R   0.888475 0.223220 0.188780 -0.004050
C81   C     C_1   0.880933 0.223287 0.236800 0.074290
C82   C     C_1   0.876653 0.217172 0.276514 0.037518
C83   C     C_R   0.914496 0.219739 0.095653 -0.032180
C84   C     C_R   0.284582 0.231610 0.922551 0.546231
C85   C     C_R   0.268544 0.551999 0.939465 0.535949
C86   C     C_R   0.944280 0.221868 0.923251 0.544197
C87   C     C_R   0.294582 0.240954 0.048102 0.557445
C88   C     C_R   0.276442 0.560735 0.064366 0.551872
C89   C     C_R   0.446696 0.705746 0.657774 -0.135618
C90   C     C_R   0.955541 0.233019 0.050373 0.542371
Cr1   Cr    Cr6+3 0.583430 0.162610 0.509470 1.019468
Cr2   Cr    Cr6+3 0.584210 0.916680 0.495400 1.067888
Cr3   Cr    Cr6+3 0.332380 0.920740 0.495100 1.016387
Cr4   Cr    Cr6+3 0.086810 0.177030 0.983130 1.068797
Cr5   Cr    Cr6+3 0.337180 0.419300 0.994610 1.032600
Cr6   Cr    Cr6+3 0.084840 0.422330 0.995830 1.027886
H1    H     H_    0.520155 0.208318 0.788313 0.108824
H2    H     H_    0.260496 0.267469 0.771524 0.127391
H3    H     H_    0.657624 0.190110 0.726849 0.129275
H4    H     H_    0.658929 0.027925 0.774949 0.156118
H5    H     H_    0.799796 0.998199 0.712194 0.108628
H6    H     H_    0.994154 0.165600 0.769168 0.116424
H7    H     H_    0.221076 0.744678 0.212516 0.147319
H8    H     H_    0.181108 0.664009 0.674090 0.134777
H9    H     H_    0.478831 0.298619 0.406727 0.181646
H10   H     H_    0.855386 0.336990 0.099178 0.157918
H11   H     H_    0.193895 0.707485 0.597268 0.132117
H12   H     H_    0.973280 0.104079 0.103146 0.202245
H13   H     H_    0.533254 0.753143 0.598395 0.132669
H14   H     H_    0.449837 0.585860 0.893470 0.135473
H15   H     H_    0.518746 0.709142 0.675310 0.104676
H16   H     H_    0.205439 0.957346 0.766545 0.162778
O1    O     O_R   0.493980 0.188910 0.559650 -0.508869
O2    O     O_R   0.480180 0.824400 0.444640 -0.472681
O3    O     O_R   0.308310 0.808540 0.439800 -0.527833
O4    O     O_R   0.340740 0.020600 0.455570 -0.509155
O5    O     O_3   0.500010 0.000010 0.499990 -0.247252
O6    O     O_R   0.969650 0.150960 0.933380 -0.507422
O7    O     O_R   0.187740 0.180870 0.937580 -0.485669
O8    O     O_R   0.358510 0.327410 0.940870 -0.517137
O9    O     O_R   0.324180 0.507870 0.953930 -0.503030
O10   O     O_R   0.170560 0.527890 0.952050 -0.518401
O11   O     O_R   0.987620 0.318470 0.945550 -0.492621
O12   O     O_R   0.678640 0.153520 0.554450 -0.497380
O13   O     O_R   0.976400 0.159270 0.031530 -0.505955
O14   O     O_R   0.194000 0.188570 0.028560 -0.465868
O15   O     O_R   0.365260 0.335720 0.039020 -0.517259
O16   O     O_R   0.330440 0.515580 0.044910 -0.477289
O17   O     O_R   0.177310 0.536200 0.050190 -0.516847
O18   O     O_R   0.993870 0.326170 0.036530 -0.495069
O19   O     O_3   0.169610 0.339550 0.991190 -0.251739
O20   O     O_R   0.698130 0.004030 0.549500 -0.510504
O21   O     O_R   0.481060 0.827210 0.535360 -0.503770
O22   O     O_R   0.309260 0.811560 0.537660 -0.513552
O23   O     O_R   0.341620 0.023400 0.546290 -0.491644
O24   O     O_R   0.493030 0.185890 0.461780 -0.516769
O25   O     O_R   0.677760 0.150720 0.463730 -0.514810
O26   O     O_R   0.697180 0.001010 0.451640 -0.456774
C91   C     C_3   0.194867 0.718421 0.916945 -0.256870
C92   C     C_3   0.247728 0.843401 0.919756 -0.429570
H17   H     H_    0.340160 0.883869 0.928820 0.156679
H18   H     H_    0.232711 0.866795 0.887547 0.179854
H19   H     H_    0.209358 0.874896 0.946269 0.190347
H20   H     H_    0.103292 0.677481 0.906443 0.200353
H21   H     H_    0.202842 0.705761 0.952179 0.170060
C93   C     C_3   0.119060 0.061219 0.699804 -0.273085
C94   C     C_3   0.022232 0.975057 0.722119 -0.446648
H22   H     H_    0.031432 0.900473 0.721436 0.153527
H23   H     H_    0.020500 0.008321 0.757665 0.153323
H24   H     H_    0.941043 0.950201 0.703075 0.135280
H25   H     H_    0.104242 0.131620 0.697270 0.157688
H26   H     H_    0.120492 0.023158 0.665044 0.155756
C95   C     C_2   0.421354 0.997401 0.721110 0.563883
O27   O     O_2   0.436434 0.948834 0.749071 -0.518992
O28   O     O_R   0.449458 0.984191 0.676815 -0.710010
H27   H     H_    0.484609 0.934614 0.672280 0.338142
C96   C     C_3   0.488220 0.353911 0.726946 -0.275680
C97   C     C_3   0.554797 0.433471 0.769444 -0.453857
H28   H     H_    0.495878 0.437362 0.794233 0.158804
H29   H     H_    0.609341 0.406199 0.785141 0.150245
H30   H     H_    0.609845 0.516564 0.760600 0.133497
H31   H     H_    0.548182 0.345988 0.703663 0.147795
H32   H     H_    0.440640 0.386465 0.709733 0.151681
C98   C     C_3   0.849714 0.382857 0.790473 -0.261716
C99   C     C_3   0.840556 0.450426 0.756358 -0.421003
H33   H     H_    0.913043 0.476944 0.735012 0.189990
H34   H     H_    0.760607 0.401658 0.734371 0.139786
H35   H     H_    0.841075 0.524858 0.774570 0.143290
H36   H     H_    0.781588 0.365038 0.813760 0.134685
H37   H     H_    0.932531 0.430948 0.810652 0.208599
C100  C     C_2   0.021376 0.348694 0.718788 0.550307
O29   O     O_2   0.098839 0.412857 0.746794 -0.539049
O30   O     O_R   0.029858 0.359571 0.673103 -0.713928
H38   H     H_    0.104317 0.423961 0.667371 0.334186
C101  C     C_2   0.185440 0.717246 0.816839 0.567599
O31   O     O_2   0.221425 0.786133 0.791467 -0.523383
O32   O     O_R   0.070801 0.665338 0.824346 -0.731064
H39   H     H_    0.027102 0.692850 0.807382 0.325955
C102  C     C_3   0.161018 0.568581 0.273650 -0.273838
C103  C     C_3   0.071958 0.504187 0.234374 -0.412151
H40   H     H_    0.057679 0.560318 0.215745 0.171488
H41   H     H_    0.096497 0.452780 0.210780 0.176047
H42   H     H_    0.992438 0.449897 0.247966 0.159745
H43   H     H_    0.171013 0.510844 0.292821 0.176240
H44   H     H_    0.133633 0.618693 0.296635 0.169627
C104  C     C_2   0.426112 0.933579 0.271074 0.640020
O33   O     O_2   0.427240 0.990767 0.243485 -0.492392
O34   O     O_R   0.454276 0.977431 0.316888 -0.693871
H45   H     H_    0.476270 0.058239 0.323028 0.333278
C105  C     C_2   0.573822 0.852669 0.204508 0.562509
O35   O     O_2   0.607412 0.951466 0.208130 -0.499283
O36   O     O_R   0.630428 0.805924 0.179350 -0.649146
H46   H     H_    0.698835 0.862536 0.166051 0.359708
C106  C     C_2   0.547482 0.679536 0.274580 0.606334
O37   O     O_2   0.603958 0.657333 0.248009 -0.468560
O38   O     O_R   0.571598 0.692477 0.321053 -0.667454
H47   H     H_    0.639331 0.683481 0.328533 0.350519
C107  C     C_2   0.317536 0.489792 0.213579 0.625208
O39   O     O_2   0.300239 0.430880 0.242434 -0.448993
O40   O     O_R   0.309206 0.447345 0.167995 -0.682626
H48   H     H_    0.287142 0.366471 0.163118 0.342662
C108  C     C_2   0.158629 0.007039 0.062299 0.581079
O41   O     O_2   0.187806 0.981487 0.026200 -0.553266
O42   O     O_R   0.044142 0.958431 0.070030 -0.697911
H49   H     H_    0.993777 0.902530 0.043428 0.337856
C109  C     C_3   0.181700 0.952490 0.152366 -0.258659
C110  C     C_3   0.226406 0.876488 0.132022 -0.423139
H50   H     H_    0.224683 0.870333 0.094707 0.178058
H51   H     H_    0.314478 0.907715 0.146080 0.191411
H52   H     H_    0.172860 0.792683 0.140494 0.139582
H53   H     H_    0.182674 0.951494 0.189182 0.178719
H54   H     H_    0.091831 0.917600 0.140502 0.210324
C111  C     C_2   0.170118 0.946897 0.293973 0.556211
O43   O     O_2   0.173545 0.861475 0.294088 -0.542365
O44   O     O_R   0.091991 0.949887 0.264406 -0.743349
H55   H     H_    0.041497 0.875520 0.245505 0.324962
C112  C     C_3   0.161656 0.943058 0.392330 -0.248314
C113  C     C_3   0.041942 0.918787 0.379494 -0.422792
H56   H     H_    0.039734 0.997277 0.384439 0.180350
H57   H     H_    0.010957 0.875720 0.344522 0.193452
H58   H     H_    0.982986 0.863073 0.401659 0.146059
H59   H     H_    0.170283 0.868622 0.382102 0.195787
H60   H     H_    0.165458 0.959107 0.429505 0.170444
C114  C     C_2   0.516132 0.327400 0.195017 0.613268
O45   O     O_2   0.553596 0.294385 0.222867 -0.479902
O46   O     O_R   0.559111 0.440373 0.195935 -0.629764
H61   H     H_    0.623852 0.485640 0.220020 0.372234
C115  C     C_3   0.533707 0.345998 0.097281 -0.221607
C116  C     C_3   0.567261 0.290554 0.057419 -0.427744
H62   H     H_    0.577126 0.222211 0.067691 0.161596
H63   H     H_    0.503437 0.257390 0.028123 0.171828
H64   H     H_    0.649258 0.351530 0.046588 0.144664
H65   H     H_    0.528271 0.417534 0.088411 0.205906
H66   H     H_    0.606340 0.381593 0.122890 0.214218
C117  C     C_2   0.462448 0.350659 0.325793 0.604012
O47   O     O_2   0.435788 0.370997 0.290712 -0.433714
O48   O     O_R   0.556080 0.433024 0.353544 -0.731423
H67   H     H_    0.596697 0.503303 0.340006 0.344215
C118  C     C_2   0.810586 0.356661 0.186536 0.577153
O49   O     O_2   0.800511 0.421286 0.165776 -0.543055
O50   O     O_R   0.781659 0.352312 0.231139 -0.686152
H68   H     H_    0.764361 0.412998 0.243416 0.349487
C119  C     C_3   0.873499 0.387670 0.343184 -0.280677
C120  C     C_3   0.761193 0.388331 0.342907 -0.384312
H69   H     H_    0.696859 0.316935 0.319048 0.216189
H70   H     H_    0.729404 0.384439 0.376984 0.167294
H71   H     H_    0.772898 0.465274 0.331816 0.156625
H72   H     H_    0.940265 0.460997 0.365201 0.127498
H73   H     H_    0.903530 0.399920 0.309299 0.168027
C121  C     C_3   0.850966 0.345616 0.439810 -0.263673
C122  C     C_3   0.931509 0.356819 0.478665 -0.417793
H74   H     H_    0.896640 0.281304 0.494626 0.169456
H75   H     H_    0.014390 0.373464 0.466103 0.158673
H76   H     H_    0.945175 0.426583 0.504973 0.134310
H77   H     H_    0.887311 0.428154 0.429957 0.133899
H78   H     H_    0.768864 0.331398 0.452076 0.175830
C123  C     C_2   0.834027 0.983719 0.393870 0.575160
O51   O     O_2   0.784775 0.893439 0.370228 -0.525730
O52   O     O_R   0.886468 0.995591 0.436192 -0.704210
H79   H     H_    0.872674 0.922767 0.444549 0.330095
C124  C     C_2   0.979893 0.102551 0.188857 0.547133
O53   O     O_2   0.059710 0.156231 0.217239 -0.512218
O54   O     O_R   0.940054 0.990106 0.175625 -0.703660
H80   H     H_    0.980523 0.961221 0.193558 0.346307
C125  C     C_3   0.908923 0.043486 0.304765 -0.263474
C126  C     C_3   0.813835 0.956126 0.270988 -0.339546
H81   H     H_    0.735728 0.910075 0.287966 0.209601
H82   H     H_    0.796072 0.995586 0.244831 0.194427
H83   H     H_    0.839455 0.897012 0.254227 0.188613
H84   H     H_    0.980453 0.099123 0.287027 0.212417
H85   H     H_    0.944524 0.003077 0.323489 0.172420
C127  C     C_3   0.524492 0.657077 0.814637 -0.283496
C128  C     C_3   0.612877 0.775986 0.811946 -0.430881
H86   H     H_    0.578758 0.814366 0.790816 0.165999
H87   H     H_    0.640083 0.825118 0.846326 0.165470
H88   H     H_    0.687811 0.777571 0.796527 0.131364
H89   H     H_    0.565095 0.621318 0.834089 0.138428
H90   H     H_    0.498297 0.608739 0.780132 0.144903

loop_
_geom_bond_atom_site_label_1
_geom_bond_atom_site_label_2
_ccdc_geom_bond_type
C3    H8    S    
C112  H60   S    
C106  O38   S    
C21   C26   S    
C44   C107  S    
C96   C97   S    
C119  H73   S    
C117  O48   S    
C73   C74   A    
C14   C18   S    
C47   C106  S    
C98   H37   S    
Cr2   O21   S    
C92   H19   S    
C57   C66   S    
Cr2   O5    S    
C1    O20   A    
Cr2   O26   S    
C114  O45   D    
C128  H88   S    
Cr4   O7    S    
C87   O15   A    
C81   C82   T    
C53   C59   A    
C7    C8    A    
C101  O32   S    
C99   H33   S    
C111  O43   D    
C103  H40   S    
C15   C19   S    
C100  O30   S    
C46   C49   S    
C17   C23   S    
C41   C46   S    
C108  O42   S    
C33   H5    S    
C17   C26   T    
C32   C36   S    
C14   C21   S    
C27   C28   S    
C36   C37   S    
C94   H23   S    
C92   H18   S    
C18   C19   S    
C116  H64   S    
C84   O7    A    
C124  O53   D    
C62   C115  S    
C43   C52   T    
C122  H75   S    
C77   C83   A    
Cr4   O14   S    
C119  C120  S    
C9    C10   S    
C16   C84   S    
C33   C36   S    
C120  H69   S    
C123  O51   D    
Cr3   O3    S    
C6    C91   S    
C49   C50   S    
C94   H22   S    
C56   O24   A    
Cr1   O25   S    
C75   C118  S    
Cr5   O16   S    
C97   H29   S    
C70   C123  S    
C91   H21   S    
Cr1   O24   S    
C118  O49   D    
C44   C46   S    
C127  C128  S    
C29   C38   T    
C110  H52   S    
C127  H90   S    
C117  O47   D    
C31   C33   S    
C125  H84   S    
C85   O9    A    
C70   C71   A    
C128  H87   S    
C32   C38   S    
C93   H25   S    
C75   C80   A    
C96   H32   S    
C40   C44   S    
C115  H66   S    
C97   H30   S    
C103  H42   S    
C42   C51   T    
C72   C73   A    
Cr5   O9    S    
C48   C50   S    
C106  O37   D    
C99   H34   S    
C22   H1    S    
C12   O22   A    
O48   H67   S    
Cr5   O19   S    
C5    C101  S    
C98   C99   S    
C98   H36   S    
C67   C78   A    
Cr3   O5    S    
C88   O17   A    
C2    C11   S    
C45   O2    A    
C76   C83   A    
C115  C116  S    
C74   C121  S    
C103  H41   S    
C57   C58   A    
C111  O44   S    
C78   C89   A    
C121  H78   S    
C16   C25   T    
C4    H11   S    
O28   H27   S    
C125  C126  S    
C108  O41   D    
C27   C31   S    
C110  H50   S    
C31   H6    S    
C122  H74   S    
C19   C22   S    
C92   H17   S    
Cr4   O13   S    
C86   O6    A    
Cr3   O22   S    
C59   C112  S    
C36   H4    S    
C124  O54   S    
C109  C110  S    
O40   H48   S    
C122  H76   S    
C49   C105  S    
C56   O4    A    
C27   C35   S    
C112  C113  S    
C53   C54   A    
C46   C51   S    
C34   O26   A    
Cr1   O1    S    
O34   H45   S    
C123  O52   S    
Cr3   O4    S    
C2    C89   A    
C35   C39   S    
C75   C76   A    
C105  O35   D    
C5    C9    A    
C116  H62   S    
C101  O31   D    
Cr5   O15   S    
C61   C108  S    
C23   O1    A    
C40   C102  S    
C91   H20   S    
C45   O3    A    
C113  H57   S    
C31   C32   S    
C73   C119  S    
C28   C32   S    
C15   H16   S    
C84   O8    A    
C94   H24   S    
C62   C63   A    
Cr1   O5    S    
C128  H86   S    
C8    C9    A    
C77   C79   A    
C85   O10   A    
C118  O50   S    
C127  H89   S    
C15   C24   S    
O42   H49   S    
C109  H53   S    
C43   C45   S    
C100  O29   D    
C115  H65   S    
C107  O39   D    
C102  C103  S    
C126  H82   S    
O32   H39   S    
Cr6   O19   S    
C93   H26   S    
C40   C41   S    
C20   C22   S    
O46   H61   S    
C99   H35   S    
Cr1   O12   S    
C55   C57   A    
C97   H28   S    
C79   C124  S    
C22   C24   S    
C79   C80   A    
O38   H47   S    
C42   C88   S    
C104  O34   S    
O52   H79   S    
C50   C104  S    
C27   C100  S    
C41   C50   S    
C37   H3    S    
C24   C95   S    
C28   C98   S    
C113  H58   S    
Cr6   O18   S    
C93   C94   S    
C102  H43   S    
C53   C56   S    
C121  H77   S    
C40   C48   S    
C83   C90   S    
C89   H15   S    
C54   C55   A    
C112  H59   S    
C105  O36   S    
Cr6   O11   S    
C35   C37   S    
C34   C69   S    
C63   C114  S    
C77   H12   S    
C8    C127  S    
C55   C117  S    
C80   C81   S    
C47   C48   S    
C126  H83   S    
C114  O46   S    
C4    C67   A    
C91   C92   S    
C44   C47   S    
Cr3   O23   S    
C71   C125  S    
C102  H44   S    
C23   O23   A    
Cr5   O8    S    
C47   C49   S    
Cr2   O20   S    
C14   C93   S    
C34   O25   A    
C95   O28   S    
Cr4   O19   S    
C7    H14   S    
Cr6   O10   S    
C60   C64   A    
C10   C11   T    
C64   C65   S    
C29   C86   S    
C2    C3    A    
C58   C59   A    
C1    O12   A    
C71   C72   A    
C116  H63   S    
C120  H71   S    
C20   C96   S    
O36   H46   S    
C6    C13   A    
C41   H7    S    
Cr4   O6    S    
C61   C68   A    
C60   C109  S    
C113  H56   S    
C5    C6    A    
C28   C37   S    
C54   H9    S    
O50   H68   S    
O54   H80   S    
C1    C30   S    
C33   C35   S    
C90   O13   A    
C120  H70   S    
C30   C39   T    
C76   H10   S    
C78   H13   S    
C18   C20   S    
C62   C68   A    
C65   C66   T    
O44   H55   S    
C125  H85   S    
C69   C70   A    
C19   C25   S    
C121  C122  S    
C12   C67   S    
C126  H81   S    
O30   H38   S    
C63   C64   A    
C90   O18   A    
C58   C111  S    
C109  H54   S    
C7    C13   A    
C20   C21   S    
C88   O16   A    
C119  H72   S    
C21   C24   S    
C13   C85   S    
C86   O11   A    
C110  H51   S    
C68   C87   S    
C14   C15   S    
C60   C61   A    
C107  O40   S    
C18   H2    S    
C104  O33   D    
C48   C52   S    
Cr2   O2    S    
C96   H31   S    
C69   C74   A    
C87   O14   A    
C72   C82   S    
C12   O21   A    
C3    C4    A    
Cr6   O17   S    
C95   O27   D    
