data_mof_unit_60151.cif
_audit_creation_date              2012-12-10T19:58:44-0500
_audit_creation_method            fapswitch 2.2
_symmetry_space_group_name_H-M    P1
_symmetry_Int_Tables_number       1
_space_group_crystal_system       tetragonal
_cell_length_a                    18.421436
_cell_length_b                    18.421436
_cell_length_c                    22.421436
_cell_angle_alpha                 90.0
_cell_angle_beta                  90.0
_cell_angle_gamma                 90.0
_cell_volume                      7608.69870805

loop_
_atom_site_label
_atom_site_type_symbol
_atom_type_description
_atom_site_fract_x
_atom_site_fract_y
_atom_site_fract_z
_atom_type_partial_charge
C1    C     C_R   0.500000 1.000000 0.340110 0.835375
C2    C     C_R   0.860036 0.640007 0.500044 0.806186
C3    C     C_R   0.359993 0.860037 0.500044 0.806186
C4    C     C_R   0.139963 0.359993 0.500044 0.806186
C5    C     C_R   0.359993 0.139963 0.500044 0.806186
C6    C     C_R   0.139963 0.640007 0.500044 0.806186
C7    C     C_R   0.640007 0.860036 0.500044 0.806186
C8    C     C_R   0.860037 0.359993 0.500044 0.806186
C9    C     C_R   0.140007 0.639963 0.000044 0.806186
C10   C     C_R   0.360036 0.140007 0.000044 0.806186
C11   C     C_R   0.859993 0.360037 0.000044 0.806186
C12   C     C_R   1.000000 0.500000 0.340110 0.835375
C13   C     C_R   0.639963 0.859993 0.000044 0.806186
C14   C     C_R   0.859993 0.639963 0.000044 0.806186
C15   C     C_R   0.639963 0.140007 0.000044 0.806186
C16   C     C_R   0.140007 0.360036 0.000044 0.806186
C17   C     C_R   0.360037 0.859993 0.000044 0.806186
C18   C     C_R   0.691630 0.743432 0.464936 0.131978
C19   C     C_R   0.256566 0.691631 0.464935 0.131978
C20   C     C_R   0.308370 0.256568 0.464937 0.131978
C21   C     C_R   0.743434 0.308369 0.464935 0.131978
C22   C     C_R   0.308369 0.743434 0.464935 0.131978
C23   C     C_R   1.000000 0.500000 0.840110 0.835375
C24   C     C_R   0.743432 0.691630 0.464936 0.131978
C25   C     C_R   0.691631 0.256566 0.464935 0.131978
C26   C     C_R   0.256568 0.308370 0.464937 0.131978
C27   C     C_R   0.191630 0.243432 0.964937 0.131978
C28   C     C_R   0.756566 0.191631 0.964935 0.131978
C29   C     C_R   0.808370 0.756567 0.964937 0.131978
C30   C     C_R   0.243434 0.808369 0.964935 0.131978
C31   C     C_R   0.808369 0.243434 0.964935 0.131978
C32   C     C_R   0.243432 0.191630 0.964937 0.131978
C33   C     C_R   0.191631 0.756566 0.964935 0.131978
C34   C     C_R   0.500000 0.000000 0.840110 0.835375
C35   C     C_R   0.756568 0.808370 0.964937 0.131978
C36   C     C_R   0.696079 0.804984 0.500434 -0.082925
C37   C     C_R   0.195015 0.696079 0.500434 -0.082926
C38   C     C_R   0.303921 0.195016 0.500434 -0.082925
C39   C     C_R   0.804985 0.303921 0.500434 -0.082925
C40   C     C_R   0.303921 0.804985 0.500434 -0.082925
C41   C     C_R   0.804984 0.696079 0.500434 -0.082925
C42   C     C_R   0.696079 0.195015 0.500434 -0.082926
C43   C     C_R   0.195016 0.303921 0.500434 -0.082925
C44   C     C_R   0.196079 0.304984 0.000434 -0.082925
C45   C     C_R   0.500000 0.000000 0.659899 0.836099
C46   C     C_R   0.695015 0.196079 0.000434 -0.082926
C47   C     C_R   0.803921 0.695015 0.000434 -0.082926
C48   C     C_R   0.304985 0.803921 0.000434 -0.082926
C49   C     C_R   0.803921 0.304985 0.000434 -0.082926
C50   C     C_R   0.304984 0.196079 0.000434 -0.082925
C51   C     C_R   0.196079 0.695015 0.000434 -0.082926
C52   C     C_R   0.695015 0.803921 0.000434 -0.082926
C53   C     C_R   0.757918 0.811903 0.537290 -0.224385
C54   C     C_R   0.188098 0.757918 0.537291 -0.224384
C55   C     C_R   0.242082 0.188097 0.537290 -0.224385
C56   C     C_R   0.000000 0.500000 0.659899 0.836099
C57   C     C_R   0.811902 0.242082 0.537291 -0.224385
C58   C     C_R   0.242082 0.811902 0.537291 -0.224385
C59   C     C_R   0.811903 0.757918 0.537290 -0.224385
C60   C     C_R   0.757918 0.188098 0.537291 -0.224384
C61   C     C_R   0.188097 0.242082 0.537290 -0.224385
C62   C     C_R   0.257918 0.311903 0.037290 -0.224385
C63   C     C_R   0.688098 0.257918 0.037291 -0.224385
C64   C     C_R   0.742082 0.688097 0.037290 -0.224385
C65   C     C_R   0.311902 0.742082 0.037291 -0.224384
C66   C     C_R   0.742082 0.311902 0.037291 -0.224384
C67   C     C_R   0.000000 0.500000 0.159899 0.836099
C68   C     C_R   0.311903 0.257918 0.037290 -0.224385
C69   C     C_R   0.257918 0.688098 0.037291 -0.224385
C70   C     C_R   0.688097 0.742082 0.037290 -0.224385
C71   C     C_1   0.000000 0.500000 0.276715 -0.159032
C72   C     C_1   0.500000 0.000000 0.276715 -0.159032
C73   C     C_1   0.500000 0.000000 0.776715 -0.159033
C74   C     C_1   1.000000 0.500000 0.776715 -0.159033
C75   C     C_1   0.500000 1.000000 0.723295 -0.157908
C76   C     C_1   1.000000 0.500000 0.723295 -0.157908
C77   C     C_1   1.000000 0.500000 0.223296 -0.157907
C78   C     C_R   0.500000 0.000000 0.159899 0.836099
C79   C     C_1   0.500000 1.000000 0.223296 -0.157907
C80   C     C_3   0.704883 0.645738 0.420354 -0.475299
C81   C     C_3   0.354260 0.704885 0.420352 -0.475298
C82   C     C_3   0.295117 0.354262 0.420354 -0.475298
C83   C     C_3   0.645740 0.295115 0.420352 -0.475298
C84   C     C_3   0.295115 0.645740 0.420352 -0.475298
C85   C     C_3   0.645738 0.704883 0.420354 -0.475299
C86   C     C_3   0.704885 0.354260 0.420352 -0.475298
C87   C     C_3   0.354262 0.295117 0.420354 -0.475298
C88   C     C_3   0.204883 0.145738 0.920354 -0.475299
C89   C     C_R   0.640007 0.139963 0.500044 0.806186
C90   C     C_3   0.854260 0.204884 0.920352 -0.475298
C91   C     C_3   0.795117 0.854262 0.920354 -0.475298
C92   C     C_3   0.145740 0.795115 0.920352 -0.475299
C93   C     C_3   0.795115 0.145740 0.920352 -0.475299
C94   C     C_3   0.145738 0.204883 0.920354 -0.475299
C95   C     C_3   0.204884 0.854260 0.920352 -0.475298
C96   C     C_3   0.854262 0.795117 0.920354 -0.475298
H1    H     H_    0.735048 0.641767 0.377542 0.211197
H2    H     H_    0.858231 0.235050 0.877540 0.211196
H3    H     H_    0.764952 0.858233 0.877542 0.211196
H4    H     H_    0.141769 0.764950 0.877540 0.211196
H5    H     H_    0.764950 0.141769 0.877540 0.211196
H6    H     H_    0.141767 0.235048 0.877542 0.211197
H7    H     H_    0.235050 0.858231 0.877540 0.211196
H8    H     H_    0.858233 0.764952 0.877542 0.211196
H9    H     H_    0.764780 0.858648 0.566030 0.178407
H10   H     H_    0.141353 0.764779 0.566032 0.178406
H11   H     H_    0.235219 0.141351 0.566030 0.178407
H12   H     H_    0.358231 0.735050 0.377541 0.211196
H13   H     H_    0.858647 0.235221 0.566032 0.178407
H14   H     H_    0.235221 0.858647 0.566032 0.178407
H15   H     H_    0.858648 0.764780 0.566030 0.178407
H16   H     H_    0.764779 0.141353 0.566032 0.178406
H17   H     H_    0.141351 0.235219 0.566030 0.178407
H18   H     H_    0.264780 0.358648 0.066030 0.178407
H19   H     H_    0.641353 0.264779 0.066032 0.178407
H20   H     H_    0.735219 0.641351 0.066030 0.178407
H21   H     H_    0.358647 0.735221 0.066032 0.178406
H22   H     H_    0.735221 0.358647 0.066032 0.178406
H23   H     H_    0.264952 0.358233 0.377542 0.211196
H24   H     H_    0.358648 0.264780 0.066030 0.178407
H25   H     H_    0.264779 0.641353 0.066032 0.178407
H26   H     H_    0.641351 0.735219 0.066030 0.178407
H27   H     H_    0.686500 0.593241 0.439584 0.203307
H28   H     H_    0.406758 0.686501 0.439581 0.203308
H29   H     H_    0.313500 0.406759 0.439584 0.203307
H30   H     H_    0.593242 0.313498 0.439581 0.203308
H31   H     H_    0.313498 0.593242 0.439581 0.203308
H32   H     H_    0.593241 0.686500 0.439584 0.203307
H33   H     H_    0.686501 0.406758 0.439581 0.203308
H34   H     H_    0.641769 0.264950 0.377541 0.211196
H35   H     H_    0.406759 0.313500 0.439584 0.203307
H36   H     H_    0.186500 0.093241 0.939584 0.203307
H37   H     H_    0.906758 0.186501 0.939581 0.203308
H38   H     H_    0.813500 0.906759 0.939584 0.203307
H39   H     H_    0.093242 0.813498 0.939581 0.203308
H40   H     H_    0.813498 0.093242 0.939581 0.203308
H41   H     H_    0.093241 0.186500 0.939584 0.203307
H42   H     H_    0.186501 0.906758 0.939581 0.203308
H43   H     H_    0.906759 0.813500 0.939584 0.203307
H44   H     H_    0.264950 0.641769 0.377541 0.211196
H45   H     H_    0.641767 0.735048 0.377542 0.211197
H46   H     H_    0.735050 0.358231 0.377541 0.211196
H47   H     H_    0.358233 0.264952 0.377542 0.211196
H48   H     H_    0.235048 0.141767 0.877542 0.211197
O1    O     O_3   0.500000 1.000000 0.500000 -0.481769
O2    O     O_R   0.560750 0.000000 0.867980 -0.639076
O3    O     O_R   0.000000 0.560750 0.867980 -0.639076
O4    O     O_R   0.439250 0.000000 0.867980 -0.639076
O5    O     O_R   0.560720 1.000000 0.632020 -0.638062
O6    O     O_R   1.000000 0.560720 0.632020 -0.638062
O7    O     O_R   0.439280 1.000000 0.632020 -0.638062
O8    O     O_R   1.000000 0.439280 0.632020 -0.638062
O9    O     O_R   0.060720 0.500000 0.132020 -0.638062
O10   O     O_R   0.500000 0.060720 0.132020 -0.638062
O11   O     O_R   0.939280 0.500000 0.132020 -0.638062
O12   O     O_3   1.000000 0.500000 0.500000 -0.481769
O13   O     O_R   0.500000 0.939280 0.132020 -0.638062
O14   O     O_R   0.585450 0.146130 0.465380 -0.643467
O15   O     O_R   0.853870 0.585450 0.465380 -0.643468
O16   O     O_R   0.414550 0.853870 0.465380 -0.643468
O17   O     O_R   0.146130 0.414550 0.465380 -0.643468
O18   O     O_R   0.414550 0.146130 0.465380 -0.643468
O19   O     O_R   0.146130 0.585450 0.465380 -0.643467
O20   O     O_R   0.585450 0.853870 0.465380 -0.643468
O21   O     O_R   0.853870 0.414550 0.465380 -0.643468
O22   O     O_R   0.085450 0.646130 0.965380 -0.643467
O23   O     O_3   0.000000 0.500000 0.000000 -0.481769
O24   O     O_R   0.353870 0.085450 0.965380 -0.643467
O25   O     O_R   0.914550 0.353870 0.965380 -0.643468
O26   O     O_R   0.646130 0.914550 0.965380 -0.643467
O27   O     O_R   0.914550 0.646130 0.965380 -0.643467
O28   O     O_R   0.646130 0.085450 0.965380 -0.643467
O29   O     O_R   0.085450 0.353870 0.965380 -0.643467
O30   O     O_R   0.353870 0.914550 0.965380 -0.643468
O31   O     O_R   0.353850 0.914510 0.534610 -0.648491
O32   O     O_R   0.085490 0.353850 0.534610 -0.648491
O33   O     O_R   0.646150 0.085490 0.534610 -0.648491
O34   O     O_3   0.500000 0.000000 0.000000 -0.481769
O35   O     O_R   0.914510 0.646150 0.534610 -0.648491
O36   O     O_R   0.646150 0.914510 0.534610 -0.648491
O37   O     O_R   0.914510 0.353850 0.534610 -0.648491
O38   O     O_R   0.353850 0.085490 0.534610 -0.648491
O39   O     O_R   0.085490 0.646150 0.534610 -0.648491
O40   O     O_R   0.853850 0.414510 0.034610 -0.648491
O41   O     O_R   0.585490 0.853850 0.034610 -0.648491
O42   O     O_R   0.146150 0.585490 0.034610 -0.648491
O43   O     O_R   0.414510 0.146150 0.034610 -0.648491
O44   O     O_R   0.146150 0.414510 0.034610 -0.648491
O45   O     O_R   0.500000 0.939250 0.367980 -0.639077
O46   O     O_R   0.414510 0.853850 0.034610 -0.648491
O47   O     O_R   0.853850 0.585490 0.034610 -0.648491
O48   O     O_R   0.585490 0.146150 0.034610 -0.648491
O49   O     O_R   0.060750 0.500000 0.367980 -0.639077
O50   O     O_R   0.500000 0.060750 0.367980 -0.639077
O51   O     O_R   0.939250 0.500000 0.367980 -0.639077
O52   O     O_R   1.000000 0.439250 0.867980 -0.639076
Zn1   Zn    Zn3+2 0.586760 0.000000 0.549450 0.965169
Zn2   Zn    Zn3+2 0.913280 0.500000 0.450540 0.962571
Zn3   Zn    Zn3+2 0.500000 0.913280 0.450540 0.962571
Zn4   Zn    Zn3+2 0.086720 0.500000 0.450540 0.962572
Zn5   Zn    Zn3+2 1.000000 0.586720 0.950540 0.962572
Zn6   Zn    Zn3+2 0.413280 0.000000 0.950540 0.962572
Zn7   Zn    Zn3+2 1.000000 0.413280 0.950540 0.962572
Zn8   Zn    Zn3+2 0.586720 0.000000 0.950540 0.962572
Zn9   Zn    Zn3+2 0.000000 0.586760 0.549450 0.965169
Zn10  Zn    Zn3+2 0.413240 0.000000 0.549450 0.965169
Zn11  Zn    Zn3+2 1.000000 0.413240 0.549450 0.965169
Zn12  Zn    Zn3+2 0.086760 0.500000 0.049450 0.965169
Zn13  Zn    Zn3+2 0.500000 0.086760 0.049450 0.965169
Zn14  Zn    Zn3+2 0.913240 0.500000 0.049450 0.965169
Zn15  Zn    Zn3+2 0.500000 0.913240 0.049450 0.965169
Zn16  Zn    Zn3+2 0.500000 0.086720 0.450540 0.962572

loop_
_geom_bond_atom_site_label_1
_geom_bond_atom_site_label_2
_ccdc_geom_bond_type
C16   O29   A    
C8    O37   A    
C15   O48   A    
O35   Zn9   S    
C64   H20   S    
O34   Zn8   S    
C80   H1    S    
C12   O49   A    
O8    Zn11  S    
C67   C77   S    
C17   C48   S    
C93   H40   S    
C96   H43   S    
C53   C59   A    
C88   H36   S    
O4    Zn6   S    
C89   O14   A    
C28   C46   A    
C80   C85   S    
C74   C76   T    
C29   C47   A    
C18   C24   A    
O32   Zn11  S    
C30   C48   A    
C9    O22   A    
O37   Zn11  S    
O1    Zn3   S    
C72   C79   T    
C62   H18   S    
C64   C70   A    
C2    C41   S    
C82   C87   S    
C39   C57   A    
C20   C87   S    
O30   Zn6   S    
C67   O11   A    
C7    C36   S    
C87   H35   S    
O28   Zn8   S    
O12   Zn11  S    
O2    Zn8   S    
O36   Zn1   S    
C19   C37   A    
C50   C68   A    
C91   C96   S    
C34   O4    A    
C27   C44   A    
C24   C80   S    
O15   Zn2   S    
C57   H13   S    
C38   C55   A    
O43   Zn13  S    
C88   H48   S    
C2    O15   A    
C9    C51   S    
C23   O52   A    
O34   Zn15  S    
C59   H15   S    
O41   Zn15  S    
C36   C53   A    
C8    C39   S    
C89   O33   A    
C48   C65   A    
C56   O8    A    
C16   C44   S    
C85   H32   S    
O26   Zn8   S    
O17   Zn4   S    
O20   Zn3   S    
O51   Zn2   S    
C63   H19   S    
O45   Zn3   S    
C84   H31   S    
C63   C66   A    
C26   C82   S    
O33   Zn1   S    
C5    C38   S    
C24   C41   A    
C73   C75   T    
C92   H4    S    
O12   Zn4   S    
C82   H23   S    
C31   C49   A    
O1    Zn10  S    
C95   H7    S    
C26   C43   A    
O16   Zn3   S    
O11   Zn14  S    
O14   Zn16  S    
C88   C94   S    
C60   H16   S    
C18   C85   S    
C40   C58   A    
C49   C66   A    
C54   H10   S    
C81   H28   S    
C4    O32   A    
C1    C72   S    
C22   C81   S    
O6    Zn9   S    
O3    Zn5   S    
C19   C22   A    
C13   O41   A    
C41   C59   A    
C83   H34   S    
C9    O42   A    
C16   O44   A    
C33   C92   S    
C85   H45   S    
C47   C64   A    
C90   H37   S    
C93   H5    S    
C78   C79   S    
C78   O10   A    
C57   C60   A    
O47   Zn14  S    
C44   C62   A    
C23   O3    A    
C92   C95   S    
O34   Zn13  S    
C55   H11   S    
C28   C93   S    
O38   Zn10  S    
O22   Zn5   S    
O27   Zn5   S    
O46   Zn15  S    
C82   H29   S    
O1    Zn1   S    
C30   C95   S    
C11   C49   S    
O25   Zn7   S    
O9    Zn12  S    
C20   C38   A    
C70   H26   S    
C78   O13   A    
C21   C39   A    
C69   H25   S    
C31   C90   S    
C22   C40   A    
C10   O43   A    
C6    C37   S    
O52   Zn7   S    
O40   Zn14  S    
O12   Zn9   S    
C32   C50   A    
C37   C54   A    
C3    O31   A    
C13   O26   A    
C12   C71   S    
C3    C40   S    
O13   Zn15  S    
C6    O39   A    
O23   Zn7   S    
C56   C76   S    
O34   Zn6   S    
C61   H17   S    
C3    O16   A    
O39   Zn9   S    
C12   O51   A    
C32   C88   S    
C33   C51   A    
C2    O35   A    
C14   O47   A    
C23   C74   S    
C56   O6    A    
C19   C84   S    
C10   C50   S    
C42   C60   A    
C5    O38   A    
C71   C77   T    
C81   C84   S    
C17   O30   A    
C86   H46   S    
C90   C93   S    
C54   C58   A    
C21   C25   A    
C21   C86   S    
O44   Zn12  S    
C95   H42   S    
C30   C33   A    
C27   C32   A    
C58   H14   S    
C28   C31   A    
O12   Zn2   S    
C11   O40   A    
O23   Zn14  S    
C14   O27   A    
C20   C26   A    
C25   C42   A    
O19   Zn4   S    
C29   C96   S    
C86   H33   S    
C11   O25   A    
C14   C47   S    
C4    C43   S    
O42   Zn12  S    
C17   O46   A    
O10   Zn13  S    
O49   Zn4   S    
C51   C69   A    
C7    O20   A    
C29   C35   A    
C15   C46   S    
C45   C75   S    
C46   C63   A    
C67   O9    A    
C42   C89   S    
C87   H47   S    
C5    O18   A    
O1    Zn16  S    
C96   H8    S    
C1    O50   A    
C91   H3    S    
O21   Zn2   S    
C68   H24   S    
O23   Zn12  S    
C34   O2    A    
O29   Zn7   S    
C43   C61   A    
C91   H38   S    
O18   Zn16  S    
C13   C52   S    
C65   C69   A    
C55   C61   A    
O24   Zn6   S    
C7    O36   A    
C45   O5    A    
C62   C68   A    
O23   Zn5   S    
O7    Zn10  S    
C1    O45   A    
O48   Zn13  S    
C81   H12   S    
C52   C70   A    
C8    O21   A    
C34   C73   S    
O50   Zn16  S    
C15   O28   A    
C92   H39   S    
C53   H9    S    
C83   C86   S    
C6    O19   A    
C84   H44   S    
C10   O24   A    
C66   H22   S    
C35   C52   A    
C25   C83   S    
C94   H41   S    
C65   H21   S    
C4    O17   A    
C27   C94   S    
C83   H30   S    
O31   Zn10  S    
C45   O7    A    
C18   C36   A    
C90   H2    S    
C94   H6    S    
O5    Zn1   S    
C80   H27   S    
C35   C91   S    
