data_mof_unit_24411.cif
_audit_creation_date              2012-12-10T17:42:45-0500
_audit_creation_method            fapswitch 2.2
_symmetry_space_group_name_H-M    P1
_symmetry_Int_Tables_number       1
_space_group_crystal_system       triclinic
_cell_length_a                    10.061578
_cell_length_b                    10.689168
_cell_length_c                    13.117692
_cell_angle_alpha                 91.183014
_cell_angle_beta                  68.680969
_cell_angle_gamma                 87.952167
_cell_volume                      1312.56871356

loop_
_atom_site_label
_atom_site_type_symbol
_atom_type_description
_atom_site_fract_x
_atom_site_fract_y
_atom_site_fract_z
_atom_type_partial_charge
C1    C     C_R   0.496918 0.738782 0.500964 0.880367
C2    C     C_R   0.366522 0.489210 0.826976 -0.140737
C3    C     C_R   0.391259 0.879839 0.703270 -0.195406
C4    C     C_R   0.418822 0.495866 0.705323 0.804536
C5    C     C_R   0.338498 0.950229 0.801578 -0.134999
C6    C     C_R   0.332733 0.080278 0.800424 -0.138177
C7    C     C_R   0.383129 0.140141 0.701094 -0.182266
C8    C     C_R   0.440818 0.070244 0.600441 0.061842
C9    C     C_R   0.440680 0.939450 0.601531 0.045674
C10   C     C_R   0.489537 0.871521 0.500837 -0.178478
C11   C     C_R   0.531192 0.929654 0.399314 0.144922
C12   C     C_R   0.444768 0.491688 0.982807 0.077623
C13   C     C_R   0.550342 0.058949 0.397941 0.116635
C14   C     C_R   0.503045 0.127620 0.499131 -0.177404
C15   C     C_R   0.793659 0.674811 0.633651 -0.199701
C16   C     C_R   0.502282 0.260884 0.498708 0.865638
C17   C     C_R   0.832573 0.773868 0.686438 0.151301
C18   C     C_R   0.973731 0.778047 0.682220 0.154856
C19   C     C_R   0.071873 0.681465 0.625400 -0.259018
C20   C     C_R   0.038319 0.587667 0.563614 0.107438
C21   C     C_R   0.894332 0.585633 0.565909 0.097654
C22   C     C_R   0.965635 0.419949 0.433761 0.198195
C23   C     C_R   0.464284 0.448478 0.876104 0.009801
C24   C     C_R   0.105447 0.417314 0.438256 -0.108475
C25   C     C_R   0.580880 0.498669 0.295820 0.835041
C26   C     C_R   0.759332 0.338120 0.024132 -0.200158
C27   C     C_R   0.633170 0.478296 0.177716 -0.054564
C28   C     C_R   0.229344 0.537807 0.896447 0.160096
C29   C     C_R   0.205646 0.569993 0.005475 -0.194115
C30   C     C_R   0.312818 0.552408 0.046898 -0.234672
C31   C     C_3   0.622749 0.121893 0.289462 -0.387620
C32   C     C_3   0.782539 0.084874 0.241575 -0.906265
C33   C     C_3   0.943610 0.330477 0.352149 -0.404003
C34   C     C_R   0.553468 0.465666 0.024663 0.060555
C35   C     C_3   0.038027 0.358747 0.234626 -0.909573
C36   C     C_3   0.725641 0.881655 0.732611 -0.425525
C37   C     C_3   0.738908 0.973714 0.642174 -0.837800
C38   C     C_3   0.024581 0.887814 0.731152 -0.393336
C39   C     C_3   0.989530 0.877703 0.854114 -0.908996
C40   C     C_3   0.797249 0.229589 0.799315 -0.453904
C41   C     C_3   0.874956 0.266847 0.680915 -0.854466
C42   C     C_3   0.103297 0.550164 0.861320 -0.402416
C43   C     C_3   0.057705 0.422573 0.836325 -0.815578
C44   C     C_3   0.539134 0.855666 0.295876 -0.396780
C45   C     C_R   0.667528 0.376745 0.969614 0.105502
C46   C     C_3   0.392755 0.858616 0.285389 -0.866977
C47   C     C_R   0.680500 0.325512 0.865550 0.122549
C48   C     C_R   0.577387 0.361165 0.821955 -0.191095
C49   C     C_R   0.547015 0.522393 0.123528 -0.239353
C50   C     C_R   0.742344 0.389190 0.126614 -0.215793
H1    H     H_    0.391132 0.778876 0.707834 0.114279
H2    H     H_    0.290285 0.135049 0.876638 0.136666
H3    H     H_    0.833512 0.128886 0.161710 0.244438
H4    H     H_    0.833911 0.115870 0.298642 0.264104
H5    H     H_    0.803351 0.982295 0.228354 0.255575
H6    H     H_    0.571188 0.098131 0.230253 0.210985
H7    H     H_    0.612190 0.225206 0.298337 0.195085
H8    H     H_    0.007203 0.452644 0.213409 0.271806
H9    H     H_    0.152865 0.355960 0.223320 0.261391
H10   H     H_    0.024812 0.287121 0.177040 0.247252
H11   H     H_    0.970154 0.233821 0.370528 0.182708
H12   H     H_    0.377805 0.241175 0.704125 0.124394
H13   H     H_    0.832535 0.334457 0.357119 0.273030
H14   H     H_    0.847004 0.011283 0.609726 0.249496
H15   H     H_    0.720639 0.926387 0.572722 0.272495
H16   H     H_    0.659976 0.053064 0.674753 0.264101
H17   H     H_    0.616159 0.846947 0.764993 0.209575
H18   H     H_    0.740127 0.928906 0.803376 0.210336
H19   H     H_    0.997774 0.970830 0.889928 0.253121
H20   H     H_    0.880000 0.845455 0.896415 0.258086
H21   H     H_    0.067122 0.811906 0.869336 0.250915
H22   H     H_    0.140936 0.894965 0.689262 0.222577
H23   H     H_    0.684067 0.674158 0.643831 0.216819
H24   H     H_    0.978285 0.977600 0.715649 0.217517
H25   H     H_    0.806345 0.257269 0.631697 0.265332
H26   H     H_    0.907904 0.364722 0.678549 0.267624
H27   H     H_    0.972209 0.204894 0.641958 0.241586
H28   H     H_    0.880777 0.211248 0.833468 0.210484
H29   H     H_    0.746691 0.139857 0.799759 0.222048
H30   H     H_    0.186421 0.349018 0.388784 0.157827
H31   H     H_    0.469310 0.596566 0.164271 0.143960
H32   H     H_    0.133236 0.378075 0.759129 0.276881
H33   H     H_    0.049562 0.358770 0.903729 0.245766
H34   H     H_    0.174519 0.681636 0.630728 0.209326
H35   H     H_    0.952312 0.435819 0.828725 0.263458
H36   H     H_    0.009615 0.597133 0.926817 0.203564
H37   H     H_    0.128497 0.610343 0.791289 0.220107
H38   H     H_    0.284090 0.577853 0.132437 0.150597
H39   H     H_    0.314797 0.809762 0.353927 0.283181
H40   H     H_    0.352701 0.956920 0.285908 0.252373
H41   H     H_    0.400980 0.811597 0.206999 0.236188
H42   H     H_    0.616336 0.891554 0.219911 0.211195
H43   H     H_    0.577090 0.757235 0.296069 0.192358
H44   H     H_    0.838978 0.262973 0.993846 0.125056
H45   H     H_    0.102733 0.609062 0.059791 0.140278
H46   H     H_    0.582121 0.315212 0.746486 0.176703
H47   H     H_    0.806415 0.351459 0.169929 0.166457
H48   H     H_    0.300641 0.903603 0.878724 0.134795
N1    N     N_R   0.856860 0.501200 0.500990 -0.131224
N2    N     N_R   0.142450 0.501280 0.501020 -0.125467
O1    O     O_R   0.385310 0.683220 0.500000 -0.629788
O2    O     O_R   0.614640 0.683250 0.500010 -0.627567
O3    O     O_R   0.328400 0.499950 0.653610 -0.616075
O4    O     O_R   0.557730 0.499970 0.653620 -0.621836
O5    O     O_R   0.385360 0.316750 0.499990 -0.612520
O6    O     O_R   0.614690 0.316780 0.500000 -0.639124
O7    O     O_R   0.442270 0.500030 0.346380 -0.598960
O8    O     O_R   0.671600 0.500050 0.346390 -0.619110
Zn1   Zn    Zn3+2 0.346880 0.499980 0.499990 0.915340
Zn2   Zn    Zn3+2 0.653120 0.500020 0.500010 0.909863

loop_
_geom_bond_atom_site_label_1
_geom_bond_atom_site_label_2
_ccdc_geom_bond_type
C26   H44   S    
C40   C47   S    
C43   H33   S    
C19   C20   A    
C36   H17   S    
C7    C8    A    
C46   H39   S    
C12   C23   A    
C35   H8    S    
C28   C29   A    
C26   C50   A    
C41   H27   S    
C38   C39   S    
C21   N1    A    
O1    Zn1   S    
C4    O3    A    
C22   N1    A    
C35   H9    S    
C18   C19   A    
C49   H31   S    
C44   H43   S    
C26   C45   A    
C24   H30   S    
C47   C48   A    
C8    C9    A    
C50   H47   S    
C37   H15   S    
C42   H36   S    
C17   C36   S    
C31   H6    S    
C9    C10   A    
C32   H5    S    
C44   H42   S    
C27   C50   A    
C16   O6    A    
N2    Zn1   S    
C13   C14   A    
O7    Zn1   S    
C32   H4    S    
C44   C46   S    
C45   C47   A    
C38   H22   S    
C43   H35   S    
C29   H45   S    
C3    H1    S    
C46   H41   S    
N1    Zn2   S    
C35   H10   S    
C2    C4    S    
C7    H12   S    
C29   C30   A    
C3    C9    A    
C41   H25   S    
C31   C32   S    
C20   N2    A    
C33   H13   S    
C37   H16   S    
C17   C18   A    
C39   H19   S    
C40   H29   S    
C11   C44   S    
C34   C45   A    
C20   C21   A    
C16   O5    A    
C40   H28   S    
C33   H11   S    
C40   C41   S    
C15   H23   S    
C22   C24   A    
O2    Zn2   S    
C42   C43   S    
C12   C34   A    
C19   H34   S    
C1    O1    A    
C32   H3    S    
C37   H14   S    
C25   O7    A    
C38   H24   S    
C15   C17   A    
C22   C33   S    
O5    Zn1   S    
C36   C37   S    
C34   C49   A    
C8    C14   A    
C23   C48   A    
C48   H46   S    
C12   C30   A    
C24   N2    A    
C13   C31   S    
C1    C10   S    
C3    C5    A    
C36   H18   S    
C6    C7    A    
C46   H40   S    
C25   C27   S    
O3    Zn1   S    
C31   H7    S    
C18   C38   S    
C41   H26   S    
O4    Zn2   S    
C11   C13   A    
C5    C6    A    
C4    O4    A    
C28   C42   S    
C33   C35   S    
C39   H20   S    
O8    Zn2   S    
C14   C16   S    
C10   C11   A    
C15   C21   A    
C5    H48   S    
O6    Zn2   S    
C2    C23   A    
C43   H32   S    
C39   H21   S    
C2    C28   A    
C42   H37   S    
C6    H2    S    
C30   H38   S    
C1    O2    A    
C27   C49   A    
C25   O8    A    
