data_mof_unit_49317.cif
_audit_creation_date              2012-12-10T20:31:59-0500
_audit_creation_method            fapswitch 2.2
_symmetry_space_group_name_H-M    P1
_symmetry_Int_Tables_number       1
_space_group_crystal_system       triclinic
_cell_length_a                    9.874322
_cell_length_b                    10.696192
_cell_length_c                    15.39876
_cell_angle_alpha                 90.179998
_cell_angle_beta                  69.03761
_cell_angle_gamma                 89.193515
_cell_volume                      1518.53081231

loop_
_atom_site_label
_atom_site_type_symbol
_atom_type_description
_atom_site_fract_x
_atom_site_fract_y
_atom_site_fract_z
_atom_type_partial_charge
C1    C     C_R   0.501343 0.740267 0.496674 0.880972
C2    C     C_R   0.700428 0.637549 0.048868 0.185305
C3    C     C_R   0.560426 0.591519 0.098269 0.091248
C4    C     C_R   0.409876 0.502156 0.675991 0.871592
C5    C     C_R   0.804936 0.640209 0.091178 -0.227348
C6    C     C_R   0.773079 0.591629 0.180305 -0.204429
C7    C     C_R   0.537728 0.530083 0.181767 -0.271817
C8    C     C_R   0.397570 0.938561 0.468104 0.140184
C9    C     C_R   0.511549 0.871653 0.480078 -0.106950
C10   C     C_R   0.640363 0.933482 0.471652 -0.218346
C11   C     C_R   0.641745 0.062806 0.471110 -0.226000
C12   C     C_R   0.399456 0.576779 0.916648 0.092781
C13   C     C_R   0.514440 0.128924 0.478715 -0.110262
C14   C     C_R   0.399239 0.066332 0.467371 0.133167
C15   C     C_3   0.240270 0.078460 0.520707 -0.463211
C16   C     C_R   0.503112 0.260030 0.496051 0.883219
C17   C     C_3   0.238304 0.937146 0.522065 -0.509610
C18   C     C_R   0.885732 0.541170 0.576019 0.235747
C19   C     C_R   0.968501 0.446807 0.428988 -0.144365
C20   C     C_R   0.112327 0.446222 0.429256 -0.141271
C21   C     C_R   0.027767 0.539124 0.576812 0.212583
C22   C     C_3   0.008017 0.665232 0.620659 -0.529345
C23   C     C_R   0.253203 0.550153 0.969957 0.130964
C24   C     C_3   0.856679 0.669303 0.616953 -0.506197
C25   C     C_R   0.589602 0.503736 0.324079 0.862052
C26   C     C_R   0.353705 0.517676 0.777036 -0.060422
C27   C     C_R   0.639153 0.535265 0.225473 -0.053330
C28   C     C_R   0.157701 0.513039 0.926074 -0.206160
C29   C     C_R   0.207461 0.497884 0.829875 -0.200488
C30   C     C_R   0.448026 0.557249 0.820451 -0.252470
C31   C     C_R   0.495567 0.612154 0.961693 0.047361
C32   C     C_R   0.451030 0.597510 0.058948 0.019833
C33   C     C_R   0.299827 0.587487 0.111681 0.074034
C34   C     C_R   0.203976 0.561617 0.066350 -0.240928
C35   C     C_R   0.635002 0.660156 0.913225 -0.217445
C36   C     C_R   0.734188 0.677084 0.957503 -0.240596
H1    H     H_    0.090336 0.549628 0.107131 0.151433
H2    H     H_    0.199225 0.403830 0.371771 0.140507
H3    H     H_    0.009214 0.662317 0.692552 0.199535
H4    H     H_    0.439634 0.478220 0.214136 0.154333
H5    H     H_    0.081151 0.733177 0.574214 0.219846
H6    H     H_    0.770033 0.671248 0.686328 0.187001
H7    H     H_    0.843370 0.739755 0.567558 0.212466
H8    H     H_    0.851099 0.600291 0.214521 0.159933
H9    H     H_    0.840024 0.714352 0.918619 0.147327
H10   H     H_    0.045392 0.493415 0.966193 0.147291
H11   H     H_    0.132501 0.468488 0.797137 0.155103
H12   H     H_    0.910073 0.680885 0.055807 0.143850
H13   H     H_    0.560782 0.567818 0.778525 0.149338
H14   H     H_    0.667550 0.689137 0.841946 0.139299
H15   H     H_    0.208045 0.538968 0.247004 0.174880
H16   H     H_    0.307549 0.672757 0.230357 0.205974
H17   H     H_    0.735827 0.883423 0.472750 0.168180
H18   H     H_    0.737559 0.109799 0.472288 0.172532
H19   H     H_    0.214768 0.121261 0.590811 0.208085
H20   H     H_    0.180837 0.120069 0.478346 0.203425
H21   H     H_    0.212493 0.898890 0.593154 0.205218
H22   H     H_    0.177082 0.897991 0.480401 0.204226
H23   H     H_    0.947410 0.406021 0.370808 0.145268
N1    N     N_R   0.856900 0.500860 0.500610 -0.105421
N2    N     N_R   0.142540 0.500820 0.500610 -0.101505
N3    N     N_3   0.236712 0.620738 0.208468 -0.461592
O1    O     O_R   0.385310 0.683210 0.499990 -0.612222
O2    O     O_R   0.614650 0.683240 0.500000 -0.621911
O3    O     O_R   0.319830 0.499970 0.632240 -0.614496
O4    O     O_R   0.549170 0.500000 0.632250 -0.612537
O5    O     O_R   0.385350 0.316760 0.500000 -0.615860
O6    O     O_R   0.614690 0.316790 0.500010 -0.617842
O7    O     O_R   0.450830 0.500000 0.367750 -0.622009
O8    O     O_R   0.680170 0.500030 0.367760 -0.619232
Zn1   Zn    Zn3+2 0.346870 0.499980 0.499990 0.937920
Zn2   Zn    Zn3+2 0.653130 0.500020 0.500010 0.941606

loop_
_geom_bond_atom_site_label_1
_geom_bond_atom_site_label_2
_ccdc_geom_bond_type
C4    C26   S    
C7    H4    S    
O4    Zn2   S    
C16   O6    A    
C19   N1    A    
C25   C27   S    
C34   H1    S    
C20   H2    S    
C9    C10   A    
C21   N2    A    
C8    C17   S    
C6    C27   A    
C17   H22   S    
O6    Zn2   S    
C23   C34   A    
C12   C30   A    
C32   C33   A    
N2    Zn1   S    
C35   H14   S    
C17   H21   S    
C2    C3    A    
C1    C9    S    
C36   H9    S    
C16   O5    A    
C6    H8    S    
C23   C28   A    
C15   H20   S    
C4    O4    A    
C24   H6    S    
C11   C13   A    
C12   C23   A    
C28   H10   S    
C3    C32   A    
C11   H18   S    
C35   C36   A    
C29   H11   S    
C18   C24   S    
C22   H3    S    
C1    O1    A    
C22   C24   S    
C21   C22   S    
C28   C29   A    
C30   H13   S    
O1    Zn1   S    
C33   C34   A    
C3    C7    A    
O2    Zn2   S    
C12   C31   A    
C4    O3    A    
C5    H12   S    
C31   C35   A    
O5    Zn1   S    
C25   O7    A    
C10   C11   A    
N1    Zn2   S    
C2    C36   A    
C18   C21   A    
C1    O2    A    
C7    C27   A    
C10   H17   S    
C26   C29   A    
C15   C17   S    
C5    C6    A    
C13   C16   S    
C18   N1    A    
C20   N2    A    
O7    Zn1   S    
C24   H7    S    
C14   C15   S    
C8    C9    A    
O8    Zn2   S    
C25   O8    A    
C8    C14   A    
H15   N3    S    
C19   H23   S    
C13   C14   A    
H16   N3    S    
C31   C32   A    
C2    C5    A    
C22   H5    S    
C19   C20   A    
O3    Zn1   S    
C33   N3    S    
C26   C30   A    
C15   H19   S    
