data_mof_unit_8683.cif
_audit_creation_date              2012-12-11T14:45:31-0500
_audit_creation_method            fapswitch 2.2
_symmetry_space_group_name_H-M    P1
_symmetry_Int_Tables_number       1
_space_group_crystal_system       triclinic
_cell_length_a                    24.93518
_cell_length_b                    7.195215
_cell_length_c                    14.322211
_cell_angle_alpha                 89.999954
_cell_angle_beta                  103.231618
_cell_angle_gamma                 90.000118
_cell_volume                      2501.38893024

loop_
_atom_site_label
_atom_site_type_symbol
_atom_type_description
_atom_site_fract_x
_atom_site_fract_y
_atom_site_fract_z
_atom_type_partial_charge
O1    O     O_R   0.319150 0.364170 0.330530 -0.536667
O2    O     O_R   0.680850 0.635830 0.669470 -0.536667
O3    O     O_R   0.180850 0.864170 0.169470 -0.536667
O4    O     O_R   0.819150 0.135830 0.830530 -0.536667
O5    O     O_R   0.210330 0.696850 0.354180 -0.538936
O6    O     O_R   0.789670 0.303150 0.645820 -0.538936
O7    O     O_R   0.289670 0.196850 0.145820 -0.538936
O8    O     O_R   0.710330 0.803150 0.854180 -0.538936
C1    C     C_R   0.197344 0.525493 0.378192 0.674913
C2    C     C_R   0.802656 0.474507 0.621807 0.674912
C3    C     C_R   0.302656 0.025493 0.121807 0.674912
C4    C     C_R   0.697344 0.974506 0.878193 0.674912
O9    O     O_R   0.320550 0.694110 0.341970 -0.537348
O10   O     O_R   0.679450 0.305890 0.658030 -0.537348
O11   O     O_R   0.179450 0.194110 0.158030 -0.537348
O12   O     O_R   0.820550 0.805890 0.841970 -0.537348
O13   O     O_R   0.291860 0.861000 0.157170 -0.536961
O14   O     O_R   0.708140 0.139000 0.842830 -0.536961
O15   O     O_R   0.208140 0.361000 0.342830 -0.536961
O16   O     O_R   0.791860 0.639000 0.657170 -0.536961
C5    C     C_R   0.341780 0.525886 0.362404 0.708287
C6    C     C_R   0.658220 0.474114 0.637596 0.708287
C7    C     C_R   0.158220 0.025886 0.137596 0.708287
C8    C     C_R   0.841780 0.974114 0.862404 0.708288
O17   O     O_3   0.240460 0.529330 0.189380 -0.375534
O18   O     O_3   0.759540 0.470670 0.810620 -0.375534
O19   O     O_3   0.259540 0.029330 0.310620 -0.375534
O20   O     O_3   0.740460 0.970670 0.689380 -0.375534
V1    V     V_3+5 0.251770 0.805510 0.261240 1.426651
V2    V     V_3+5 0.748230 0.194490 0.738760 1.426651
V3    V     V_3+5 0.248230 0.305510 0.238760 1.426651
V4    V     V_3+5 0.751770 0.694490 0.761240 1.426651
C9    C     C_R   0.102965 0.019728 0.072769 -0.106667
C10   C     C_R   0.897034 0.980272 0.927231 -0.106670
C11   C     C_R   0.397035 0.519729 0.427231 -0.106669
C12   C     C_R   0.602965 0.480271 0.572769 -0.106669
C13   C     C_R   0.957469 0.923053 0.084914 0.439369
C14   C     C_R   0.042531 0.076947 0.915086 0.439372
C15   C     C_R   0.542531 0.423046 0.415087 0.439374
C16   C     C_R   0.457469 0.576954 0.584913 0.439374
C17   C     C_R   0.904636 0.921844 0.022630 -0.273299
C18   C     C_R   0.095365 0.078156 0.977370 -0.273302
C19   C     C_R   0.595364 0.421838 0.477371 -0.273303
C20   C     C_R   0.404636 0.578162 0.522629 -0.273303
C21   C     C_R   0.942668 0.035459 0.892342 -0.201817
C22   C     C_R   0.057332 0.964540 0.107658 -0.201819
C23   C     C_R   0.557332 0.535463 0.607657 -0.201816
C24   C     C_R   0.442668 0.464537 0.392343 -0.201816
C25   C     C_R   0.996269 0.029036 0.951548 0.012384
C26   C     C_R   0.003731 0.970963 0.048452 0.012381
C27   C     C_R   0.503731 0.529039 0.548452 0.012384
C28   C     C_R   0.496269 0.470961 0.451548 0.012384
H1    H     H_    0.063790 0.921601 0.181954 0.160982
H2    H     H_    0.936209 0.078398 0.818045 0.160983
H3    H     H_    0.436209 0.421594 0.318046 0.160984
H4    H     H_    0.563791 0.578406 0.681954 0.160984
H5    H     H_    0.130664 0.124024 0.951323 0.106194
H6    H     H_    0.869336 0.875977 0.048677 0.106197
H7    H     H_    0.369336 0.624033 0.548675 0.106194
H8    H     H_    0.630664 0.375966 0.451325 0.106194
C29   C     C_R   0.664867 0.981177 0.950944 -0.024523
C30   C     C_R   0.335133 0.018823 0.049056 -0.024523
C31   C     C_R   0.835133 0.481179 0.549056 -0.024521
C32   C     C_R   0.164866 0.518821 0.450944 -0.024522
C33   C     C_R   0.658712 0.954554 0.115962 -0.170595
C34   C     C_R   0.341288 0.045445 0.884038 -0.170595
C35   C     C_R   0.841287 0.454577 0.384037 -0.170591
C36   C     C_R   0.158712 0.545426 0.615963 -0.170593
C37   C     C_R   0.690349 0.958262 0.047586 -0.173166
C38   C     C_R   0.309651 0.041738 0.952414 -0.173167
C39   C     C_R   0.809650 0.458278 0.452413 -0.173168
C40   C     C_R   0.190350 0.541724 0.547586 -0.173168
C41   C     C_R   0.607666 0.000203 0.922333 -0.210189
C42   C     C_R   0.392334 0.999797 0.077667 -0.210189
C43   C     C_R   0.892334 0.500197 0.577668 -0.210189
C44   C     C_R   0.107666 0.499802 0.422332 -0.210191
C45   C     C_R   0.574300 0.993787 0.990077 0.083624
C46   C     C_R   0.425700 0.006213 0.009923 0.083624
C47   C     C_R   0.925700 0.493788 0.509923 0.083622
C48   C     C_R   0.074300 0.506212 0.490077 0.083623
C49   C     C_R   0.601134 0.970545 0.088117 0.127338
C50   C     C_R   0.398866 0.029455 0.911883 0.127338
C51   C     C_R   0.898865 0.470560 0.411882 0.127335
C52   C     C_R   0.101134 0.529442 0.588118 0.127336
C53   C     C_R   0.515478 0.006623 0.963754 0.038674
C54   C     C_R   0.484522 0.993377 0.036246 0.038674
C55   C     C_R   0.984522 0.506619 0.536247 0.038674
C56   C     C_R   0.015478 0.493381 0.463753 0.038676
C57   C     C_R   0.513428 0.969034 0.132628 -0.183828
C58   C     C_R   0.486572 0.030966 0.867372 -0.183828
C59   C     C_R   0.986571 0.469051 0.367371 -0.183825
C60   C     C_R   0.013429 0.530951 0.632629 -0.183827
C61   C     C_R   0.570460 0.960226 0.157761 -0.206967
C62   C     C_R   0.429540 0.039773 0.842239 -0.206966
C63   C     C_R   0.929539 0.460249 0.342238 -0.206973
C64   C     C_R   0.070461 0.539754 0.657762 -0.206969
H9    H     H_    0.590760 0.942719 0.232709 0.130332
H10   H     H_    0.409240 0.057281 0.767291 0.130332
H11   H     H_    0.909239 0.442752 0.267290 0.130335
H12   H     H_    0.090761 0.557252 0.732710 0.130334
H13   H     H_    0.409193 0.984864 0.153511 0.101575
H14   H     H_    0.590807 0.015136 0.846488 0.101575
H15   H     H_    0.090806 0.484878 0.346488 0.101574
H16   H     H_    0.909194 0.515119 0.653513 0.101574
H17   H     H_    0.265350 0.057847 0.930118 0.096759
H18   H     H_    0.734650 0.942153 0.069882 0.096760
H19   H     H_    0.234650 0.557827 0.569882 0.096759
H20   H     H_    0.765350 0.442177 0.430117 0.096758
H21   H     H_    0.679227 0.936227 0.190730 0.110204
H22   H     H_    0.320773 0.063773 0.809270 0.110203
H23   H     H_    0.820772 0.436260 0.309269 0.110204
H24   H     H_    0.179228 0.563745 0.690731 0.110204
H25   H     H_    0.493394 0.956693 0.191333 0.145392
H26   H     H_    0.506606 0.043307 0.808666 0.145392
H27   H     H_    0.006605 0.456716 0.308665 0.145394
H28   H     H_    0.993395 0.543286 0.691335 0.145394
O21   O     O_3   0.965260 0.867695 0.180061 -0.560991
C65   C     C_3   0.931479 0.972266 0.227690 0.079021
H29   H     H_    0.891021 0.901789 0.219899 0.126035
H30   H     H_    0.924616 0.117486 0.200051 0.108287
C66   C     C_3   0.959001 0.984269 0.333968 -0.682381
H31   H     H_    0.999189 0.057073 0.343934 0.219254
H32   H     H_    0.932163 0.061804 0.372473 0.187763
H33   H     H_    0.966063 0.843522 0.365485 0.236831
O22   O     O_3   0.034739 0.132305 0.819938 -0.560991
C67   C     C_3   0.068525 0.027751 0.772311 0.079020
H34   H     H_    0.075395 0.882534 0.799952 0.108286
H35   H     H_    0.108980 0.098249 0.780099 0.126038
C68   C     C_3   0.041003 0.015733 0.666033 -0.682380
H36   H     H_    0.033935 0.156477 0.634513 0.236830
H37   H     H_    0.067843 0.938211 0.627529 0.187761
H38   H     H_    0.000818 0.942911 0.656069 0.219256
O23   O     O_3   0.534739 0.367685 0.319940 -0.560991
C69   C     C_3   0.568527 0.472227 0.272312 0.079020
H39   H     H_    0.608979 0.401717 0.280100 0.126040
H40   H     H_    0.575400 0.617443 0.299953 0.108283
C70   C     C_3   0.541004 0.484250 0.166035 -0.682380
H41   H     H_    0.500821 0.557082 0.156071 0.219256
H42   H     H_    0.567846 0.561765 0.127530 0.187760
H43   H     H_    0.533933 0.343507 0.134514 0.236830
O24   O     O_3   0.465261 0.632316 0.680060 -0.560991
C71   C     C_3   0.431473 0.527773 0.727688 0.079020
H44   H     H_    0.424599 0.382558 0.700047 0.108283
H45   H     H_    0.391020 0.598283 0.719900 0.126040
C72   C     C_3   0.458996 0.515750 0.833965 -0.682381
H46   H     H_    0.466067 0.656493 0.865486 0.236830
H47   H     H_    0.432154 0.438235 0.872470 0.187761
H48   H     H_    0.499179 0.442917 0.843928 0.219256

loop_
_geom_bond_atom_site_label_1
_geom_bond_atom_site_label_2
_ccdc_geom_bond_type
O17   V3    S    
C24   H3    S    
C55   C56   A    
O1    C5    A    
C67   H34   S    
C50   C62   A    
O19   V1    S    
C1    C32   S    
O13   V1    S    
O3    C7    A    
C2    C31   S    
O1    V3    S    
C48   C52   A    
C3    C30   S    
O15   V3    S    
C14   O22   S    
C69   C70   S    
C47   C55   A    
C72   H46   S    
C14   C25   A    
C34   C38   A    
C53   C54   A    
C58   H26   S    
O7    C3    A    
C70   H42   S    
C9    C18   A    
O9    V1    S    
C17   H6    S    
C14   C18   A    
C52   C64   A    
O4    C8    A    
C63   H11   S    
C62   H10   S    
C20   H7    S    
C59   H27   S    
C60   C64   A    
C30   C38   A    
C12   C23   A    
O2    V4    S    
C36   H24   S    
O3    V1    S    
C65   H29   S    
C66   H33   S    
C1    O15   A    
C2    O16   A    
C7    C9    S    
O2    C6    A    
C56   C59   A    
O14   V2    S    
C45   C49   A    
C16   C20   A    
C36   C40   A    
C68   H38   S    
C46   C54   A    
C44   H15   S    
O11   C7    A    
C15   C28   A    
C45   C53   A    
O12   C8    A    
C55   C60   A    
C57   C61   A    
C9    C22   A    
C71   C72   S    
C10   C17   A    
O10   V2    S    
C11   C24   A    
C18   H5    S    
C72   H47   S    
C58   C62   A    
O5    V1    S    
C70   H43   S    
C57   H25   S    
O7    V3    S    
C27   C28   A    
C36   C52   A    
O18   V4    S    
C15   C19   A    
C67   C68   S    
C29   C41   A    
C54   C57   A    
C8    C10   S    
C65   C66   S    
O8    V4    S    
O5    C1    A    
C34   C50   A    
O23   C69   S    
C49   C61   A    
C46   C50   A    
C33   C49   A    
C40   H19   S    
C21   C25   A    
O8    C4    A    
C51   C63   A    
C32   C44   A    
O9    C5    A    
C10   C21   A    
C35   C51   A    
C34   H22   S    
C11   C20   A    
C60   H28   S    
C33   H21   S    
C66   H31   S    
C19   H8    S    
C42   H13   S    
C35   H23   S    
C41   H14   S    
O6    V2    S    
C31   C39   A    
C21   H2    S    
C43   H16   S    
C71   H45   S    
C61   H9    S    
C72   H48   S    
C6    C12   S    
C68   H36   S    
O16   V4    S    
C29   C37   A    
C3    O13   A    
C37   H18   S    
C67   H35   S    
C44   C48   A    
C38   H17   S    
O6    C2    A    
C23   C27   A    
C53   C58   A    
O11   V3    S    
C69   H39   S    
C5    C11   S    
O12   V4    S    
C16   C27   A    
C15   O23   S    
C70   H41   S    
C22   C26   A    
O21   C65   S    
O10   C6    A    
O20   V2    S    
C48   C56   A    
O24   C71   S    
C47   C51   A    
C4    C29   S    
O22   C67   S    
C31   C43   A    
C33   C37   A    
C64   H12   S    
C22   H1    S    
C13   C26   A    
C69   H40   S    
C35   C39   A    
C32   C40   A    
C13   C17   A    
C65   H30   S    
C66   H32   S    
C59   C63   A    
C24   C28   A    
C13   O21   S    
C25   C26   A    
C42   C46   A    
C4    O14   A    
C41   C45   A    
C71   H44   S    
C30   C42   A    
C12   C19   A    
C16   O24   S    
C43   C47   A    
O4    V2    S    
C39   H20   S    
C23   H4    S    
C68   H37   S    
