data_mof_unit_16641.cif
_audit_creation_date              2013-03-05T15:41:39-0500
_audit_creation_method            fapswitch 2.2
_symmetry_space_group_name_H-M    P1
_symmetry_Int_Tables_number       1
_space_group_crystal_system       triclinic
_cell_length_a                    17.38749
_cell_length_b                    8.783282
_cell_length_c                    7.474628
_cell_angle_alpha                 102.863766
_cell_angle_beta                  91.597062
_cell_angle_gamma                 93.455288
_cell_volume                      1109.84641514

loop_
_atom_site_label
_atom_site_type_symbol
_atom_site_description
_atom_site_fract_x
_atom_site_fract_y
_atom_site_fract_z
_atom_type_partial_charge
O1    O     O_R   0.505650 0.286040 0.618880 -0.571479
O2    O     O_R   0.494350 0.713960 0.381120 -0.571480
O3    O     O_R   0.490960 0.256910 0.309800 -0.520418
O4    O     O_R   0.509040 0.743090 0.690200 -0.520417
C1    C     C_R   0.497962 0.200608 0.454189 0.806350
C2    C     C_R   0.502039 0.799392 0.545811 0.806347
O5    O     O_R   0.394600 0.516230 0.672450 -0.594068
O6    O     O_R   0.605400 0.483770 0.327550 -0.594068
O7    O     O_R   0.379910 0.487100 0.363380 -0.531466
O8    O     O_R   0.620090 0.512900 0.636620 -0.531465
C3    C     C_R   0.351144 0.502948 0.523199 0.812273
C4    C     C_R   0.648856 0.497053 0.476801 0.812275
Cu1   Cu    Cu3+1 0.508700 0.517250 0.683000 1.119151
Cu2   Cu    Cu3+1 0.491300 0.482750 0.317000 1.119150
C5    C     C_R   0.266676 0.499331 0.530495 -0.177885
C6    C     C_R   0.733324 0.500677 0.469507 -0.177884
C7    C     C_R   0.219114 0.477650 0.368313 0.367004
C8    C     C_R   0.780885 0.522363 0.631689 0.367005
C9    C     C_R   0.139768 0.461208 0.378127 -0.195627
C10   C     C_R   0.860231 0.538813 0.621877 -0.195627
C11   C     C_R   0.105941 0.476100 0.547783 0.088400
C12   C     C_R   0.894059 0.523924 0.452223 0.088401
C13   C     C_R   0.152306 0.497774 0.708449 -0.106840
C14   C     C_R   0.847694 0.502245 0.291555 -0.106840
C15   C     C_R   0.232245 0.509256 0.699378 -0.142325
C16   C     C_R   0.767755 0.490756 0.300624 -0.142325
C17   C     C_2   0.022182 0.472267 0.558901 -0.174671
C18   C     C_2   0.977818 0.527761 0.441107 -0.174672
H1    H     H_    0.732500 0.473453 0.176136 0.251614
H2    H     H_    0.267501 0.526556 0.823866 0.251614
H3    H     H_    0.002850 0.574602 0.331497 0.152251
H4    H     H_    0.997150 0.425425 0.668510 0.152251
H5    H     H_    0.126674 0.508279 0.840768 0.166514
H6    H     H_    0.873327 0.491743 0.159237 0.166513
H7    H     H_    0.895205 0.560497 0.748273 0.153578
H8    H     H_    0.104794 0.439527 0.251732 0.153578
C19   C     C_2   0.497431 0.034030 0.427458 0.027225
C20   C     C_2   0.502571 0.965970 0.572542 0.027219
N1    N     N_2   0.478180 0.456750 0.041980 -0.162764
N2    N     N_2   0.521820 0.543250 0.958020 -0.162762
H9    H     H_    0.437279 0.382673 0.958317 0.265115
H10   H     H_    0.562721 0.617326 0.041683 0.265118
N3    N     N_R   0.249590 0.477917 0.192900 0.111023
O9    O     O_R   0.234579 0.357538 0.056959 -0.384287
O10   O     O_R   0.280268 0.607855 0.161727 -0.346341
N4    N     N_R   0.750410 0.522092 0.807102 0.111024
O11   O     O_R   0.765416 0.642473 0.943042 -0.384284
O12   O     O_R   0.719736 0.392151 0.838275 -0.346338
N5    N     N_R   0.491184 0.945559 0.240573 0.149786
O13   O     O_R   0.423520 0.896609 0.163272 -0.266368
O14   O     O_R   0.551701 0.934797 0.141250 -0.295748
N6    N     N_R   0.508819 0.054442 0.759427 0.149784
O15   O     O_R   0.576485 0.103409 0.836717 -0.266373
O16   O     O_R   0.448304 0.065196 0.858757 -0.295740

loop_
_geom_bond_atom_site_label_1
_geom_bond_atom_site_label_2
_geom_bond_distance
_ccdc_geom_bond_type
O7    Cu2   1.978195 S    
C7    N3    1.428231 S    
C19   C20   1.353167 D    
C1    C19   1.431356 S    
C19   N5    1.437006 S    
O6    C4    1.309012 A    
N3    O9    1.300813 A    
C17   C18   1.344007 D    
C3    C5    1.469910 S    
C11   C13   1.397896 A    
C11   C17   1.459829 S    
N1    H9    1.028793 S    
C6    C8    1.418466 A    
C12   C18   1.459833 S    
Cu1   Cu2   2.690945 S    
O5    C3    1.309014 A    
N3    O10   1.301271 A    
C14   C16   1.392153 A    
O2    C2    1.289859 A    
O3    Cu2   1.971980 S    
O8    C4    1.290052 A    
O1    C1    1.289859 A    
C8    N4    1.428230 S    
N2    H10   1.028793 S    
C9    C11   1.395768 A    
N6    O16   1.300610 A    
C8    C10   1.384178 A    
C9    H8    1.082836 S    
O7    C3    1.290053 A    
C6    C16   1.399617 A    
O2    Cu2   1.977072 S    
C12   C14   1.397896 A    
C5    C15   1.399618 A    
C20   N6    1.437014 S    
C10   C12   1.395768 A    
N4    O12   1.301270 A    
O3    C1    1.289081 A    
O5    Cu1   1.982681 S    
C13   C15   1.392152 A    
O1    Cu1   1.977072 S    
N6    O15   1.301326 A    
C16   H1    1.076436 S    
O4    C2    1.289081 A    
N5    O13   1.301301 A    
N5    O14   1.300599 A    
N1    N2    1.310035 D    
C5    C7    1.418468 A    
N4    O11   1.300804 A    
C15   H2    1.076437 S    
Cu1   N2    2.022011 S    
O6    Cu2   1.982684 S    
C7    C9    1.384179 A    
C17   H4    1.085503 S    
C10   H7    1.082835 S    
C2    C20   1.431355 S    
C18   H3    1.085502 S    
C14   H6    1.083621 S    
C4    C6    1.469911 S    
O4    Cu1   1.971980 S    
Cu2   N1    2.022011 S    
C13   H5    1.083622 S    
O8    Cu1   1.978195 S    
