data_mof_unit_38532.cif
_audit_creation_date              2012-12-10T20:27:15-0500
_audit_creation_method            fapswitch 2.2
_symmetry_space_group_name_H-M    P1
_symmetry_Int_Tables_number       1
_space_group_crystal_system       triclinic
_cell_length_a                    10.604134
_cell_length_b                    10.648389
_cell_length_c                    9.957406
_cell_angle_alpha                 90.303651
_cell_angle_beta                  103.345826
_cell_angle_gamma                 91.493857
_cell_volume                      1093.55017432

loop_
_atom_site_label
_atom_site_type_symbol
_atom_type_description
_atom_site_fract_x
_atom_site_fract_y
_atom_site_fract_z
_atom_type_partial_charge
C1    C     C_R   0.504263 0.260896 0.500556 0.892056
C2    C     C_R   0.603548 0.545866 0.097163 -0.103965
C3    C     C_R   0.604460 0.543873 0.954057 -0.126853
C4    C     C_R   0.259647 0.515154 0.444006 0.873786
C5    C     C_R   0.388182 0.470786 0.903453 0.101288
C6    C     C_3   0.281018 0.367199 0.872305 0.145953
C7    C     C_3   0.323929 0.333450 0.027685 0.086736
C8    C     C_R   0.502542 0.739384 0.500441 0.877837
C9    C     C_R   0.741617 0.506028 0.557149 0.935317
C10   C     C_2   0.121655 0.545302 0.415924 -0.125326
C11   C     C_2   0.069290 0.603957 0.511467 0.137727
C12   C     C_R   0.509506 0.129175 0.497547 -0.107182
C13   C     C_2   0.879364 0.533090 0.587748 -0.416555
C14   C     C_2   0.929572 0.592652 0.493350 -0.148905
C15   C     C_R   0.600360 0.066494 0.595183 0.110694
C16   C     C_3   0.282263 0.254241 0.772075 -0.311921
C17   C     C_3   0.168615 0.251818 0.642210 -0.307051
C18   C     C_3   0.192004 0.170670 0.524564 -0.905757
C19   C     C_3   0.215557 0.311032 0.107129 -0.378421
C20   C     C_3   0.132896 0.189956 0.060609 -0.397916
C21   C     C_3   0.005404 0.189359 0.106700 -0.902705
C22   C     C_3   0.143268 0.674185 0.640925 -0.399048
C23   C     C_R   0.430772 0.063782 0.385943 -0.298296
C24   C     C_3   0.203437 0.798389 0.607149 -0.329033
C25   C     C_3   0.284719 0.860542 0.738766 -0.894533
C26   C     C_R   0.426411 0.933900 0.386078 0.085721
C27   C     C_R   0.505965 0.871576 0.497342 -0.093543
C28   C     C_R   0.599895 0.938344 0.594017 0.077358
C29   C     C_3   0.639880 0.932066 0.747876 -0.486267
C30   C     C_3   0.638096 0.074913 0.749054 -0.474426
C31   C     C_R   0.393544 0.459978 0.045173 0.107228
H1    H     H_    0.868929 0.620189 0.394883 0.179149
H2    H     H_    0.152457 0.507155 0.902539 0.152301
H3    H     H_    0.079557 0.367089 0.849598 0.191044
H4    H     H_    0.245104 0.226539 0.460867 0.252008
H5    H     H_    0.246888 0.086511 0.563432 0.275084
H6    H     H_    0.097616 0.139309 0.457550 0.240491
H7    H     H_    0.080156 0.214214 0.671934 0.196922
H8    H     H_    0.146191 0.347161 0.602113 0.254830
H9    H     H_    0.377151 0.247647 0.749645 0.234793
H10   H     H_    0.270437 0.164520 0.824218 0.156141
H11   H     H_    0.024325 0.191578 0.220871 0.261008
H12   H     H_    0.735768 0.119761 0.787266 0.201209
H13   H     H_    0.947325 0.271351 0.063864 0.264355
H14   H     H_    0.948271 0.102189 0.068594 0.253637
H15   H     H_    0.109503 0.178383 0.946944 0.225659
H16   H     H_    0.187180 0.106387 0.104960 0.210052
H17   H     H_    0.260427 0.302187 0.218421 0.222974
H18   H     H_    0.152708 0.393224 0.095232 0.193770
H19   H     H_    0.477703 0.242182 0.152424 0.231146
H20   H     H_    0.376808 0.145098 0.043221 0.165725
H21   H     H_    0.220931 0.892681 0.805535 0.248895
H22   H     H_    0.354850 0.793495 0.797223 0.269217
H23   H     H_    0.688124 0.581737 0.171305 0.141643
H24   H     H_    0.340424 0.942592 0.712840 0.249972
H25   H     H_    0.264825 0.781325 0.533578 0.224525
H26   H     H_    0.125748 0.862619 0.557466 0.216719
H27   H     H_    0.075863 0.697569 0.707458 0.196050
H28   H     H_    0.217068 0.616249 0.706234 0.243979
H29   H     H_    0.070155 0.546515 0.207668 0.182812
H30   H     H_    0.047250 0.406139 0.280993 0.197180
H31   H     H_    0.241998 0.896458 0.280973 0.169826
H32   H     H_    0.353853 0.890759 0.184706 0.184376
H33   H     H_    0.689994 0.577284 0.921964 0.142828
H34   H     H_    0.938847 0.506373 0.686500 0.159821
H35   H     H_    0.365607 0.112764 0.304813 0.153221
H36   H     H_    0.565492 0.887173 0.795392 0.217576
H37   H     H_    0.738902 0.894961 0.783596 0.197148
H38   H     H_    0.560511 0.112479 0.794934 0.209846
N1    N     N_R   0.499160 0.499140 0.142600 -0.107229
N2    N     N_R   0.499160 0.499180 0.856960 -0.108398
N3    N     N_3   0.154371 0.429005 0.838862 -0.498544
N4    N     N_3   0.421133 0.234325 0.052125 -0.475804
N5    N     N_3   0.038299 0.503051 0.288139 -0.483207
N6    N     N_3   0.334886 0.866433 0.279882 -0.449896
O1    O     O_R   0.500020 0.316790 0.614700 -0.619330
O2    O     O_R   0.500000 0.316760 0.385350 -0.636293
O3    O     O_R   0.317820 0.500020 0.571850 -0.606162
O4    O     O_R   0.317800 0.499980 0.342510 -0.624354
O5    O     O_R   0.500000 0.683240 0.614650 -0.621305
O6    O     O_R   0.499980 0.683210 0.385300 -0.595708
O7    O     O_R   0.682200 0.500020 0.657490 -0.618779
O8    O     O_R   0.682180 0.499980 0.428150 -0.608927
Zn1   Zn    Zn3+2 0.500010 0.500020 0.653140 0.930531
Zn2   Zn    Zn3+2 0.499990 0.499980 0.346860 0.931476

loop_
_geom_bond_atom_site_label_1
_geom_bond_atom_site_label_2
_ccdc_geom_bond_type
C1    O2    A    
C19   C20   S    
O5    Zn1   S    
O1    Zn1   S    
C7    N4    S    
C13   H34   S    
C3    H33   S    
C6    N3    S    
C12   C23   A    
C26   C27   A    
C23   H35   S    
C28   C29   S    
C18   H6    S    
C25   H22   S    
C5    C6    S    
C11   C14   S    
C29   H37   S    
C17   H8    S    
C23   C26   A    
C9    C13   S    
H2    N3    S    
C29   H36   S    
C31   N1    A    
C24   H26   S    
C18   H4    S    
C9    O7    A    
O2    Zn2   S    
C13   C14   D    
C1    C12   S    
C26   N6    S    
C21   H14   S    
C7    C31   S    
C8    O6    A    
H20   N4    S    
C24   C25   S    
C4    O4    A    
C2    H23   S    
H19   N4    S    
C22   H28   S    
C19   H17   S    
C16   C17   S    
C3    N2    A    
C4    O3    A    
C29   C30   S    
C21   H13   S    
C19   H18   S    
C12   C15   A    
C17   C18   S    
C9    O8    A    
O8    Zn2   S    
C16   H9    S    
C7    C19   S    
C22   C24   S    
H31   N6    S    
C4    C10   S    
H3    N3    S    
O4    Zn2   S    
C30   H38   S    
C15   C30   S    
N2    Zn1   S    
C1    O1    A    
C25   H24   S    
C14   H1    S    
C22   H27   S    
C6    C7    S    
H30   N5    S    
C24   H25   S    
C11   C22   S    
O7    Zn1   S    
C2    C3    A    
C25   H21   S    
C5    N2    A    
C10   N5    S    
C15   C28   A    
H32   N6    S    
H29   N5    S    
C17   H7    S    
C30   H12   S    
C20   H15   S    
C20   H16   S    
C10   C11   D    
C6    C16   S    
C21   H11   S    
O3    Zn1   S    
C20   C21   S    
C27   C28   A    
C8    O5    A    
C8    C27   S    
C2    N1    A    
N1    Zn2   S    
C18   H5    S    
C16   H10   S    
O6    Zn2   S    
C5    C31   A    
