data_mof_unit_53878.cif
_audit_creation_date              2012-12-11T21:06:18-0500
_audit_creation_method            fapswitch 2.2
_symmetry_space_group_name_H-M    P1
_symmetry_Int_Tables_number       1
_space_group_crystal_system       triclinic
_cell_length_a                    36.189992
_cell_length_b                    39.643146
_cell_length_c                    8.789196
_cell_angle_alpha                 89.933258
_cell_angle_beta                  93.304083
_cell_angle_gamma                 89.953228
_cell_volume                      12588.7543922

loop_
_atom_site_label
_atom_site_type_symbol
_atom_type_description
_atom_site_fract_x
_atom_site_fract_y
_atom_site_fract_z
_atom_type_partial_charge
Ba1   Ba    Ba6+2 0.000060 0.523150 0.844950 1.747981
Ba2   Ba    Ba6+2 0.000060 0.476850 0.344950 1.744078
Ba3   Ba    Ba6+2 0.500060 0.023150 0.844950 1.747982
Ba4   Ba    Ba6+2 0.500060 0.976850 0.344950 1.744078
C1    C     C_3   0.995691 0.689980 0.657125 -0.231820
C2    C     C_2   0.914315 0.636579 0.303226 -0.062320
C3    C     C_R   0.640365 0.816429 0.751635 0.615929
C4    C     C_2   0.096113 0.630306 0.405898 -0.009262
C5    C     C_2   0.105639 0.376035 0.932009 0.036139
C6    C     C_2   0.596113 0.130306 0.405898 -0.009262
C7    C     C_2   0.605640 0.876035 0.932010 0.036136
C8    C     C_3   0.060598 0.610876 0.415637 -0.109948
C9    C     C_3   0.079347 0.404362 0.965361 -0.076097
C10   C     C_3   0.560598 0.110876 0.415637 -0.109950
C11   C     C_3   0.579348 0.904362 0.965362 -0.076100
C12   C     C_1   0.080504 0.576660 0.199038 0.031513
C13   C     C_2   0.395107 0.877992 0.753241 -0.037724
C14   C     C_1   0.083396 0.424179 0.704522 -0.042315
C15   C     C_1   0.580504 0.076660 0.199038 0.031513
C16   C     C_1   0.583396 0.924179 0.704522 -0.042315
C17   C     C_2   0.106500 0.599773 0.168976 -0.137199
C18   C     C_2   0.109259 0.400860 0.674568 -0.174670
C19   C     C_2   0.606500 0.099773 0.168976 -0.137199
C20   C     C_2   0.609259 0.900860 0.674569 -0.174669
C21   C     C_2   0.116496 0.627347 0.282804 0.176708
C22   C     C_2   0.121417 0.375143 0.796103 0.231907
C23   C     C_2   0.616496 0.127347 0.282804 0.176708
C24   C     C_2   0.414315 0.136579 0.303226 -0.062320
C25   C     C_2   0.621418 0.875143 0.796104 0.231908
C26   C     C_R   0.743835 0.284837 0.113417 0.042662
C27   C     C_R   0.748103 0.718384 0.608025 -0.026673
C28   C     C_R   0.243835 0.784837 0.113417 0.042662
C29   C     C_R   0.248103 0.218383 0.608024 -0.026673
C30   C     C_R   0.778075 0.274607 0.057695 0.070118
C31   C     C_R   0.784829 0.728869 0.584341 0.060582
C32   C     C_R   0.278075 0.774607 0.057695 0.070118
C33   C     C_R   0.284828 0.228869 0.584340 0.060583
C34   C     C_R   0.786974 0.239737 0.051815 -0.006911
C35   C     C_3   0.921322 0.406482 0.722417 -0.036400
C36   C     C_R   0.794898 0.763177 0.606452 0.021913
C37   C     C_R   0.286974 0.739737 0.051815 -0.006911
C38   C     C_R   0.294898 0.263177 0.606452 0.021914
C39   C     C_3   0.868329 0.514650 0.091161 0.122002
C40   C     C_3   0.867614 0.486201 0.595764 0.146105
C41   C     C_3   0.368329 0.014650 0.091161 0.122002
C42   C     C_3   0.367614 0.986201 0.595764 0.146105
C43   C     C_R   0.739420 0.319541 0.151292 -0.122817
C44   C     C_R   0.741100 0.683002 0.616393 -0.105092
C45   C     C_R   0.239420 0.819541 0.151291 -0.122817
C46   C     C_3   0.947115 0.613795 0.284588 -0.134915
C47   C     C_R   0.241100 0.183001 0.616393 -0.105092
C48   C     C_R   0.849415 0.254615 0.977889 -0.055010
C49   C     C_R   0.859966 0.748217 0.577074 -0.044285
C50   C     C_R   0.349415 0.754615 0.977890 -0.055010
C51   C     C_R   0.359966 0.248217 0.577074 -0.044285
C52   C     C_R   0.264490 0.679137 0.053429 -0.072806
C53   C     C_R   0.274184 0.323938 0.620615 -0.076328
C54   C     C_R   0.764490 0.179137 0.053429 -0.072806
C55   C     C_R   0.774185 0.823938 0.620615 -0.076328
C56   C     C_R   0.239971 0.655674 0.112783 -0.010231
C57   C     C_3   0.421322 0.906482 0.722417 -0.036400
C58   C     C_R   0.248493 0.346833 0.674496 -0.075364
C59   C     C_R   0.739971 0.155674 0.112783 -0.010231
C60   C     C_R   0.748493 0.846833 0.674496 -0.075364
C61   C     C_R   0.824006 0.231282 0.029793 -0.095359
C62   C     C_R   0.832819 0.770909 0.619341 -0.018816
C63   C     C_R   0.324006 0.731282 0.029794 -0.095359
C64   C     C_R   0.332819 0.270909 0.619341 -0.018817
C65   C     C_3   0.827285 0.519464 0.029033 -0.380933
C66   C     C_3   0.824930 0.482624 0.551703 -0.303225
C67   C     C_3   0.327285 0.019464 0.029033 -0.380934
C68   C     C_3   0.447115 0.113795 0.284588 -0.134915
C69   C     C_3   0.324930 0.982624 0.551703 -0.303225
C70   C     C_3   0.122607 0.486872 0.024262 0.219791
C71   C     C_3   0.130007 0.503326 0.493794 0.149530
C72   C     C_3   0.622607 0.986872 0.024262 0.219792
C73   C     C_3   0.630007 0.003326 0.493794 0.149526
C74   C     C_3   0.157879 0.495572 0.941191 -0.185230
C75   C     C_3   0.170324 0.490285 0.501972 -0.250203
C76   C     C_3   0.657879 0.995572 0.941190 -0.185231
C77   C     C_3   0.670324 0.990285 0.501970 -0.250204
C78   C     C_3   0.006367 0.654876 0.604036 0.206963
C79   C     C_1   0.920464 0.422813 0.989406 -0.001975
C80   C     C_3   0.990254 0.356371 0.076945 0.234417
C81   C     C_3   0.506367 0.154876 0.604034 0.206959
C82   C     C_3   0.490254 0.856371 0.076945 0.234418
C83   C     C_R   0.819236 0.357742 0.953344 0.654931
C84   C     C_R   0.828153 0.648706 0.454543 0.621390
C85   C     C_R   0.319236 0.857742 0.953344 0.654931
C86   C     C_R   0.328153 0.148706 0.454542 0.621389
C87   C     C_2   0.801855 0.493273 0.089961 0.644247
C88   C     C_2   0.802537 0.512112 0.605348 0.495858
C89   C     C_2   0.301855 0.993273 0.089961 0.644246
C90   C     C_1   0.922719 0.577502 0.489549 0.052843
C91   C     C_2   0.302537 0.012112 0.605348 0.495857
C92   C     C_2   0.811746 0.554153 0.058224 0.421458
C93   C     C_2   0.808107 0.449337 0.598398 0.600114
C94   C     C_2   0.311746 0.054153 0.058224 0.421461
C95   C     C_2   0.308107 0.949337 0.598398 0.600113
C96   C     C_2   0.126519 0.455430 0.120256 0.380538
C97   C     C_2   0.128408 0.541209 0.493161 0.536442
C98   C     C_2   0.626520 0.955430 0.120257 0.380531
C99   C     C_2   0.628408 0.041210 0.493163 0.536439
C100  C     C_2   0.173427 0.466412 0.857064 0.609258
C101  C     C_1   0.420464 0.922813 0.989406 -0.001975
C102  C     C_2   0.189750 0.496424 0.357999 0.558076
C103  C     C_2   0.673427 0.966413 0.857062 0.609257
C104  C     C_2   0.689749 0.996424 0.357996 0.558086
C105  C     C_2   0.028371 0.713230 0.673890 0.645440
C106  C     C_2   0.988100 0.293992 0.029830 0.628482
C107  C     C_2   0.528371 0.213231 0.673891 0.645434
C108  C     C_2   0.488101 0.793992 0.029830 0.628482
C109  C     C_2   0.031135 0.719268 0.198619 0.542068
C110  C     C_2   0.030303 0.306600 0.692157 0.588220
C111  C     C_2   0.531135 0.219268 0.198617 0.542071
C112  C     C_3   0.971835 0.322884 0.113237 -0.220399
C113  C     C_1   0.422719 0.077502 0.489549 0.052843
C114  C     C_2   0.530304 0.806601 0.692157 0.588218
C115  C     C_2   0.874414 0.399806 0.156260 0.683654
C116  C     C_2   0.878499 0.602210 0.665204 0.600191
C117  C     C_2   0.374414 0.899806 0.156260 0.683654
C118  C     C_2   0.378499 0.102210 0.665204 0.600190
C119  C     C_2   0.755826 0.380274 0.127463 0.650284
C120  C     C_2   0.757044 0.623171 0.558134 0.674799
C121  C     C_2   0.255826 0.880274 0.127463 0.650283
C122  C     C_2   0.257044 0.123171 0.558134 0.674801
C123  C     C_2   0.716042 0.329819 0.277937 0.515401
C124  C     C_2   0.895570 0.398631 0.018295 -0.219471
C125  C     C_2   0.712549 0.670392 0.718730 0.488835
C126  C     C_2   0.216042 0.829820 0.277937 0.515401
C127  C     C_2   0.212549 0.170392 0.718729 0.488834
C128  C     C_2   0.885653 0.240879 0.935689 0.594669
C129  C     C_2   0.898248 0.761660 0.571958 0.587756
C130  C     C_2   0.385653 0.740879 0.935690 0.594669
C131  C     C_2   0.398248 0.261660 0.571958 0.587756
C132  C     C_2   0.289870 0.665967 0.940298 0.523185
C133  C     C_2   0.303861 0.339279 0.533621 0.513254
C134  C     C_2   0.789870 0.165967 0.940297 0.523188
C135  C     C_2   0.899322 0.602405 0.525430 -0.167165
C136  C     C_2   0.803861 0.839279 0.533621 0.513254
C137  C     C_2   0.123260 0.601819 0.019504 0.631380
C138  C     C_2   0.126174 0.399717 0.524366 0.591123
C139  C     C_2   0.623260 0.101819 0.019505 0.631380
C140  C     C_2   0.626174 0.899717 0.524366 0.591122
C141  C     C_2   0.055778 0.679127 0.015138 0.544264
C142  C     C_2   0.056356 0.315821 0.444788 0.464812
C143  C     C_2   0.555778 0.179127 0.015138 0.544257
C144  C     C_2   0.556357 0.815821 0.444788 0.464812
C145  C     C_2   0.872694 0.521230 0.253032 0.411543
C146  C     C_2   0.395570 0.898631 0.018295 -0.219470
C147  C     C_2   0.876591 0.478129 0.754181 0.312150
C148  C     C_2   0.372695 0.021230 0.253032 0.411544
C149  C     C_2   0.376592 0.978129 0.754181 0.312149
C150  C     C_2   0.892128 0.539614 0.017487 0.548625
C151  C     C_2   0.889296 0.461340 0.511138 0.501348
C152  C     C_2   0.392128 0.039614 0.017487 0.548626
C153  C     C_2   0.389296 0.961340 0.511138 0.501347
C154  C     C_2   0.399322 0.102405 0.525429 -0.167164
C155  C     C_2   0.882085 0.374424 0.893190 0.197571
C156  C     C_2   0.892798 0.632358 0.421807 0.191684
C157  C     C_2   0.382085 0.874424 0.893190 0.197572
C158  C     C_2   0.392798 0.132358 0.421806 0.191686
C159  C     C_R   0.804233 0.299376 0.013738 -0.056660
C160  C     C_3   0.495691 0.189980 0.657123 -0.231818
C161  C     C_R   0.812132 0.704766 0.545036 -0.063952
C162  C     C_R   0.304233 0.799376 0.013738 -0.056660
C163  C     C_R   0.312132 0.204766 0.545036 -0.063952
C164  C     C_R   0.794906 0.334108 0.016785 -0.009127
C165  C     C_R   0.801792 0.670822 0.515818 -0.055619
C166  C     C_R   0.294906 0.834108 0.016785 -0.009128
C167  C     C_R   0.301792 0.170822 0.515818 -0.055619
C168  C     C_R   0.762867 0.344222 0.091681 -0.109052
C169  C     C_R   0.766343 0.659672 0.557052 -0.070999
C170  C     C_R   0.262867 0.844222 0.091681 -0.109052
C171  C     C_3   0.471835 0.822884 0.113237 -0.220399
C172  C     C_R   0.266343 0.159672 0.557051 -0.070999
C173  C     C_R   0.839541 0.289369 0.966064 -0.077162
C174  C     C_R   0.849759 0.714597 0.535867 -0.081091
C175  C     C_R   0.339541 0.789369 0.966065 -0.077162
C176  C     C_R   0.349758 0.214597 0.535867 -0.081091
C177  C     C_3   0.996260 0.665227 0.132299 0.216953
C178  C     C_3   0.007099 0.354824 0.525074 0.335698
C179  C     C_3   0.496260 0.165227 0.132299 0.216956
C180  C     C_3   0.507099 0.854824 0.525074 0.335701
C181  C     C_2   0.940863 0.418625 0.870095 -0.197472
C182  C     C_R   0.864533 0.314836 0.920937 0.599231
C183  C     C_2   0.944377 0.580685 0.371569 -0.179457
C184  C     C_2   0.440864 0.918625 0.870095 -0.197472
C185  C     C_2   0.444377 0.080685 0.371569 -0.179457
C186  C     C_2   0.057003 0.581038 0.308670 -0.273530
C187  C     C_2   0.061964 0.419547 0.820348 -0.217317
C188  C     C_2   0.557003 0.081038 0.308670 -0.273531
C189  C     C_2   0.561964 0.919547 0.820348 -0.217315
C190  C     C_R   0.216254 0.759903 0.138696 0.045090
C191  C     C_R   0.220490 0.243475 0.633864 0.005620
C192  C     C_R   0.716254 0.259903 0.138696 0.045090
C193  C     C_R   0.876033 0.689694 0.497749 0.566819
C194  C     C_R   0.720490 0.743475 0.633865 0.005620
C195  C     C_R   0.259687 0.714512 0.080625 -0.034472
C196  C     C_R   0.267300 0.288382 0.627835 0.031091
C197  C     C_R   0.759687 0.214512 0.080625 -0.034472
C198  C     C_R   0.767300 0.788382 0.627836 0.031092
C199  C     C_R   0.225064 0.725043 0.132450 0.060348
C200  C     C_R   0.230669 0.277906 0.652630 0.062884
C201  C     C_R   0.725064 0.225043 0.132450 0.060348
C202  C     C_R   0.730669 0.777906 0.652631 0.062884
C203  C     C_R   0.179042 0.768730 0.159355 -0.033250
C204  C     C_R   0.364533 0.814836 0.920937 0.599231
C205  C     C_R   0.182293 0.235748 0.630362 -0.105044
C206  C     C_R   0.679042 0.268730 0.159356 -0.033250
C207  C     C_R   0.682293 0.735748 0.630363 -0.105044
C208  C     C_R   0.153297 0.744900 0.200727 -0.004554
C209  C     C_R   0.156229 0.259210 0.673134 -0.031339
C210  C     C_R   0.653297 0.244900 0.200727 -0.004555
C211  C     C_R   0.656229 0.759210 0.673136 -0.031339
C212  C     C_R   0.162881 0.710736 0.212980 -0.013374
C213  C     C_R   0.166623 0.292413 0.708380 -0.026037
C214  C     C_R   0.662881 0.210736 0.212981 -0.013374
C215  C     C_R   0.376033 0.189694 0.497749 0.566818
C216  C     C_R   0.666623 0.792414 0.708381 -0.026038
C217  C     C_R   0.198317 0.700563 0.173326 -0.081636
C218  C     C_R   0.203519 0.302231 0.691235 -0.073270
C219  C     C_R   0.698317 0.200563 0.173326 -0.081636
C220  C     C_R   0.703520 0.802231 0.691235 -0.073270
C221  C     C_R   0.206779 0.665962 0.172642 -0.069794
C222  C     C_R   0.213089 0.336417 0.710296 -0.018166
C223  C     C_R   0.706779 0.165962 0.172642 -0.069794
C224  C     C_R   0.713089 0.836417 0.710297 -0.018166
C225  C     C_3   0.021156 0.693598 0.076642 -0.186774
C226  C     C_2   0.895107 0.377992 0.753241 -0.037724
C227  C     C_3   0.021938 0.318538 0.531479 -0.272142
C228  C     C_3   0.521156 0.193598 0.076641 -0.186774
C229  C     C_3   0.521938 0.818538 0.531479 -0.272142
C230  C     C_R   0.180514 0.642104 0.219618 0.613669
C231  C     C_R   0.186062 0.360035 0.751878 0.668636
C232  C     C_R   0.680514 0.142104 0.219618 0.613670
C233  C     C_R   0.686062 0.860036 0.751878 0.668637
C234  C     C_R   0.136924 0.686435 0.255640 0.604978
C235  C     C_R   0.140365 0.316429 0.751634 0.615929
C236  C     C_R   0.636923 0.186435 0.255640 0.604980
H1    H     H_    0.098867 0.483449 0.939595 -0.033629
H2    H     H_    0.114441 0.358463 0.021815 0.117878
H3    H     H_    0.475225 0.817809 0.237141 0.060914
H4    H     H_    0.244977 0.628949 0.097822 0.173985
H5    H     H_    0.255020 0.373539 0.674519 0.138050
H6    H     H_    0.744977 0.128948 0.097822 0.173985
H7    H     H_    0.755020 0.873539 0.674519 0.138051
H8    H     H_    0.124362 0.625954 0.961582 -0.018915
H9    H     H_    0.128247 0.422095 0.455490 0.025015
H10   H     H_    0.624362 0.125954 0.961582 -0.018914
H11   H     H_    0.628246 0.922095 0.455490 0.025014
H12   H     H_    0.833981 0.206096 0.054070 0.120519
H13   H     H_    0.602622 0.149695 0.490380 0.111802
H14   H     H_    0.841926 0.795147 0.662905 0.111485
H15   H     H_    0.333981 0.706096 0.054071 0.120519
H16   H     H_    0.341925 0.295147 0.662905 0.111485
H17   H     H_    0.968995 0.428050 0.871597 0.042173
H18   H     H_    0.964077 0.561136 0.346648 0.096784
H19   H     H_    0.468995 0.928050 0.871597 0.042174
H20   H     H_    0.464077 0.061136 0.346648 0.096784
H21   H     H_    0.972089 0.676941 0.184301 0.061117
H22   H     H_    0.028276 0.372132 0.578474 0.025502
H23   H     H_    0.472089 0.176942 0.184300 0.061116
H24   H     H_    0.614441 0.858464 0.021816 0.117878
H25   H     H_    0.528276 0.872132 0.578473 0.025502
H26   H     H_    0.060964 0.652181 0.019759 -0.005328
H27   H     H_    0.080390 0.330996 0.478019 0.081622
H28   H     H_    0.560964 0.152181 0.019758 -0.005325
H29   H     H_    0.580390 0.830996 0.478019 0.081622
H30   H     H_    0.005611 0.707526 0.984537 0.075281
H31   H     H_    0.000251 0.301639 0.479186 0.096047
H32   H     H_    0.505611 0.207526 0.984536 0.075275
H33   H     H_    0.500251 0.801639 0.479187 0.096047
H34   H     H_    0.851318 0.532491 0.317737 -0.052565
H35   H     H_    0.125489 0.753355 0.220291 0.127763
H36   H     H_    0.857565 0.464807 0.822831 0.020617
H37   H     H_    0.351318 0.032491 0.317737 -0.052565
H38   H     H_    0.357565 0.964807 0.822831 0.020616
H39   H     H_    0.879918 0.557975 0.939118 0.056065
H40   H     H_    0.919160 0.463122 0.520177 0.068565
H41   H     H_    0.379918 0.057975 0.939118 0.056065
H42   H     H_    0.419160 0.963122 0.520177 0.068566
H43   H     H_    0.127545 0.251425 0.674023 0.129971
H44   H     H_    0.625489 0.253355 0.220291 0.127763
H45   H     H_    0.627545 0.751425 0.674025 0.129971
H46   H     H_    0.031423 0.566853 0.308982 0.067319
H47   H     H_    0.032125 0.421237 0.803242 0.055977
H48   H     H_    0.531423 0.066853 0.308983 0.067319
H49   H     H_    0.115552 0.494479 0.387943 0.027359
H50   H     H_    0.532125 0.921237 0.803242 0.055977
H51   H     H_    0.012447 0.650047 0.219383 -0.035832
H52   H     H_    0.001771 0.362089 0.403691 0.046135
H53   H     H_    0.512447 0.150047 0.219383 -0.035835
H54   H     H_    0.501771 0.862089 0.403691 0.046134
H55   H     H_    0.981293 0.638591 0.601959 0.042368
H56   H     H_    0.975851 0.375742 0.142909 0.043715
H57   H     H_    0.481294 0.138592 0.601953 0.042366
H58   H     H_    0.475851 0.875742 0.142909 0.043715
H59   H     H_    0.791639 0.495979 0.202685 -0.042840
H60   H     H_    0.598867 0.983449 0.939596 -0.033630
H61   H     H_    0.808825 0.537350 0.567024 0.139706
H62   H     H_    0.291639 0.995979 0.202685 -0.042840
H63   H     H_    0.308825 0.037350 0.567024 0.139707
H64   H     H_    0.807622 0.562521 0.173495 0.027945
H65   H     H_    0.805197 0.443363 0.717481 0.076279
H66   H     H_    0.307622 0.062521 0.173495 0.027944
H67   H     H_    0.305197 0.943363 0.717481 0.076279
H68   H     H_    0.826996 0.516089 0.903866 0.158640
H69   H     H_    0.821908 0.483759 0.425721 0.087755
H70   H     H_    0.326996 0.016089 0.903866 0.158640
H71   H     H_    0.615552 0.994479 0.387943 0.027359
H72   H     H_    0.321908 0.983759 0.425721 0.087755
H73   H     H_    0.103740 0.448520 0.187246 0.036228
H74   H     H_    0.101936 0.552893 0.504959 -0.025614
H75   H     H_    0.603741 0.948519 0.187247 0.036229
H76   H     H_    0.601936 0.052894 0.504962 -0.025611
H77   H     H_    0.151280 0.516149 0.858431 0.128914
H78   H     H_    0.170649 0.462850 0.526470 0.104846
H79   H     H_    0.651279 0.016150 0.858430 0.128915
H80   H     H_    0.670648 0.962850 0.526467 0.104845
H81   H     H_    0.155498 0.450959 0.783690 -0.038885
H82   H     H_    0.179547 0.505407 0.024331 0.157976
H83   H     H_    0.188044 0.520781 0.301795 0.076544
H84   H     H_    0.655498 0.950959 0.783689 -0.038885
H85   H     H_    0.688041 0.020781 0.301787 0.076539
H86   H     H_    0.015338 0.657765 0.486156 0.004860
H87   H     H_    0.986135 0.361924 0.953128 0.052380
H88   H     H_    0.515339 0.157766 0.486155 0.004865
H89   H     H_    0.486135 0.861924 0.953128 0.052379
H90   H     H_    0.055555 0.705078 0.642446 0.068805
H91   H     H_    0.016966 0.287266 0.052352 0.093834
H92   H     H_    0.555556 0.205078 0.642462 0.068807
H93   H     H_    0.186420 0.502904 0.597091 0.119220
H94   H     H_    0.516966 0.787266 0.052351 0.093834
H95   H     H_    0.975736 0.701102 0.570922 0.154058
H96   H     H_    0.941728 0.324997 0.084135 0.134544
H97   H     H_    0.475736 0.201102 0.570920 0.154062
H98   H     H_    0.441729 0.824997 0.084136 0.134543
H99   H     H_    0.047866 0.740905 0.171012 0.077632
H100  H     H_    0.032978 0.279772 0.714936 0.046267
H101  H     H_    0.547866 0.240905 0.171011 0.077631
H102  H     H_    0.532979 0.779772 0.714937 0.046267
H103  H     H_    0.861938 0.423270 0.188856 0.097624
H104  H     H_    0.679547 0.005408 0.024328 0.157975
H105  H     H_    0.879324 0.624239 0.738371 0.007950
H106  H     H_    0.361938 0.923270 0.188856 0.097624
H107  H     H_    0.379324 0.124239 0.738371 0.007950
H108  H     H_    0.728576 0.391028 0.102297 -0.027072
H109  H     H_    0.732025 0.614240 0.497213 0.036459
H110  H     H_    0.228576 0.891028 0.102296 -0.027072
H111  H     H_    0.232025 0.114240 0.497212 0.036458
H112  H     H_    0.169011 0.794153 0.140904 0.067467
H113  H     H_    0.171643 0.211730 0.590529 0.105840
H114  H     H_    0.669011 0.294153 0.140905 0.067467
H115  H     H_    0.686420 0.002904 0.597089 0.119223
H116  H     H_    0.671643 0.711730 0.590530 0.105839
H117  H     H_    0.701310 0.353659 0.274010 -0.009074
H118  H     H_    0.707136 0.684491 0.820916 0.023305
H119  H     H_    0.201310 0.853659 0.274009 -0.009074
H120  H     H_    0.207135 0.184491 0.820915 0.023305
H121  H     H_    0.884770 0.361938 0.660227 0.132464
H122  H     H_    0.910175 0.658364 0.229231 0.088547
H123  H     H_    0.384770 0.861938 0.660227 0.132464
H124  H     H_    0.410175 0.158364 0.229231 0.088547
H125  H     H_    0.898277 0.249348 0.833592 0.093616
H126  H     H_    0.102622 0.649695 0.490380 0.111802
H127  H     H_    0.915781 0.754566 0.481369 0.070595
H128  H     H_    0.398277 0.749348 0.833593 0.093616
H129  H     H_    0.415781 0.254566 0.481370 0.070596
H130  H     H_    0.298643 0.682137 0.849472 -0.002814
H131  H     H_    0.315084 0.363756 0.566694 0.034840
H132  H     H_    0.798643 0.182137 0.849472 -0.002815
H133  H     H_    0.815084 0.863756 0.566694 0.034841
H134  H     H_    0.981683 0.687913 0.765348 0.116803
H135  H     H_    0.975224 0.317809 0.237141 0.060914
H136  H     H_    0.481682 0.187913 0.765346 0.116802
N1    N     N_R   0.854592 0.348447 0.920557 -0.412906
N2    N     N_R   0.864948 0.657665 0.454321 -0.426250
N3    N     N_R   0.354592 0.848447 0.920557 -0.412906
N4    N     N_R   0.364948 0.157665 0.454321 -0.426249
N5    N     N_R   0.145369 0.652271 0.255271 -0.438478
N6    N     N_R   0.149895 0.350038 0.769256 -0.419852
N7    N     N_R   0.645369 0.152271 0.255272 -0.438479
N8    N     N_R   0.649896 0.850038 0.769257 -0.419852
O1    O     O_2   0.072110 0.546320 0.923350 -0.418641
O2    O     O_3   0.974379 0.356364 0.603744 -0.592755
O3    O     O_2   0.194086 0.145268 0.688546 -0.551312
O4    O     O_2   0.901279 0.218878 0.012643 -0.526282
O5    O     O_2   0.910270 0.781858 0.667242 -0.539584
O6    O     O_2   0.401279 0.718877 0.012644 -0.526283
O7    O     O_2   0.410270 0.281858 0.667243 -0.539583
O8    O     O_2   0.300715 0.636777 0.945347 -0.516898
O9    O     O_2   0.314372 0.325802 0.418919 -0.545618
O10   O     O_2   0.800715 0.136777 0.945346 -0.516898
O11   O     O_2   0.814372 0.825802 0.418919 -0.545618
O12   O     O_2   0.138632 0.577523 0.966133 -0.530713
O13   O     O_3   0.483796 0.144909 0.008462 -0.591269
O14   O     O_2   0.137928 0.373356 0.474255 -0.569311
O15   O     O_2   0.638632 0.077523 0.966133 -0.530714
O16   O     O_2   0.637928 0.873356 0.474256 -0.569311
O17   O     O_2   0.078361 0.697501 0.958758 -0.590134
O18   O     O_2   0.057618 0.296574 0.336932 -0.544757
O19   O     O_2   0.578361 0.197501 0.958759 -0.590139
O20   O     O_2   0.557618 0.796574 0.336932 -0.544758
O21   O     O_2   0.903058 0.515247 0.310368 -0.581909
O22   O     O_2   0.908153 0.483326 0.800730 -0.602730
O23   O     O_2   0.403058 0.015247 0.310368 -0.581910
O24   O     O_3   0.474379 0.856364 0.603744 -0.592756
O25   O     O_2   0.408153 0.983326 0.800730 -0.602729
O26   O     O_2   0.925000 0.541277 0.054328 -0.507000
O27   O     O_2   0.874551 0.437021 0.448726 -0.593805
O28   O     O_2   0.425000 0.041277 0.054328 -0.507000
O29   O     O_2   0.374551 0.937021 0.448727 -0.593804
O30   O     O_3   0.958050 0.483830 0.034350 -0.389500
O31   O     O_3   0.958050 0.516170 0.534350 -0.469620
O32   O     O_3   0.458050 0.983830 0.034350 -0.389500
O33   O     O_3   0.458050 0.016170 0.534350 -0.469620
O34   O     O_2   0.809067 0.386628 0.926391 -0.567099
O35   O     O_2   0.818490 0.621509 0.400661 -0.579604
O36   O     O_2   0.309067 0.886628 0.926391 -0.567100
O37   O     O_2   0.072110 0.453680 0.423350 -0.508987
O38   O     O_2   0.318490 0.121509 0.400661 -0.579603
O39   O     O_2   0.106542 0.695807 0.291954 -0.613173
O40   O     O_2   0.108888 0.307393 0.772635 -0.593711
O41   O     O_2   0.606542 0.195807 0.291954 -0.613172
O42   O     O_2   0.608889 0.807393 0.772636 -0.593710
O43   O     O_2   0.895264 0.307315 0.882464 -0.592788
O44   O     O_2   0.908977 0.696101 0.506125 -0.645230
O45   O     O_2   0.395264 0.807315 0.882465 -0.592788
O46   O     O_2   0.408977 0.196101 0.506124 -0.645229
O47   O     O_2   0.188948 0.612279 0.228302 -0.532304
O48   O     O_2   0.572110 0.046320 0.923350 -0.418641
O49   O     O_2   0.194613 0.389594 0.770592 -0.544769
O50   O     O_2   0.688948 0.112279 0.228302 -0.532304
O51   O     O_2   0.694613 0.889594 0.770592 -0.544770
O52   O     O_3   0.042000 0.516250 0.155330 -0.496528
O53   O     O_3   0.042000 0.483750 0.655330 -0.450159
O54   O     O_3   0.542000 0.016250 0.155330 -0.496528
O55   O     O_3   0.542000 0.983750 0.655330 -0.450160
O56   O     O_3   0.012540 0.574900 0.645500 -0.479675
O57   O     O_3   0.012540 0.425100 0.145500 -0.510489
O58   O     O_3   0.512540 0.074900 0.645500 -0.479674
O59   O     O_2   0.572110 0.953680 0.423350 -0.508987
O60   O     O_3   0.512540 0.925100 0.145500 -0.510489
O61   O     O_2   0.082305 0.591457 0.719421 -0.445531
O62   O     O_2   0.070030 0.395415 0.276963 -0.480436
O63   O     O_2   0.582305 0.091457 0.719422 -0.445531
O64   O     O_2   0.570030 0.895415 0.276964 -0.480437
O65   O     O_3   0.117213 0.513045 0.127216 -0.662797
O66   O     O_3   0.112863 0.493038 0.625976 -0.670283
O67   O     O_3   0.617213 0.013045 0.127217 -0.662799
O68   O     O_3   0.612863 0.993038 0.625976 -0.670283
O69   O     O_3   0.034704 0.640901 0.701825 -0.588280
O70   O     O_3   0.878007 0.520061 0.567811 -0.601455
O71   O     O_3   0.028304 0.354745 0.119723 -0.563589
O72   O     O_3   0.534704 0.140901 0.701825 -0.588280
O73   O     O_3   0.528304 0.854745 0.119722 -0.563588
O74   O     O_2   0.928110 0.546600 0.766510 -0.418171
O75   O     O_2   0.928110 0.453400 0.266510 -0.462528
O76   O     O_2   0.428110 0.046600 0.766510 -0.418171
O77   O     O_2   0.428110 0.953400 0.266510 -0.462528
O78   O     O_3   0.987780 0.574950 0.044470 -0.411117
O79   O     O_3   0.987780 0.425050 0.544470 -0.502612
O80   O     O_3   0.487780 0.074950 0.044470 -0.411117
O81   O     O_3   0.878392 0.480647 0.065907 -0.617904
O82   O     O_3   0.487780 0.925050 0.544470 -0.502613
O83   O     O_2   0.925832 0.606954 0.966862 -0.489266
O84   O     O_2   0.932678 0.391312 0.411643 -0.445180
O85   O     O_2   0.425832 0.106954 0.966862 -0.489266
O86   O     O_2   0.432679 0.891312 0.411643 -0.445180
O87   O     O_2   0.792011 0.469074 0.012035 -0.498170
O88   O     O_2   0.776609 0.508178 0.686698 -0.515250
O89   O     O_2   0.292011 0.969074 0.012035 -0.498170
O90   O     O_2   0.276609 0.008178 0.686698 -0.515250
O91   O     O_2   0.803212 0.573017 0.952052 -0.455078
O92   O     O_3   0.378007 0.020061 0.567811 -0.601455
O93   O     O_2   0.796694 0.429179 0.501900 -0.474403
O94   O     O_2   0.303212 0.073017 0.952052 -0.455079
O95   O     O_2   0.296694 0.929179 0.501900 -0.474402
O96   O     O_2   0.154349 0.437938 0.127429 -0.526656
O97   O     O_2   0.155891 0.558902 0.486563 -0.566995
O98   O     O_2   0.654350 0.937939 0.127431 -0.526657
O99   O     O_2   0.655891 0.058902 0.486564 -0.566995
O100  O     O_2   0.206373 0.459761 0.872120 -0.460950
O101  O     O_2   0.208524 0.474232 0.304977 -0.479903
O102  O     O_2   0.706373 0.959761 0.872118 -0.460949
O103  O     O_3   0.378392 0.980647 0.065907 -0.617904
O104  O     O_2   0.708526 0.974234 0.304980 -0.479900
O105  O     O_2   0.024406 0.741917 0.720459 -0.528319
O106  O     O_2   0.969104 0.277713 0.937280 -0.541595
O107  O     O_2   0.524405 0.241918 0.720449 -0.528316
O108  O     O_2   0.469104 0.777713 0.937279 -0.541596
O109  O     O_2   0.020540 0.716595 0.327326 -0.610518
O110  O     O_2   0.034925 0.326554 0.797239 -0.575667
O111  O     O_2   0.520540 0.216595 0.327325 -0.610514
O112  O     O_2   0.534925 0.826555 0.797239 -0.575666
O113  O     O_2   0.869160 0.374217 0.229310 -0.533707
O114  O     O_3   0.983796 0.644909 0.008462 -0.591270
O115  O     O_2   0.857410 0.579260 0.691142 -0.536951
O116  O     O_2   0.369160 0.874217 0.229310 -0.533707
O117  O     O_2   0.357410 0.079260 0.691142 -0.536951
O118  O     O_2   0.779802 0.397554 0.192209 -0.465939
O119  O     O_2   0.776557 0.603185 0.631782 -0.483513
O120  O     O_2   0.279803 0.897554 0.192209 -0.465938
O121  O     O_2   0.276557 0.103185 0.631781 -0.483513
O122  O     O_2   0.714185 0.312075 0.390951 -0.541656
O123  O     O_2   0.694086 0.645268 0.688547 -0.551313
O124  O     O_2   0.214185 0.812075 0.390950 -0.541656
P1    P     P_3+3 0.075650 0.535480 0.098240 1.023928
P2    P     P_3+3 0.953231 0.395544 0.569769 0.983840
P3    P     P_3+3 0.460262 0.110100 0.078750 1.006235
P4    P     P_3+3 0.453231 0.895544 0.569769 0.983840
P5    P     P_3+3 0.047418 0.395410 0.122424 0.971819
P6    P     P_3+3 0.048379 0.603213 0.618307 0.977506
P7    P     P_3+3 0.547418 0.895410 0.122424 0.971820
P8    P     P_3+3 0.548379 0.103213 0.618307 0.977506
P9    P     P_3+3 0.075650 0.464520 0.598240 0.958660
P10   P     P_3+3 0.575650 0.035480 0.098240 1.023929
P11   P     P_3+3 0.575650 0.964520 0.598240 0.958660
P12   P     P_3+3 0.924520 0.535770 0.591580 1.144469
P13   P     P_3+3 0.924520 0.464230 0.091580 1.165402
P14   P     P_3+3 0.424520 0.035770 0.591580 1.144469
P15   P     P_3+3 0.424520 0.964230 0.091580 1.165402
P16   P     P_3+3 0.960262 0.610100 0.078750 1.006234

loop_
_geom_bond_atom_site_label_1
_geom_bond_atom_site_label_2
_ccdc_geom_bond_type
C111  O111  D    
C183  H18   S    
C194  C202  A    
C51   C176  A    
O64   P7    D    
C214  C236  A    
C79   C124  D    
Ba2   O30   S    
C131  H129  S    
C96   H73   S    
C203  H112  S    
C37   C63   A    
C231  O49   D    
C76   C103  S    
O79   P2    S    
C191  C205  A    
C232  N7    Am   
C151  O27   D    
C152  H41   S    
C46   C183  S    
C234  N5    Am   
C149  O25   D    
C136  H133  S    
C50   C130  S    
C217  C221  A    
C137  H8    S    
C104  O104  D    
C83   N1    Am   
C33   C38   A    
C157  N3    S    
C5    C9    S    
C13   C57   S    
C7    C11   S    
C143  O19   D    
O77   P15   D    
C204  N3    Am   
C141  O17   D    
C128  H125  S    
C40   C66   S    
C141  H26   S    
C84   C165  A    
O80   P3    S    
C126  O124  D    
C129  H127  S    
C147  H36   S    
C71   H49   S    
C1    H134  S    
C123  O122  D    
C192  C206  A    
C115  C124  S    
C163  C176  A    
C77   C104  S    
C90   C135  D    
C230  N5    Am   
C19   C139  S    
C139  O15   D    
C94   O94   D    
C5    C22   D    
C88   O88   D    
C161  C165  A    
Ba3   O33   S    
C21   N5    S    
C48   C128  S    
O67   P10   S    
C49   C129  S    
C47   C127  S    
C58   H5    S    
C70   C96   S    
Ba2   O79   S    
C201  C219  A    
C57   C184  S    
C205  C209  A    
C173  C182  A    
C106  O106  D    
C149  H38   S    
C15   C19   D    
C71   O66   S    
C101  C146  D    
C82   O73   S    
C132  H130  S    
C118  C154  S    
Ba4   O77   S    
C206  H114  S    
C179  O13   S    
Ba3   O80   S    
O48   P10   D    
C73   O68   S    
C36   C198  A    
C27   C44   A    
C6    C10   S    
O37   P9    D    
C44   C125  S    
C73   C99   S    
Ba2   P9    S    
C118  H107  S    
C96   O96   D    
C106  C112  S    
C91   O90   D    
C120  H109  S    
C155  N1    S    
C166  C170  A    
C42   C149  S    
C85   N3    Am   
C235  O40   D    
C75   H93   S    
C106  H91   S    
C2    C156  D    
C67   C89   S    
C160  H97   S    
O55   P11   S    
C212  C234  A    
C145  H34   S    
C31   C36   A    
C70   O65   S    
C114  H102  S    
Ba3   P14   S    
C211  C216  A    
C86   O38   D    
C1    C78   S    
C55   C136  S    
C178  O2    S    
C184  H19   S    
Ba1   O56   S    
C207  H116  S    
C142  H27   S    
C148  H37   S    
C222  C231  A    
C59   C223  A    
C123  H117  S    
C134  H132  S    
C78   O69   S    
C71   C97   S    
C81   C160  S    
C91   H63   S    
C158  N4    S    
C108  O108  D    
Ba2   P13   S    
C71   C75   S    
C16   C20   D    
C27   C194  A    
C48   C61   A    
C116  H105  S    
C178  H22   S    
C6    C23   D    
C230  O47   D    
C12   C17   D    
C180  O24   S    
C6    H13   S    
C187  H47   S    
O92   P14   S    
C214  C219  A    
O81   P13   S    
C190  C203  A    
Ba2   O52   S    
C193  N2    Am   
C118  O117  D    
C221  C230  A    
C28   C32   A    
C150  H39   S    
C57   P4    S    
Ba3   O32   S    
C219  C223  A    
C41   C152  S    
Ba3   O58   S    
C177  O114  S    
C144  C229  S    
C69   H72   S    
C48   C173  A    
C212  C217  A    
C86   N4    Am   
C81   H57   S    
C215  O46   D    
O58   P8    S    
C86   C167  A    
C119  O118  D    
C39   C150  S    
C233  O51   D    
C66   H69   S    
C236  O41   D    
C102  O101  D    
C196  C200  A    
C10   C188  S    
C54   C134  S    
C136  O11   D    
C232  O50   D    
C80   C112  S    
C138  H9    S    
C15   P10   S    
C180  H25   S    
C47   C172  A    
C121  C170  S    
C52   C132  S    
C147  O22   D    
C142  C227  S    
C72   C98   S    
C150  O26   D    
C26   C30   A    
C74   C100  S    
O13   P3    S    
C89   H62   S    
C226  H121  S    
C210  C214  A    
C103  O102  D    
C110  C227  S    
O24   P4    S    
C41   O103  S    
Ba4   O54   S    
C211  H45   S    
C75   C102  S    
C142  O18   D    
O65   P1    S    
C49   C62   A    
C34   C61   A    
C164  C168  A    
O33   P14   S    
C4    C8    S    
C18   C138  S    
C53   C133  S    
C35   P2    S    
C7    H24   S    
C2    C46   S    
C95   H67   S    
C98   O98   D    
C29   C191  A    
C111  C228  S    
C13   C157  D    
Ba1   O53   S    
C3    C216  A    
Ba4   O59   S    
C73   H71   S    
C140  H11   S    
C162  C166  A    
Ba1   O1    S    
C13   H123  S    
C16   P11   S    
C74   H82   S    
C99   O99   D    
Ba3   Ba4   S    
C16   C189  D    
Ba4   O82   S    
C109  H99   S    
C97   O97   D    
C22   N6    S    
C208  H35   S    
C152  O28   D    
C17   C21   S    
C113  C154  D    
C14   C18   D    
C144  H29   S    
C174  C193  A    
C107  C160  S    
C72   C76   S    
Ba2   O31   S    
O74   P12   D    
C119  H108  S    
C66   C93   S    
C109  C225  S    
O76   P14   D    
C167  C172  A    
C93   H65   S    
C235  N6    Am   
C109  O109  D    
C159  C164  A    
C128  O4    D    
O70   P12   S    
Ba3   O76   S    
C114  C229  S    
C127  O3    D    
Ba1   O74   S    
O60   P7    S    
O83   P16   D    
C140  O16   D    
C204  O45   D    
C78   H86   S    
C65   H68   S    
C76   H79   S    
C28   C45   A    
C97   H74   S    
Ba1   O31   S    
C61   H12   S    
C197  C201  A    
C176  C215  A    
C10   P8    S    
C92   H64   S    
C65   C87   S    
C42   C69   S    
C124  C155  S    
C153  H42   S    
C144  O20   D    
C102  H83   S    
C72   O67   S    
C145  O21   D    
C88   H61   S    
Ba1   P12   S    
C12   P1    S    
C207  C211  A    
O62   P5    D    
C60   C224  A    
C37   C195  A    
Ba3   P10   S    
C188  H48   S    
C51   C64   A    
C108  H94   S    
C33   C163  A    
C24   C68   S    
C223  C232  A    
C115  O113  D    
Ba2   O37   S    
C74   H77   S    
C126  H119  S    
C101  C184  D    
C4    H126  S    
C78   H55   S    
C160  H136  S    
C41   C67   S    
C220  C224  A    
C11   P7    S    
C50   C175  A    
C82   C171  S    
C20   C25   S    
C141  C225  S    
C26   C192  A    
C62   H14   S    
O31   P12   S    
C193  O44   D    
O78   P16   S    
C127  H120  S    
C159  C173  A    
C186  H46   S    
C131  O7    D    
C148  O23   D    
O114  P16   S    
C101  P15   S    
C84   O35   D    
C213  C235  A    
C81   H88   S    
C112  H135  S    
C120  O119  D    
C36   C62   A    
C121  H110  S    
C195  C199  A    
C4    C21   D    
C32   C37   A    
Ba4   O32   S    
C24   H124  S    
Ba4   P11   S    
C45   C170  A    
C93   O93   D    
C39   O81   S    
C14   C187  D    
C56   H4    S    
Ba3   O48   S    
C35   C226  S    
C25   N8    S    
C110  H100  S    
C143  H28   S    
C121  O120  D    
C191  C200  A    
C58   C222  A    
C29   C33   A    
C52   C56   A    
C75   H78   S    
C105  O105  D    
C117  O116  D    
O73   P7    S    
C40   O70   S    
C143  C228  S    
C98   H75   S    
C87   H59   S    
C50   C63   A    
C229  H33   S    
C83   O34   D    
C138  O14   D    
C182  O43   D    
C130  O6    D    
C43   C123  S    
C67   H70   S    
C12   C186  D    
C122  O121  D    
O61   P6    D    
C181  H17   S    
O1    P1    D    
C135  C156  S    
C27   C31   A    
O85   P3    D    
C132  O8    D    
C179  H53   S    
C180  H54   S    
C133  H131  S    
C156  N2    S    
C89   O89   D    
C45   C126  S    
C213  C218  A    
C210  H44   S    
C175  C204  A    
C87   O87   D    
C134  O10   D    
C185  H20   S    
C200  C218  A    
O68   P11   S    
C66   C88   S    
O69   P6    S    
C236  N7    Am   
C189  H50   S    
C163  C167  A    
O52   P1    S    
C77   H80   S    
C80   H56   S    
C63   H15   S    
C3    N8    Am   
C29   C47   A    
C233  N8    Am   
C41   C148  S    
C17   C137  S    
C224  C233  A    
C82   H58   S    
C1    C105  S    
C20   C140  S    
C100  O100  D    
C80   O71   S    
C11   C189  S    
C178  C227  S    
C79   P13   S    
C177  H21   S    
C111  H101  S    
C113  C185  D    
C84   N2    Am   
C18   C22   S    
C104  H85   S    
C177  H51   S    
C182  N1    Am   
C77   H115  S    
C178  H52   S    
C130  H128  S    
C80   H87   S    
C116  O115  D    
C129  O5    D    
C139  H10   S    
O103  P15   S    
C94   H66   S    
O66   P9    S    
C81   O72   S    
C55   C198  A    
C65   C92   S    
C49   C174  A    
C43   C168  A    
C2    H122  S    
C24   C158  D    
C53   C58   A    
C171  H3    S    
Ba1   O78   S    
C55   C60   A    
C205  H113  S    
C103  H84   S    
C85   C166  A    
Ba1   Ba2   S    
C179  H23   S    
C218  C222  A    
C68   P3    S    
O54   P10   S    
C137  O12   D    
C117  C146  S    
C199  C217  A    
C56   C221  A    
C225  H30   S    
C114  O112  D    
C192  C201  A    
C153  O29   D    
C70   H1    S    
C125  H118  S    
Ba2   O75   S    
C83   C164  A    
C54   C197  A    
C177  C225  S    
C34   C197  A    
C227  H31   S    
C228  H32   S    
C73   C77   S    
C234  O39   D    
C70   C74   S    
C39   C145  S    
C15   C188  D    
C52   C195  A    
Ba4   O60   S    
Ba2   O57   S    
C76   H104  S    
O30   P13   S    
C38   C64   A    
C161  C174  A    
C82   H89   S    
C112  H96   S    
C5    H2    S    
C105  H90   S    
O72   P8    S    
C46   P16   S    
C67   C94   S    
C40   C147  S    
O86   P4    D    
C155  C226  D    
C208  C212  A    
C26   C43   A    
C90   C183  D    
C28   C190  A    
C30   C159  A    
O75   P13   D    
C3    O42   D    
C202  C220  A    
C72   H60   S    
C209  C213  A    
Ba4   O33   S    
C120  C169  S    
C206  C210  A    
C42   C153  S    
Ba3   O55   S    
O56   P6    S    
C99   H76   S    
C107  H92   S    
C90   P12   S    
C100  H81   S    
C125  O123  D    
C151  H40   S    
O71   P5    S    
C209  H43   S    
C64   H16   S    
C32   C162  A    
C116  C135  S    
O63   P8    D    
Ba4   P15   S    
C194  C207  A    
O82   P4    S    
C14   P9    S    
Ba1   O30   S    
C19   C23   S    
C53   C196  A    
C203  C208  A    
C92   O91   D    
O2    P2    S    
C68   C185  S    
C216  C220  A    
C122  C172  S    
C44   C169  A    
C117  H106  S    
O57   P5    S    
C54   C59   A    
C69   C95   S    
C59   H6    S    
C9    P5    S    
C122  H111  S    
C165  C169  A    
C30   C34   A    
C40   C151  S    
C23   N7    S    
C119  C168  S    
C107  O107  D    
C146  C157  S    
C115  H103  S    
C1    H95   S    
C8    C186  S    
C85   O36   D    
C113  P14   S    
C9    C187  S    
C110  O110  D    
C38   C196  A    
C60   H7    S    
C8    P6    S    
C51   C131  S    
C190  C199  A    
C171  H98   S    
O59   P11   D    
C31   C161  A    
Ba1   P1    S    
C215  N4    Am   
O84   P2    D    
C95   O95   D    
C180  C229  S    
C42   O92   S    
C154  C158  S    
C35   C181  S    
C108  C171  S    
O53   P9    S    
C7    C25   D    
O32   P15   S    
C39   C65   S    
C198  C202  A    
C69   C91   S    
C79   C181  D    
C162  C175  A    
C133  O9    D    
C179  C228  S    
C231  N6    Am   
