data_mof_unit_23879.cif
_audit_creation_date              2012-12-11T16:14:05-0500
_audit_creation_method            fapswitch 2.2
_symmetry_space_group_name_H-M    P1
_symmetry_Int_Tables_number       1
_space_group_crystal_system       triclinic
_cell_length_a                    26.074698
_cell_length_b                    25.854946
_cell_length_c                    27.803303
_cell_angle_alpha                 90.039739
_cell_angle_beta                  89.682282
_cell_angle_gamma                 90.413699
_cell_volume                      18743.0914389

loop_
_atom_site_label
_atom_site_type_symbol
_atom_type_description
_atom_site_fract_x
_atom_site_fract_y
_atom_site_fract_z
_atom_type_partial_charge
C1    C     C_R   0.628612 0.432032 0.429640 -0.035333
C2    C     C_R   0.384218 0.443113 0.412308 -0.038111
C3    C     C_R   0.299904 0.636564 0.625536 -0.079580
C4    C     C_R   0.380868 0.326207 0.335975 -0.031866
C5    C     C_R   0.591709 0.615804 0.698966 -0.097814
C6    C     C_R   0.339370 0.623031 0.329209 -0.072174
C7    C     C_R   0.631236 0.408391 0.693960 -0.096198
C8    C     C_R   0.610833 0.321411 0.663454 -0.055902
C9    C     C_R   0.366578 0.700646 0.373523 -0.078804
C10   C     C_R   0.676980 0.616370 0.661294 -0.045042
C11   C     C_R   0.388909 0.412232 0.298956 -0.102554
C12   C     C_R   0.376640 0.665173 0.669115 -0.066619
C13   C     C_R   0.433112 0.627023 0.573837 -0.169391
C14   C     C_R   0.647192 0.314477 0.358336 -0.121620
C15   C     C_R   0.298373 0.331109 0.575940 -0.069376
C16   C     C_R   0.694550 0.641916 0.365746 -0.142556
C17   C     C_R   0.109630 0.167763 0.828407 -0.017528
C18   C     C_R   0.910880 0.881447 0.199807 -0.099682
C19   C     C_R   0.195368 0.850386 0.873721 -0.060364
C20   C     C_R   0.873707 0.095205 0.195835 -0.094112
C21   C     C_R   0.834883 0.797432 0.925747 -0.068931
C22   C     C_R   0.135197 0.199679 0.130738 -0.138286
C23   C     C_R   0.797509 0.165311 0.928384 -0.058783
C24   C     C_R   0.568486 0.370511 0.431377 -0.117324
C25   C     C_R   0.207673 0.843951 0.073358 -0.055993
C26   C     C_R   0.146167 0.807169 0.131753 -0.042589
C27   C     C_R   0.860519 0.196026 0.868270 -0.093623
C28   C     C_R   0.201730 0.168710 0.074959 -0.070884
C29   C     C_R   0.809266 0.858201 0.862111 -0.102884
C30   C     C_R   0.887263 0.180943 0.160161 -0.036841
C31   C     C_R   0.154690 0.789558 0.930340 -0.117753
C32   C     C_R   0.825066 0.884768 0.164078 -0.045817
C33   C     C_R   0.117934 0.078889 0.797895 -0.105246
C34   C     C_R   0.701220 0.740455 0.410193 -0.146702
C35   C     C_R   0.371297 0.430638 0.570027 -0.052945
C36   C     C_R   0.332926 0.259424 0.645108 -0.127761
C37   C     C_R   0.740819 0.305141 0.408954 -0.107567
C38   C     C_R   0.269360 0.646867 0.666469 -0.083799
C39   C     C_R   0.372732 0.305242 0.289896 -0.109985
C40   C     C_R   0.614494 0.632010 0.742746 -0.086603
C41   C     C_R   0.328494 0.653748 0.288863 -0.099465
C42   C     C_R   0.650708 0.386121 0.736307 -0.098529
C43   C     C_R   0.616800 0.302057 0.710257 -0.141115
C44   C     C_R   0.357064 0.731359 0.332676 -0.086036
C45   C     C_R   0.698011 0.613225 0.707497 -0.130370
C46   C     C_R   0.629272 0.568342 0.431282 -0.031218
C47   C     C_R   0.366712 0.392517 0.256335 -0.079464
C48   C     C_R   0.346238 0.676167 0.709739 -0.098196
C49   C     C_R   0.684218 0.278549 0.342893 -0.076180
C50   C     C_R   0.264625 0.292273 0.593209 -0.139099
C51   C     C_R   0.734405 0.676259 0.353005 -0.120063
C52   C     C_R   0.116542 0.185985 0.781203 -0.102980
C53   C     C_R   0.888047 0.867067 0.244298 -0.053190
C54   C     C_R   0.224189 0.809411 0.854585 -0.116186
C55   C     C_R   0.863905 0.118927 0.240901 -0.058977
C56   C     C_R   0.799936 0.760352 0.907693 -0.096505
C57   C     C_R   0.554989 0.381788 0.585745 -0.000376
C58   C     C_R   0.165729 0.243321 0.140814 -0.129094
C59   C     C_R   0.761147 0.200319 0.910176 -0.100774
C60   C     C_R   0.247844 0.816590 0.095390 -0.070836
C61   C     C_R   0.186403 0.780234 0.153615 -0.079418
C62   C     C_R   0.826223 0.234929 0.854330 -0.115893
C63   C     C_R   0.235630 0.207307 0.092165 -0.139240
C64   C     C_R   0.770992 0.823016 0.847365 -0.110251
C65   C     C_R   0.891532 0.201445 0.206799 -0.114647
C66   C     C_R   0.178331 0.747652 0.906670 -0.044178
C67   C     C_R   0.804396 0.887180 0.210729 -0.119158
C68   C     C_R   0.437602 0.625117 0.422556 -0.100960
C69   C     C_R   0.139619 0.098891 0.754844 -0.072127
C70   C     C_2   0.637767 0.713459 0.473744 0.515554
C71   C     C_2   0.413456 0.310304 0.658837 0.467596
C72   C     C_2   0.704530 0.354612 0.479225 0.517413
C73   C     C_2   0.276543 0.620740 0.578890 0.592570
C74   C     C_2   0.375452 0.292180 0.379267 0.508252
C75   C     C_2   0.538017 0.594924 0.698022 0.645714
C76   C     C_2   0.327315 0.566823 0.328445 0.678972
C77   C     C_2   0.628272 0.465656 0.689982 0.436451
C78   C     C_2   0.606719 0.284141 0.622447 0.486418
C79   C     C_R   0.129850 0.929882 0.934222 -0.196714
C80   C     C_2   0.381545 0.724328 0.420378 0.593994
C81   C     C_2   0.711857 0.626077 0.619258 0.534193
C82   C     C_2   0.415451 0.463688 0.299660 0.594366
C83   C     C_2   0.432035 0.678693 0.669153 0.678081
C84   C     C_2   0.602148 0.326495 0.327509 0.668109
C85   C     C_2   0.284371 0.360997 0.532185 0.503621
C86   C     C_2   0.689268 0.591897 0.339492 0.480334
C87   C     C_2   0.110122 0.205522 0.869142 0.486669
C88   C     C_2   0.966473 0.895664 0.197625 0.683544
C89   C     C_2   0.203209 0.904029 0.855828 0.657283
C90   C     C_R   0.879404 0.061791 0.083283 -0.093735
C91   C     C_2   0.877178 0.037919 0.192588 0.621786
C92   C     C_2   0.860808 0.788037 0.972596 0.499992
C93   C     C_2   0.084841 0.193241 0.155791 0.460157
C94   C     C_2   0.786652 0.137144 0.974125 0.492613
C95   C     C_2   0.217203 0.875125 0.029230 0.593825
C96   C     C_2   0.092632 0.800774 0.149504 0.644406
C97   C     C_2   0.911687 0.192622 0.844486 0.588380
C98   C     C_2   0.216083 0.138271 0.031465 0.497965
C99   C     C_2   0.814753 0.908927 0.837213 0.603476
C100  C     C_2   0.883316 0.217038 0.118269 0.525151
C101  C     C_R   0.931828 0.871252 0.929303 -0.043432
C102  C     C_2   0.130664 0.782887 0.978950 0.444543
C103  C     C_2   0.789779 0.876298 0.122465 0.521440
C104  C     C_2   0.101756 0.023347 0.801285 0.625150
C105  C     C_2   0.703948 0.793617 0.430501 0.499945
C106  C     C_2   0.353191 0.217851 0.676971 0.553733
C107  C     C_2   0.792071 0.302420 0.432023 0.500164
C108  C     C_2   0.212703 0.639742 0.665320 0.674827
C109  C     C_2   0.376748 0.248585 0.280267 0.511546
C110  C     C_2   0.582235 0.650475 0.783295 0.688081
C111  C     C_2   0.303742 0.630053 0.245871 0.680249
C112  C     C_R   0.374801 0.563483 0.576965 -0.096702
C113  C     C_R   0.068225 0.129970 0.067519 -0.056071
C114  C     C_2   0.677881 0.419415 0.771751 0.539080
C115  C     C_2   0.595709 0.250379 0.724574 0.505018
C116  C     C_2   0.364516 0.788479 0.334021 0.672704
C117  C     C_2   0.750164 0.591777 0.716169 0.488529
C118  C     C_2   0.349084 0.427653 0.217545 0.699815
C119  C     C_2   0.369683 0.701380 0.752666 0.678299
C120  C     C_2   0.673041 0.240946 0.303331 0.645029
C121  C     C_2   0.211393 0.288045 0.574795 0.494764
C122  C     C_2   0.773892 0.660699 0.316687 0.548016
C123  C     C_2   0.104016 0.240193 0.767227 0.518784
C124  C     C_R   0.871195 0.068852 0.930961 -0.033052
C125  C     C_2   0.920231 0.848868 0.284762 0.675090
C126  C     C_2   0.264733 0.818011 0.817229 0.651413
C127  C     C_2   0.847837 0.086844 0.282772 0.633343
C128  C     C_2   0.795306 0.707801 0.929100 0.502254
C129  C     C_2   0.144218 0.287496 0.168932 0.556356
C130  C     C_2   0.707821 0.202319 0.929342 0.504130
C131  C     C_2   0.300791 0.815661 0.075099 0.668194
C132  C     C_2   0.177208 0.744213 0.194852 0.655311
C133  C     C_2   0.840648 0.275583 0.818321 0.523168
C134  C     C_2   0.289310 0.210168 0.074270 0.501093
C135  C     C_R   0.128690 0.932216 0.069332 -0.090482
C136  C     C_2   0.733980 0.835815 0.808294 0.514537
C137  C     C_2   0.919813 0.250824 0.216408 0.501621
C138  C     C_2   0.164866 0.693381 0.919827 0.640654
C139  C     C_2   0.751839 0.907309 0.220510 0.533850
C140  C     C_2   0.165773 0.064570 0.719577 0.689751
C141  C     C_R   0.052749 0.113935 0.911011 -0.017655
C142  C     C_R   0.942680 0.881949 0.086277 -0.056680
C143  C     C_R   0.128567 0.069517 0.069734 -0.050671
C144  C     C_R   0.871213 0.931888 0.930675 -0.033908
C145  C     C_R   0.943821 0.118899 0.085189 -0.005291
C146  C     C_R   0.067928 0.870386 0.931305 -0.087629
C147  C     C_R   0.881707 0.942264 0.085432 -0.040343
C148  C     C_R   0.445973 0.383277 0.412931 -0.054654
C149  C     C_R   0.115174 0.054871 0.911504 -0.042654
C150  C     C_R   0.069031 0.870204 0.067146 -0.186164
C151  C     C_R   0.931459 0.130087 0.933305 -0.069113
C152  C     C_R   0.659666 0.655784 0.402769 0.059732
C153  C     C_R   0.346498 0.338504 0.598695 0.064775
C154  C     C_R   0.655453 0.342335 0.401419 -0.005792
C155  C     C_R   0.353974 0.641146 0.628741 -0.065941
C156  C     C_R   0.389236 0.380279 0.340370 -0.018878
C157  C     C_R   0.622844 0.614789 0.656803 -0.001817
C158  C     C_R   0.361960 0.646129 0.370070 -0.063869
C159  C     C_R   0.558047 0.618295 0.586134 -0.069652
C160  C     C_R   0.615456 0.375490 0.655794 0.062730
C161  C     C_R   0.108931 0.113582 0.836675 -0.002984
C162  C     C_R   0.879181 0.885096 0.158446 -0.011661
C163  C     C_R   0.157278 0.839393 0.908700 -0.056892
C164  C     C_R   0.882186 0.126669 0.154650 -0.011031
C165  C     C_R   0.842065 0.844762 0.900536 0.017514
C166  C     C_R   0.153060 0.162255 0.097368 0.069723
C167  C     C_R   0.845548 0.160336 0.904524 0.021093
C168  C     C_R   0.157877 0.842742 0.094652 -0.064168
C169  C     C_R   0.734594 0.726887 0.372278 0.035226
C170  C     C_R   0.373838 0.567080 0.425771 -0.175145
C171  C     C_R   0.281826 0.257082 0.628358 0.037243
C172  C     C_R   0.732328 0.277596 0.365980 -0.053038
C173  C     C_R   0.293200 0.663662 0.709360 -0.055663
C174  C     C_R   0.357967 0.338751 0.252508 -0.055208
C175  C     C_R   0.668666 0.631744 0.746430 -0.080868
C176  C     C_R   0.340428 0.707352 0.289720 -0.061715
C177  C     C_R   0.643750 0.332410 0.744040 0.005944
C178  C     C_R   0.139617 0.152882 0.747295 -0.065615
C179  C     C_R   0.834019 0.868439 0.249011 -0.051058
C180  C     C_R   0.210795 0.758124 0.867279 -0.028079
C181  C     C_R   0.619587 0.438738 0.583870 -0.002473
C182  C     C_R   0.870264 0.173257 0.245563 -0.077690
C183  C     C_R   0.768932 0.773214 0.868209 -0.039758
C184  C     C_R   0.217839 0.243695 0.126299 0.037898
C185  C     C_R   0.775578 0.233952 0.872583 -0.040205
C186  C     C_R   0.237318 0.789950 0.138239 -0.080156
C187  C     C_R   0.244481 0.227561 0.657408 0.191143
C188  C     C_R   0.758848 0.767655 0.343343 0.189028
C189  C     C_R   0.262126 0.674377 0.752468 0.043786
C190  C     C_R   0.775328 0.253840 0.340582 0.081562
C191  C     C_R   0.696266 0.663983 0.781885 0.098224
C192  C     C_R   0.568936 0.629058 0.430124 -0.065654
C193  C     C_R   0.321329 0.318247 0.217541 0.078338
C194  C     C_R   0.673316 0.305078 0.780549 0.155966
C195  C     C_R   0.327845 0.739143 0.247708 0.055804
C196  C     C_R   0.806749 0.835664 0.284363 0.095900
C197  C     C_R   0.176857 0.176800 0.714393 0.080881
C198  C     C_R   0.842074 0.203282 0.282757 0.098144
C199  C     C_R   0.220438 0.718671 0.830992 0.134832
C200  C     C_R   0.254351 0.272299 0.157016 0.193427
C201  C     C_R   0.744585 0.732004 0.840176 0.100746
C202  C     C_R   0.277981 0.780070 0.172573 0.053612
C203  C     C_R   0.431563 0.370135 0.567813 -0.050710
C204  C     C_R   0.736100 0.257117 0.842539 0.097065
C205  C     C_R   0.617910 0.381443 0.416247 0.054873
C206  C     C_R   0.386190 0.612563 0.594094 0.015747
C207  C     C_R   0.405032 0.401486 0.387030 0.070377
C208  C     C_R   0.601248 0.599812 0.609949 0.101886
C209  C     C_R   0.389141 0.613860 0.405208 0.015292
C210  C     C_R   0.598639 0.397321 0.609591 0.148069
C211  C     C_R   0.619428 0.618475 0.417179 0.143737
C212  C     C_R   0.382105 0.379766 0.582770 0.143353
C213  C     C_R   0.119275 0.879233 0.921168 0.015039
C214  C     C_R   0.619431 0.558455 0.583946 0.023661
C215  C     C_R   0.899580 0.103588 0.108848 0.106217
C216  C     C_R   0.881642 0.882005 0.915960 0.133417
C217  C     C_R   0.117633 0.120566 0.082240 0.141091
C218  C     C_R   0.881872 0.120021 0.919055 0.142054
C219  C     C_R   0.119117 0.880893 0.080534 0.001965
C220  C     C_R   0.093477 0.094546 0.884613 0.057017
C221  C     C_R   0.900437 0.900995 0.111419 0.087972
C222  C     C_R   0.665664 0.703449 0.427732 -0.068593
C223  C     C_R   0.363596 0.302678 0.633662 -0.140728
C224  C     C_R   0.700521 0.334583 0.428934 -0.038862
H1    H     H_    0.665986 0.450456 0.430041 0.088725
H2    H     H_    0.351474 0.465737 0.402002 0.100701
H3    H     H_    0.450897 0.664887 0.574748 0.117337
H4    H     H_    0.551331 0.332407 0.434171 0.114147
H5    H     H_    0.333944 0.448517 0.570228 0.094799
H6    H     H_    0.666527 0.550358 0.433399 0.081531
H7    H     H_    0.529398 0.350480 0.595459 0.084243
H8    H     H_    0.460468 0.659466 0.416196 0.116030
H9    H     H_    0.167502 0.947053 0.938472 0.132581
H10   H     H_    0.842095 0.044550 0.088647 0.107040
H11   H     H_    0.949912 0.833736 0.929141 0.084896
H12   H     H_    0.340320 0.540957 0.583052 0.114208
H13   H     H_    0.050695 0.167564 0.064033 0.083933
H14   H     H_    0.833906 0.050255 0.931112 0.080626
H15   H     H_    0.165302 0.952090 0.069963 0.110084
H16   H     H_    0.027251 0.144517 0.900393 0.091569
H17   H     H_    0.965674 0.848785 0.095341 0.100256
H18   H     H_    0.165858 0.051487 0.069943 0.094817
H19   H     H_    0.833902 0.949846 0.932468 0.074026
H20   H     H_    0.968786 0.150812 0.094510 0.095067
H21   H     H_    0.048397 0.833333 0.931327 0.087737
H22   H     H_    0.847162 0.963143 0.093164 0.083831
H23   H     H_    0.470489 0.351338 0.403492 0.087248
H24   H     H_    0.147591 0.031252 0.901582 0.101979
H25   H     H_    0.051524 0.832305 0.064082 0.122182
H26   H     H_    0.949058 0.167911 0.936883 0.079209
H27   H     H_    0.623918 0.751628 0.482685 0.096534
H28   H     H_    0.439031 0.277973 0.664378 0.037761
H29   H     H_    0.741266 0.362964 0.495411 0.085783
H30   H     H_    0.293906 0.633759 0.545400 0.005895
H31   H     H_    0.383612 0.251296 0.377597 0.086633
H32   H     H_    0.520747 0.582198 0.664771 -0.007245
H33   H     H_    0.356373 0.539028 0.337491 -0.045018
H34   H     H_    0.535038 0.651057 0.596409 0.099539
H35   H     H_    0.659639 0.490007 0.702270 0.029866
H36   H     H_    0.590263 0.245963 0.627118 0.093131
H37   H     H_    0.367629 0.707260 0.453692 0.006088
H38   H     H_    0.753009 0.622516 0.622632 0.083854
H39   H     H_    0.427272 0.481257 0.333205 -0.027183
H40   H     H_    0.460290 0.649732 0.660864 -0.045647
H41   H     H_    0.565119 0.335054 0.343284 -0.031439
H42   H     H_    0.245770 0.375111 0.527263 0.093636
H43   H     H_    0.722813 0.568646 0.331870 0.014496
H44   H     H_    0.093223 0.243401 0.865871 0.085691
H45   H     H_    0.336142 0.549504 0.424469 0.120286
H46   H     H_    0.988922 0.890866 0.165283 -0.059797
H47   H     H_    0.170741 0.926530 0.843792 0.000254
H48   H     H_    0.856297 0.016729 0.165445 -0.032042
H49   H     H_    0.874717 0.750103 0.982092 0.092771
H50   H     H_    0.058853 0.225595 0.159349 0.048231
H51   H     H_    0.748989 0.121376 0.981931 0.091871
H52   H     H_    0.187894 0.877232 0.002012 -0.018183
H53   H     H_    0.070041 0.834400 0.158895 -0.002948
H54   H     H_    0.935453 0.226988 0.840503 0.056686
H55   H     H_    0.254485 0.123288 0.026995 0.094602
H56   H     H_    0.656246 0.456680 0.590487 0.080039
H57   H     H_    0.781100 0.931944 0.829742 0.043129
H58   H     H_    0.889953 0.258150 0.122567 0.079761
H59   H     H_    0.108808 0.813573 0.995058 0.031297
H60   H     H_    0.748911 0.882303 0.125946 0.076890
H61   H     H_    0.093385 0.005245 0.835455 -0.028926
H62   H     H_    0.740920 0.811231 0.437977 0.052125
H63   H     H_    0.381674 0.226385 0.704145 0.019018
H64   H     H_    0.812014 0.265804 0.433842 0.052286
H65   H     H_    0.193222 0.620178 0.694800 0.000470
H66   H     H_    0.353234 0.230061 0.253128 0.052726
H67   H     H_    0.551187 0.666720 0.430577 0.096105
H68   H     H_    0.590258 0.638552 0.819828 -0.003206
H69   H     H_    0.271676 0.649152 0.228873 -0.015653
H70   H     H_    0.661356 0.455950 0.782863 0.001803
H71   H     H_    0.612258 0.228716 0.753926 0.050764
H72   H     H_    0.383952 0.807908 0.304436 -0.002747
H73   H     H_    0.769309 0.598214 0.750205 0.064992
H74   H     H_    0.350183 0.415413 0.180283 -0.000450
H75   H     H_    0.349862 0.732637 0.770721 -0.017607
H76   H     H_    0.703719 0.224607 0.281832 0.008896
H77   H     H_    0.196610 0.251050 0.562539 0.052909
H78   H     H_    0.449019 0.332458 0.564557 0.082762
H79   H     H_    0.765176 0.632254 0.289209 0.008876
H80   H     H_    0.124201 0.259166 0.737871 0.052299
H81   H     H_    0.911285 0.859967 0.321420 0.016408
H82   H     H_    0.297813 0.792855 0.816302 -0.012246
H83   H     H_    0.863993 0.094202 0.317996 0.017490
H84   H     H_    0.757707 0.690767 0.935191 0.047922
H85   H     H_    0.113604 0.281647 0.194916 0.014279
H86   H     H_    0.689521 0.239369 0.935026 0.048874
H87   H     H_    0.333736 0.816753 0.098733 0.000296
H88   H     H_    0.202059 0.711131 0.199542 -0.009835
H89   H     H_    0.654255 0.537807 0.590759 0.078258
H90   H     H_    0.822240 0.313080 0.819978 0.064909
H91   H     H_    0.304835 0.246504 0.061006 0.053606
H92   H     H_    0.695911 0.818534 0.808829 0.044480
H93   H     H_    0.917092 0.269523 0.251235 0.060979
H94   H     H_    0.127063 0.684246 0.934095 0.042624
H95   H     H_    0.732127 0.898118 0.253910 0.053907
H96   H     H_    0.165417 0.073656 0.681545 0.007631
N1    N     N_R   0.586860 0.450690 0.451700 -0.051225
N2    N     N_R   0.413140 0.450690 0.451700 -0.045205
N3    N     N_R   0.450690 0.586860 0.548300 -0.043412
N4    N     N_R   0.549310 0.413140 0.451700 -0.052342
N5    N     N_R   0.413140 0.450690 0.548300 -0.051105
N6    N     N_R   0.586860 0.549310 0.451700 -0.060191
N7    N     N_R   0.549310 0.413140 0.548300 -0.053538
N8    N     N_R   0.450690 0.586860 0.451700 -0.045568
N9    N     N_R   0.086860 0.950690 0.951700 -0.044450
N10   N     N_R   0.913140 0.049310 0.048300 -0.051808
N11   N     N_R   0.950690 0.913140 0.951700 -0.052414
N12   N     N_R   0.413140 0.549310 0.548300 -0.044301
N13   N     N_R   0.049310 0.086860 0.048300 -0.061220
N14   N     N_R   0.913140 0.049310 0.951700 -0.052692
N15   N     N_R   0.086860 0.950690 0.048300 -0.043680
N16   N     N_R   0.049310 0.086860 0.951700 -0.053089
N17   N     N_R   0.950690 0.913140 0.048300 -0.045190
N18   N     N_R   0.086860 0.049310 0.048300 -0.051804
N19   N     N_R   0.913140 0.950690 0.951700 -0.053438
N20   N     N_R   0.950690 0.086860 0.048300 -0.056626
N21   N     N_R   0.049310 0.913140 0.951700 -0.044155
N22   N     N_R   0.913140 0.950690 0.048300 -0.053149
N23   N     N_R   0.450690 0.413140 0.451700 -0.050162
N24   N     N_R   0.086860 0.049310 0.951700 -0.043284
N25   N     N_R   0.049310 0.913140 0.048300 -0.044645
N26   N     N_R   0.950690 0.086860 0.951700 -0.058874
N27   N     N_R   0.174850 0.170909 0.665914 -0.065971
N28   N     N_R   0.768340 0.804953 0.267954 -0.068052
N29   N     N_R   0.199501 0.725984 0.787072 -0.060323
N30   N     N_R   0.823931 0.250532 0.270549 -0.074064
N31   N     N_R   0.703436 0.704705 0.856605 -0.077576
N32   N     N_R   0.296959 0.296530 0.139514 -0.072754
N33   N     N_R   0.706181 0.296621 0.857977 -0.064823
N34   N     N_R   0.549310 0.586860 0.548300 -0.044643
N35   N     N_R   0.272889 0.800869 0.217013 -0.041754
N36   N     N_R   0.311653 0.741222 0.165301 -0.059458
N37   N     N_R   0.733439 0.241561 0.796207 -0.039088
N38   N     N_R   0.246031 0.271854 0.205120 -0.056779
N39   N     N_R   0.761462 0.724381 0.794752 -0.037865
N40   N     N_R   0.826731 0.182351 0.325327 -0.075374
N41   N     N_R   0.260431 0.686025 0.835672 -0.009733
N42   N     N_R   0.820563 0.832153 0.331288 -0.067501
N43   N     N_R   0.213054 0.208138 0.733681 -0.054456
N44   N     N_R   0.797048 0.798437 0.360403 -0.058621
N45   N     N_R   0.413140 0.549310 0.451700 -0.046316
N46   N     N_R   0.246022 0.233212 0.705745 -0.056067
N47   N     N_R   0.793729 0.207084 0.353763 -0.066506
N48   N     N_R   0.280424 0.663499 0.796967 -0.046527
N49   N     N_R   0.278606 0.294668 0.234741 -0.056407
N50   N     N_R   0.737590 0.691325 0.766169 -0.061159
N51   N     N_R   0.336836 0.721523 0.202391 -0.053530
N52   N     N_R   0.702846 0.265286 0.765736 -0.067686
N53   N     N_R   0.674836 0.320135 0.827361 -0.036920
N54   N     N_R   0.297053 0.780448 0.254058 -0.052611
N55   N     N_R   0.679735 0.670981 0.827849 -0.080867
N56   N     N_R   0.586860 0.450690 0.548300 -0.056914
N57   N     N_R   0.330205 0.318983 0.169394 -0.064844
N58   N     N_R   0.220201 0.704503 0.748400 -0.055431
N59   N     N_R   0.791458 0.275446 0.298913 -0.054149
N60   N     N_R   0.208483 0.195781 0.637781 -0.069393
N61   N     N_R   0.744685 0.771844 0.296864 -0.059434
N62   N     N_R   0.549310 0.586860 0.451700 -0.052534
N63   N     N_R   0.450690 0.413140 0.548300 -0.058196
N64   N     N_R   0.586860 0.549310 0.548300 -0.060632
Ni1   Ni    Ni4+2 0.586090 0.500000 0.500000 0.248144
Ni2   Ni    Ni4+2 0.413910 0.500000 0.500000 0.243332
Ni3   Ni    Ni4+2 0.500000 0.413910 0.500000 0.253126
Ni4   Ni    Ni4+2 0.500000 0.586090 0.500000 0.241048
Ni5   Ni    Ni4+2 0.086090 0.000000 0.000000 0.239494
Ni6   Ni    Ni4+2 0.913910 0.000000 0.000000 0.250835
Ni7   Ni    Ni4+2 0.000000 0.913910 0.000000 0.227943
Ni8   Ni    Ni4+2 0.000000 0.086090 0.000000 0.245296
O1    O     O_2   0.631494 0.679054 0.503272 -0.542330
O2    O     O_2   0.411666 0.760630 0.422403 -0.542605
O3    O     O_2   0.695520 0.641830 0.580966 -0.532987
O4    O     O_2   0.427470 0.485942 0.262516 -0.526653
O5    O     O_2   0.446294 0.722792 0.677833 -0.536218
O6    O     O_2   0.606576 0.328730 0.283808 -0.532897
O7    O     O_2   0.315676 0.368471 0.500078 -0.535842
O8    O     O_2   0.647550 0.576981 0.325073 -0.543568
O9    O     O_2   0.131912 0.195332 0.906700 -0.525725
O10   O     O_2   0.987812 0.914989 0.232326 -0.523585
O11   O     O_2   0.245784 0.924002 0.855996 -0.511589
O12   O     O_2   0.425855 0.352737 0.674415 -0.538948
O13   O     O_2   0.903553 0.013861 0.220865 -0.555328
O14   O     O_2   0.865483 0.822745 0.002063 -0.537902
O15   O     O_2   0.072400 0.151696 0.173356 -0.541613
O16   O     O_2   0.819822 0.132699 0.004623 -0.544107
O17   O     O_2   0.256304 0.900851 0.024146 -0.540658
O18   O     O_2   0.072984 0.757871 0.152390 -0.519587
O19   O     O_2   0.927051 0.151652 0.828183 -0.552677
O20   O     O_2   0.185357 0.131444 0.999042 -0.541828
O21   O     O_2   0.856706 0.924700 0.823796 -0.543130
O22   O     O_2   0.868959 0.202021 0.078910 -0.537801
O23   O     O_2   0.666380 0.359927 0.504311 -0.547497
O24   O     O_2   0.137986 0.744473 0.003399 -0.560982
O25   O     O_2   0.805397 0.858889 0.084337 -0.526593
O26   O     O_2   0.094400 0.997452 0.765205 -0.529922
O27   O     O_2   0.665232 0.819050 0.436791 -0.558478
O28   O     O_2   0.338549 0.173125 0.672579 -0.529919
O29   O     O_2   0.813711 0.341375 0.446553 -0.566794
O30   O     O_2   0.187209 0.657947 0.632837 -0.517448
O31   O     O_2   0.409221 0.222525 0.300126 -0.559653
O32   O     O_2   0.546429 0.679595 0.776057 -0.495281
O33   O     O_2   0.320018 0.590066 0.228299 -0.493924
O34   O     O_2   0.240088 0.590901 0.577247 -0.542904
O35   O     O_2   0.720023 0.407581 0.786967 -0.550124
O36   O     O_2   0.556885 0.233027 0.706047 -0.580917
O37   O     O_2   0.346622 0.814424 0.366674 -0.517513
O38   O     O_2   0.770747 0.563295 0.686948 -0.579088
O39   O     O_2   0.331427 0.470071 0.227108 -0.484047
O40   O     O_2   0.410323 0.686358 0.769003 -0.500372
O41   O     O_2   0.629392 0.225634 0.295867 -0.529306
O42   O     O_2   0.183172 0.325506 0.574655 -0.556535
O43   O     O_2   0.817128 0.679153 0.317623 -0.532819
O44   O     O_2   0.068334 0.263051 0.786001 -0.569800
O45   O     O_2   0.358984 0.309078 0.417292 -0.521718
O46   O     O_2   0.957007 0.820920 0.277382 -0.522405
O47   O     O_2   0.260411 0.850828 0.785993 -0.518670
O48   O     O_2   0.816267 0.052078 0.278268 -0.553527
O49   O     O_2   0.833236 0.682122 0.937772 -0.569458
O50   O     O_2   0.160366 0.331459 0.162695 -0.531046
O51   O     O_2   0.683025 0.162851 0.936591 -0.568166
O52   O     O_2   0.308104 0.811036 0.031900 -0.521934
O53   O     O_2   0.144098 0.752416 0.225069 -0.523263
O54   O     O_2   0.870758 0.267235 0.785499 -0.540256
O55   O     O_2   0.316941 0.172285 0.075426 -0.556008
O56   O     O_2   0.513079 0.588294 0.734816 -0.535496
O57   O     O_2   0.746043 0.863248 0.774290 -0.546564
O58   O     O_2   0.949819 0.269098 0.187033 -0.599389
O59   O     O_2   0.195889 0.658534 0.915519 -0.542879
O60   O     O_2   0.731483 0.937670 0.193093 -0.572826
O61   O     O_2   0.189468 0.026672 0.732932 -0.512963
O62   O     O_2   0.284299 0.551348 0.318524 -0.535654
O63   O     O_2   0.589579 0.486136 0.674788 -0.594885
O64   O     O_2   0.624803 0.294616 0.583020 -0.534292

loop_
_geom_bond_atom_site_label_1
_geom_bond_atom_site_label_2
_ccdc_geom_bond_type
C134  O55   D    
C8    C78   S    
C140  O61   D    
C199  N29   A    
N3    Ni4   S    
C30   C164  A    
C72   H29   S    
C37   C172  A    
N14   N26   A    
N7    N56   A    
C98   H55   S    
C99   O21   D    
C92   O14   D    
N11   Ni7   S    
C93   O15   D    
C49   C120  S    
C28   C98   S    
C72   C224  S    
C117  H73   S    
C24   C205  A    
C139  O60   D    
C186  C202  S    
C7    C42   A    
C89   O11   D    
C137  O58   D    
C120  H76   S    
C61   C132  S    
C6    C158  A    
C57   C210  A    
C64   C183  A    
C27   C97   S    
C208  C214  A    
C50   C171  A    
C25   C60   A    
C84   O6    D    
C167  C218  S    
C28   C166  A    
C87   H44   S    
C15   C85   S    
C65   C137  S    
N30   N59   A    
C197  N43   A    
C29   C64   A    
C25   C168  A    
C76   O62   D    
C50   C121  S    
C133  H90   S    
C39   C174  A    
C80   O2    D    
C17   C52   A    
C170  N45   A    
C139  H95   S    
C109  H66   S    
C164  C215  S    
N15   Ni5   S    
C46   N6    A    
C24   N4    A    
C36   C106  S    
C106  H63   S    
C183  C201  S    
C148  N23   A    
C100  O22   D    
C51   C169  A    
C71   C223  S    
N29   N58   A    
C70   O1    D    
N2    N23   A    
C40   C110  S    
C172  C190  S    
C131  H87   S    
C132  O53   D    
C95   H52   S    
C117  O38   D    
C33   C161  A    
C13   H3    S    
C69   C178  A    
C21   C56   A    
N26   Ni8   S    
C165  C216  S    
C187  N46   A    
C149  N24   A    
C72   O23   D    
C23   C167  A    
C99   H57   S    
C152  C211  S    
N9    Ni5   S    
C25   C95   S    
N27   N60   A    
C146  N21   A    
C2    H2    S    
N20   Ni8   S    
C202  N36   A    
C109  O31   D    
C17   C87   S    
C110  O32   D    
C102  H59   S    
C113  N13   A    
C22   C58   A    
N40   N47   A    
C105  O27   D    
C106  O28   D    
C191  N55   A    
C131  O52   D    
N38   N49   A    
C129  O50   D    
N35   N54   A    
N11   N19   A    
C9    C158  A    
C56   C128  S    
C47   C174  A    
C201  N31   A    
C73   H30   S    
C22   C166  A    
C28   C63   A    
C39   C109  S    
C44   C116  S    
C135  N15   A    
C187  N60   A    
N37   N52   A    
C13   C206  A    
C79   N9    A    
C193  N49   A    
C149  C220  A    
N2    Ni2   S    
C21   C92   S    
C200  N32   A    
C64   C136  S    
C128  H84   S    
C33   C104  S    
C163  C213  S    
C16   C51   A    
C23   C59   A    
C77   O63   D    
C146  H21   S    
C200  N38   A    
C185  C204  S    
C196  N28   A    
C150  N25   A    
N24   Ni5   S    
C45   C175  A    
C141  C220  A    
C195  N54   A    
C58   C129  S    
N23   Ni3   S    
C30   C100  S    
C201  N39   A    
C81   O3    D    
C87   O9    D    
C142  N17   A    
C197  N27   A    
C189  N48   A    
C42   C114  S    
N5    Ni2   S    
C184  C200  S    
C188  N44   A    
C150  C219  A    
C67   C139  S    
N17   N22   A    
C7    C77   S    
C158  C209  S    
C75   O56   D    
C181  N56   A    
C135  C219  A    
C14   C154  A    
C137  H93   S    
C53   C179  A    
C188  N61   A    
C198  N30   A    
N8    Ni4   S    
C151  H26   S    
C52   C178  A    
C65   C182  A    
C97   O19   D    
C11   C82   S    
C26   C96   S    
C198  N40   A    
C118  H74   S    
C115  H71   S    
C91   H48   S    
C159  N34   A    
C144  C216  A    
C129  H85   S    
C124  N14   A    
C148  H23   S    
C18   C88   S    
C181  C210  A    
C35   C212  A    
C27   C62   A    
C124  H14   S    
C66   C138  S    
C162  C221  S    
N1    N4    A    
C10   C45   A    
C141  N16   A    
C19   C163  A    
C138  O59   D    
C166  C217  S    
N5    N63   A    
C138  H94   S    
C34   C169  A    
C17   C161  A    
N21   Ni7   S    
C32   C67   A    
C116  O37   D    
C19   C54   A    
N13   Ni8   S    
N41   N48   A    
C55   C127  S    
C149  H24   S    
N43   N46   A    
C5    C40   A    
C94   O16   D    
C103  H60   S    
C130  H86   S    
C45   C117  S    
C85   H42   S    
C178  C197  S    
C44   C176  A    
C119  H75   S    
C98   O20   D    
C153  C212  S    
C6    C76   S    
C33   C69   A    
C143  N18   A    
C76   H33   S    
C71   O12   D    
N16   N24   A    
C78   O64   D    
C192  H67   S    
N10   Ni6   S    
C55   C182  A    
C59   C185  A    
C199  N41   A    
C176  C195  S    
N33   N53   A    
C3    C73   S    
C15   C153  A    
C30   C65   A    
C128  O49   D    
C41   C111  S    
C102  O24   D    
N45   Ni2   S    
C78   H36   S    
N3    N12   A    
C92   H49   S    
C134  H91   S    
C68   H8    S    
C95   O17   D    
C120  O41   D    
C111  H69   S    
C152  C222  A    
C119  O40   D    
C11   C47   A    
C8    C43   A    
C14   C84   S    
C68   N8    A    
C145  N20   A    
N34   N64   A    
C54   C126  S    
N32   N57   A    
C96   H53   S    
C62   C133  S    
C26   C61   A    
C37   C107  S    
C203  N63   A    
C31   C163  A    
C46   C211  A    
C20   C164  A    
C21   C165  A    
C58   C184  A    
C13   N3    A    
C29   C165  A    
C18   C53   A    
C125  O46   D    
N22   Ni6   S    
C47   C118  S    
C147  H22   S    
C123  O44   D    
C36   C171  A    
C121  O42   D    
C142  C221  A    
C74   H31   S    
C147  N22   A    
N6    N62   A    
C69   C140  S    
C136  O57   D    
N64   Ni1   S    
C203  H78   S    
C16   C86   S    
C46   H6    S    
N36   N51   A    
C194  N52   A    
C86   H43   S    
C140  H96   S    
C60   C131  S    
C90   C215  A    
C48   C119  S    
C179  C196  S    
C20   C91   S    
C177  C194  S    
C122  H79   S    
C63   C134  S    
C35   N5    A    
C29   C99   S    
C7    C160  A    
N31   N55   A    
C112  H12   S    
C191  N50   A    
C66   C180  A    
N6    Ni1   S    
C57   N7    A    
C145  H20   S    
C194  N53   A    
C5    C75   S    
N4    Ni3   S    
C31   C102  S    
C193  N57   A    
C49   C172  A    
C127  H83   S    
C170  H45   S    
C3    C155  A    
C32   C103  S    
C16   C152  A    
C74   O45   D    
N14   Ni6   S    
C36   C223  A    
C79   H9    S    
C88   H46   S    
C190  N59   A    
C4    C156  A    
C114  H70   S    
C141  H16   S    
C5    C157  A    
C104  O26   D    
C8    C160  A    
C71   H28   S    
C94   H51   S    
C1    H1    S    
C110  H68   S    
N8    N45   A    
C43   C177  A    
C82   O4    D    
C63   C184  A    
C204  N33   A    
C34   C105  S    
C144  N19   A    
C96   O18   D    
C169  C188  S    
N10   N20   A    
C189  N58   A    
C90   N10   A    
C118  O39   D    
C181  H56   S    
C1    N1    A    
C153  C223  A    
C56   C183  A    
C160  C210  S    
C10   C81   S    
C151  N26   A    
C112  C206  A    
C67   C179  A    
C127  O48   D    
C18   C162  A    
C126  O47   D    
N42   N44   A    
N13   N18   A    
C70   C222  S    
C123  H80   S    
C192  N62   A    
C84   H41   S    
C168  C219  S    
C38   C108  S    
C122  O43   D    
N63   Ni3   S    
N15   N25   A    
C146  C213  A    
C190  N47   A    
N7    Ni3   S    
C12   C83   S    
C174  C193  S    
C161  C220  S    
N34   Ni4   S    
C91   O13   D    
C51   C122  S    
C130  O51   D    
C2    C207  A    
C101  C216  A    
C31   C66   A    
C59   C130  S    
C202  N35   A    
N25   Ni7   S    
C12   C48   A    
C182  C198  S    
C155  C206  S    
N28   N61   A    
C159  C208  A    
C136  H92   S    
C26   C168  A    
C126  H82   S    
C175  C191  S    
C57   H7    S    
C52   C123  S    
C14   C49   A    
C143  C217  A    
C42   C177  A    
C144  H19   S    
C90   H10   S    
C15   C50   A    
C156  C207  S    
C108  O30   D    
N19   Ni6   S    
C43   C115  S    
C145  C215  A    
N12   Ni2   S    
C3    C38   A    
C54   C180  A    
C115  O36   D    
C2    N2    A    
C6    C41   A    
C101  H11   S    
C1    C205  A    
C4    C74   S    
C148  C207  A    
C104  H61   S    
C53   C125  S    
C113  H13   S    
C81   H38   S    
C125  H81   S    
C83   H40   S    
C157  C208  S    
C20   C55   A    
C68   C209  A    
C113  C217  A    
N17   Ni7   S    
C124  C218  A    
C143  H18   S    
C103  O25   D    
N56   Ni1   S    
C154  C205  S    
N39   N50   A    
C214  H89   S    
C75   H32   S    
C195  N51   A    
C38   C173  A    
C73   O34   D    
C121  H77   S    
C32   C162  A    
C35   H5    S    
C9    C80   S    
C97   H54   S    
C107  O29   D    
C192  C211  A    
C19   C89   S    
C108  H65   S    
C4    C39   A    
N62   Ni4   S    
N9    N21   A    
C85   O7    D    
C151  C218  A    
C86   O8    D    
C132  H88   S    
C10   C157  A    
C147  C221  A    
C196  N42   A    
C11   C156  A    
C62   C185  A    
C159  H34   S    
C77   H35   S    
C22   C93   S    
C203  C212  A    
C12   C155  A    
C214  N64   A    
C82   H39   S    
C150  H25   S    
C48   C173  A    
C101  N11   A    
C9    C44   A    
C60   C186  A    
C89   H47   S    
C41   C176  A    
C80   H37   S    
C37   C224  A    
C88   O10   D    
C40   C175  A    
N1    Ni1   S    
C142  H17   S    
C105  H62   S    
N16   Ni8   S    
C23   C94   S    
C171  C187  S    
N18   Ni5   S    
C107  H64   S    
C93   H50   S    
C180  C199  S    
C170  C209  A    
C116  H72   S    
C173  C189  S    
C61   C186  A    
C135  H15   S    
C133  O54   D    
C154  C224  A    
C114  O35   D    
C112  N12   A    
C79   C213  A    
C100  H58   S    
C204  N37   A    
C83   O5    D    
C24   H4    S    
C70   H27   S    
C34   C222  A    
C27   C167  A    
C111  O33   D    
