data_mof_unit_18107.cif
_audit_creation_date              2012-12-11T14:41:04-0500
_audit_creation_method            fapswitch 2.2
_symmetry_space_group_name_H-M    P1
_symmetry_Int_Tables_number       1
_space_group_crystal_system       triclinic
_cell_length_a                    6.934951
_cell_length_b                    17.78478
_cell_length_c                    18.990219
_cell_angle_alpha                 90.045761
_cell_angle_beta                  91.257574
_cell_angle_gamma                 88.427991
_cell_volume                      2340.74312444

loop_
_atom_site_label
_atom_site_type_symbol
_atom_type_description
_atom_site_fract_x
_atom_site_fract_y
_atom_site_fract_z
_atom_type_partial_charge
O1    O     O_R   0.377350 0.828520 0.186660 -0.541429
O2    O     O_R   0.622650 0.171480 0.813340 -0.541429
O3    O     O_R   0.122650 0.171480 0.686660 -0.538016
O4    O     O_R   0.877350 0.828520 0.313340 -0.538016
O5    O     O_R   0.877350 0.671480 0.313340 -0.537568
O6    O     O_R   0.122650 0.328520 0.686660 -0.537568
O7    O     O_R   0.622650 0.328520 0.813340 -0.537113
O8    O     O_R   0.377350 0.671480 0.186660 -0.537113
O9    O     O_R   0.707090 0.671930 0.178410 -0.542758
O10   O     O_R   0.292910 0.328070 0.821590 -0.542758
O11   O     O_R   0.792910 0.328070 0.678410 -0.543215
O12   O     O_R   0.207090 0.671930 0.321590 -0.543215
O13   O     O_R   0.207090 0.828070 0.321590 -0.542718
O14   O     O_R   0.792910 0.171930 0.678410 -0.542718
O15   O     O_R   0.292910 0.171930 0.821590 -0.539182
O16   O     O_R   0.707090 0.828070 0.178410 -0.539182
C1    C     C_R   0.540522 0.645679 0.161323 0.701689
C2    C     C_R   0.459478 0.354321 0.838677 0.701689
C3    C     C_R   0.957618 0.353965 0.660670 0.700840
C4    C     C_R   0.042382 0.646035 0.339330 0.700840
C5    C     C_R   0.039464 0.854408 0.338650 0.700262
C6    C     C_R   0.960536 0.145592 0.661350 0.700262
C7    C     C_R   0.466300 0.145738 0.838521 0.701942
C8    C     C_R   0.533700 0.854262 0.161479 0.701942
O17   O     O_3   0.543850 0.750000 0.294270 -0.368528
O18   O     O_3   0.456150 0.250000 0.705730 -0.368528
O19   O     O_3   0.956150 0.250000 0.794270 -0.367099
O20   O     O_3   0.043850 0.750000 0.205730 -0.367099
V1    V     V_3+5 0.818700 0.750000 0.241790 1.401151
V2    V     V_3+5 0.181300 0.250000 0.758210 1.401151
V3    V     V_3+5 0.681300 0.250000 0.741790 1.400090
V4    V     V_3+5 0.318700 0.750000 0.258210 1.400090
C9    C     C_R   0.950039 0.414030 0.605559 -0.070032
C10   C     C_R   0.049961 0.585970 0.394441 -0.070032
C11   C     C_R   0.545852 0.584693 0.107333 -0.069882
C12   C     C_R   0.454148 0.415307 0.892667 -0.069882
C13   C     C_R   0.497092 0.084918 0.891842 -0.070564
C14   C     C_R   0.502908 0.915082 0.108158 -0.070564
C15   C     C_R   0.043006 0.915505 0.392475 -0.069349
C16   C     C_R   0.956994 0.084494 0.607525 -0.069349
C17   C     C_R   0.241376 0.491080 0.460722 -0.200707
C18   C     C_R   0.758624 0.508920 0.539278 -0.200707
C19   C     C_R   0.260747 0.510038 0.955505 -0.200077
C20   C     C_R   0.739253 0.489961 0.044495 -0.200077
C21   C     C_R   0.280916 0.008532 0.053581 -0.198025
C22   C     C_R   0.719083 0.991468 0.946419 -0.198026
C23   C     C_R   0.768711 0.989596 0.545219 -0.199228
C24   C     C_R   0.231289 0.010403 0.454780 -0.199228
C25   C     C_R   0.223110 0.543860 0.406227 -0.164598
C26   C     C_R   0.776890 0.456140 0.593773 -0.164598
C27   C     C_R   0.281377 0.458052 0.900804 -0.161430
C28   C     C_R   0.718623 0.541948 0.099196 -0.161430
C29   C     C_R   0.326522 0.956777 0.107047 -0.159834
C30   C     C_R   0.673478 0.043222 0.892953 -0.159834
C31   C     C_R   0.789505 0.041524 0.599911 -0.162422
C32   C     C_R   0.210495 0.958476 0.400089 -0.162422
C33   C     C_R   0.893612 0.573150 0.438520 -0.238064
C34   C     C_R   0.106388 0.426850 0.561480 -0.238064
C35   C     C_R   0.608566 0.427220 0.940163 -0.240262
C36   C     C_R   0.391434 0.572780 0.059837 -0.240262
C37   C     C_R   0.635580 0.927911 0.054947 -0.241447
C38   C     C_R   0.364420 0.072089 0.945053 -0.241447
C39   C     C_R   0.106329 0.072838 0.559570 -0.240599
C40   C     C_R   0.893671 0.927162 0.440430 -0.240599
C41   C     C_R   0.912220 0.520619 0.494299 0.160003
C42   C     C_R   0.087780 0.479381 0.505701 0.160003
C43   C     C_R   0.587846 0.479239 0.995997 0.160021
C44   C     C_R   0.412154 0.520761 0.004002 0.160021
C45   C     C_R   0.589618 0.979801 0.000472 0.159308
C46   C     C_R   0.410382 0.020199 0.999528 0.159308
C47   C     C_R   0.085319 0.020863 0.503755 0.160058
C48   C     C_R   0.914681 0.979137 0.496245 0.160059
H1    H     H_    0.240241 0.394726 0.569326 0.123289
H2    H     H_    0.759759 0.605274 0.430674 0.123289
H3    H     H_    0.258258 0.605522 0.064850 0.123573
H4    H     H_    0.741742 0.394478 0.935150 0.123573
H5    H     H_    0.228967 0.103993 0.945378 0.124446
H6    H     H_    0.771033 0.896007 0.054622 0.124446
H7    H     H_    0.764765 0.894216 0.435811 0.122959
H8    H     H_    0.235235 0.105784 0.564189 0.122959
H9    H     H_    0.653719 0.448051 0.626768 0.128890
H10   H     H_    0.346280 0.551949 0.373231 0.128890
H11   H     H_    0.840444 0.549402 0.134968 0.128951
H12   H     H_    0.159556 0.450598 0.865032 0.128951
H13   H     H_    0.778898 0.051353 0.852587 0.128641
H14   H     H_    0.221102 0.948647 0.147413 0.128641
H15   H     H_    0.328244 0.951183 0.363934 0.127773
H16   H     H_    0.671756 0.048817 0.636066 0.127773
H17   H     H_    0.376460 0.459691 0.467904 0.122765
H18   H     H_    0.623540 0.540309 0.532096 0.122765
H19   H     H_    0.125321 0.541328 0.960208 0.122784
H20   H     H_    0.874679 0.458672 0.039792 0.122784
H21   H     H_    0.143299 0.038896 0.054226 0.121892
H22   H     H_    0.856701 0.961104 0.945774 0.121892
H23   H     H_    0.637262 0.958174 0.540883 0.122820
H24   H     H_    0.362738 0.041826 0.459117 0.122820

loop_
_geom_bond_atom_site_label_1
_geom_bond_atom_site_label_2
_ccdc_geom_bond_type
C33   H2    S    
C17   H17   S    
C9    C34   A    
C28   H11   S    
O13   V4    S    
O14   V3    S    
C12   C35   A    
C21   H21   S    
C13   C38   A    
O5    C4    A    
C15   C40   A    
O11   C3    A    
C16   C39   A    
O20   V1    S    
C38   C46   A    
C31   H16   S    
C22   C45   A    
C38   H5    S    
C35   C43   A    
C34   C42   A    
C19   C44   A    
C5    C15   S    
C18   C41   A    
C8    C14   S    
C29   H14   S    
O4    V1    S    
C20   H20   S    
O9    V1    S    
C14   C37   A    
C4    C10   S    
C20   C28   A    
O17   V4    S    
O15   C7    A    
O11   V3    S    
O18   V3    S    
O16   C8    A    
O12   V4    S    
O19   V2    S    
C22   C30   A    
C17   C25   A    
O5    V1    S    
C39   H8    S    
O17   V1    S    
O7    V3    S    
O19   V3    S    
C43   C44   A    
O8    V4    S    
O20   V4    S    
C3    C9    S    
C32   H15   S    
C9    C26   A    
C7    C13   S    
C34   H1    S    
O1    V4    S    
C19   H19   S    
O2    V3    S    
C18   H18   S    
C25   H10   S    
O3    V2    S    
O6    C3    A    
C10   C33   A    
O10   V2    S    
C15   C32   A    
C22   H22   S    
C37   H6    S    
O7    C2    A    
C6    C16   S    
O12   C4    A    
O13   C5    A    
C12   C27   A    
C18   C26   A    
C13   C30   A    
O9    C1    A    
O6    V2    S    
C39   C47   A    
O18   V2    S    
C40   H7    S    
C24   C47   A    
C11   C28   A    
O15   V2    S    
C23   C31   A    
C37   C45   A    
C24   C32   A    
C10   C25   A    
C24   H24   S    
C21   C46   A    
C33   C41   A    
C20   C43   A    
C16   C31   A    
C30   H13   S    
C17   C42   A    
C36   H3    S    
O8    C1    A    
O14   C6    A    
O16   V1    S    
C47   C48   A    
O4    C5    A    
C19   C27   A    
C14   C29   A    
O10   C2    A    
C27   H12   S    
C40   C48   A    
C45   C46   A    
C23   C48   A    
C21   C29   A    
C36   C44   A    
O1    C8    A    
C41   C42   A    
O2    C7    A    
C23   H23   S    
C11   C36   A    
O3    C6    A    
C1    C11   S    
C2    C12   S    
C35   H4    S    
C26   H9    S    
