data_mof_unit_26038.cif
_audit_creation_date              2012-10-26T20:58:19-0400
_audit_creation_method            fapswitch 2.2
_symmetry_space_group_name_H-M    P1
_symmetry_Int_Tables_number       1
_space_group_crystal_system       triclinic
_cell_length_a                    10.695024
_cell_length_b                    14.695784
_cell_length_c                    14.751588
_cell_angle_alpha                 64.425668
_cell_angle_beta                  104.413055
_cell_angle_gamma                 103.062574
_cell_volume                      2006.81372402

loop_
_atom_site_label
_atom_site_type_symbol
_atom_type_description
_atom_site_fract_x
_atom_site_fract_y
_atom_site_fract_z
_atom_type_partial_charge
C1    C     C_R   0.488536 0.120278 0.311732 0.576266
C2    C     C_R   0.436321 0.531433 0.946606 -0.008116
C3    C     C_R   0.379044 0.492660 0.870931 0.260820
C4    C     C_R   0.439744 0.497796 0.122722 0.267266
C5    C     C_R   0.371101 0.388313 0.894002 0.161738
C6    C     C_R   0.453620 0.603057 0.097838 0.159736
C7    C     C_R   0.747924 0.303144 0.640197 0.145005
C8    C     C_R   0.240762 0.694921 0.368896 0.129220
C9    C     C_R   0.696357 0.210598 0.629607 0.372476
C10   C     C_R   0.298573 0.788351 0.375454 0.413804
C11   C     C_R   0.513608 0.283187 0.512997 0.085926
C12   C     C_R   0.519712 0.879494 0.688857 0.571265
C13   C     C_R   0.486458 0.716939 0.482916 0.073088
C14   C     C_R   0.551114 0.373237 0.532174 -0.066083
C15   C     C_R   0.443982 0.626646 0.464060 -0.054846
C16   C     C_R   0.259979 0.999097 0.501692 0.580148
C17   C     C_R   0.740198 0.000456 0.499257 0.564092
C18   C     C_R   0.679790 0.388504 0.582929 -0.018684
C19   C     C_R   0.311553 0.610129 0.420168 -0.032019
C20   C     C_R   0.468616 0.450425 0.498409 -0.057817
C21   C     C_R   0.525716 0.549817 0.494270 -0.063276
C22   C     C_R   0.663454 0.569906 0.516157 0.226310
C23   C     C_R   0.513769 0.296094 0.170243 0.154386
C24   C     C_R   0.330695 0.429647 0.477439 0.257723
C25   C     C_R   0.738199 0.489220 0.568567 0.282719
C26   C     C_R   0.253719 0.509097 0.434680 0.274476
C27   C     C_3   0.039235 0.076243 0.415627 -0.131729
C28   C     C_3   0.961302 0.923429 0.586686 -0.139664
C29   C     C_3   0.987201 0.087995 0.497987 0.126013
C30   C     C_3   0.013300 0.911673 0.504412 0.124546
C31   C     C_3   0.876606 0.000684 0.499567 -0.017208
C32   C     C_3   0.123911 0.998871 0.502586 -0.018474
C33   C     C_3   0.927869 0.987121 0.418190 0.247674
C34   C     C_R   0.514076 0.704790 0.831044 0.136360
C35   C     C_3   0.072827 0.012582 0.584086 0.247493
C36   C     C_R   0.486430 0.189060 0.201512 -0.000510
C37   C     C_R   0.517236 0.811004 0.798435 0.005717
C38   C     C_R   0.424708 0.217232 0.020813 0.151470
C39   C     C_R   0.502535 0.781032 0.972660 0.142723
C40   C     C_R   0.452883 0.150512 0.124269 0.221567
C41   C     C_R   0.510112 0.848509 0.870745 0.221815
C42   C     C_3   0.908768 0.252456 0.399758 -0.224162
C43   C     C_3   0.091608 0.746832 0.601169 -0.189566
C44   C     C_3   0.842733 0.296550 0.809163 -0.250617
C45   C     C_R   0.454410 0.358896 0.072682 -0.001130
C46   C     C_3   0.003525 0.696064 0.329276 -0.172372
C47   C     C_3   0.383432 0.384324 0.733137 -0.214034
C48   C     C_3   0.312213 0.661634 0.159577 -0.246639
C49   C     C_3   0.710906 0.687812 0.789102 -0.305584
C50   C     C_3   0.730057 0.393417 0.178091 -0.321830
C51   C     C_3   0.531105 0.188532 0.911363 -0.246717
C52   C     C_3   0.653698 0.835731 0.097032 -0.211902
C53   C     C_R   0.472312 0.637102 0.924018 0.000853
C54   C     C_R   0.416164 0.320962 0.994882 -0.019950
C55   C     C_R   0.477255 0.674151 0.999216 -0.021227
C56   C     C_R   0.446287 0.462226 0.048958 -0.012526
Cl1   Cl    Cl    0.221323 0.897221 0.296192 -0.508493
Cl2   Cl    Cl    0.382626 0.412767 0.237738 -0.637009
Cl3   Cl    Cl    0.909010 0.519760 0.599298 -0.522489
Cl4   Cl    Cl    0.082476 0.474598 0.421206 -0.578375
Cl5   Cl    Cl    0.776768 0.102842 0.706293 -0.546841
Cl6   Cl    Cl    0.747120 0.694223 0.460341 -0.556574
Cl7   Cl    Cl    0.248754 0.303304 0.523921 -0.511968
Cl8   Cl    Cl    0.831457 0.968871 0.308445 -0.511940
Cl9   Cl    Cl    0.169499 0.031049 0.693627 -0.456352
Cl10  Cl    Cl    0.512903 0.979816 0.838399 -0.546384
Cl11  Cl    Cl    0.463443 0.022004 0.152634 -0.528892
Cl12  Cl    Cl    0.287932 0.568294 0.755019 -0.671490
Cu1   Cu    Cu3+1 0.465750 0.918270 0.475680 1.088575
Cu2   Cu    Cu3+1 0.534250 0.081730 0.524320 1.093286
H1    H     H_    0.574822 0.723796 0.535475 0.172712
H2    H     H_    0.112901 0.682579 0.589659 0.236223
H3    H     H_    0.027103 0.716322 0.659194 0.194069
H4    H     H_    0.184978 0.785412 0.629394 0.164990
H5    H     H_    0.934173 0.267461 0.717084 0.310719
H6    H     H_    0.937832 0.308610 0.856994 0.174689
H7    H     H_    0.793695 0.218550 0.849036 0.166210
H8    H     H_    0.782097 0.353582 0.799065 0.146612
H9    H     H_    0.109912 0.647889 0.259387 0.269668
H10   H     H_    0.922751 0.641020 0.310601 0.182239
H11   H     H_    0.973686 0.773188 0.286574 0.207726
H12   H     H_    0.429684 0.276570 0.456791 0.229429
H13   H     H_    0.017847 0.675753 0.412533 0.227418
H14   H     H_    0.213772 0.353389 0.793725 0.307138
H15   H     H_    0.381112 0.318889 0.713901 0.207786
H16   H     H_    0.487153 0.413910 0.753378 0.123990
H17   H     H_    0.336944 0.445002 0.664953 0.200419
H18   H     H_    0.479362 0.595645 0.245978 0.295271
H19   H     H_    0.320224 0.712456 0.198998 0.186299
H20   H     H_    0.245188 0.590876 0.192770 0.172841
H21   H     H_    0.271643 0.702952 0.077893 0.174244
H22   H     H_    0.523463 0.671073 0.708251 0.303710
H23   H     H_    0.072300 0.138800 0.346533 0.162926
H24   H     H_    0.745970 0.646411 0.754667 0.161904
H25   H     H_    0.757136 0.662903 0.870790 0.158935
H26   H     H_    0.740245 0.770749 0.748537 0.151136
H27   H     H_    0.643345 0.301803 0.303105 0.280838
H28   H     H_    0.800590 0.431587 0.224389 0.163754
H29   H     H_    0.703577 0.452851 0.100991 0.157824
H30   H     H_    0.777847 0.337141 0.171792 0.142234
H31   H     H_    0.353148 0.111357 0.955182 0.322456
H32   H     H_    0.509668 0.175266 0.840183 0.212430
H33   H     H_    0.591532 0.130958 0.971464 0.199471
H34   H     H_    0.928698 0.860883 0.655885 0.130379
H35   H     H_    0.587067 0.265732 0.895692 0.117835
H36   H     H_    0.470475 0.881447 0.028009 0.320098
H37   H     H_    0.656845 0.859349 0.159712 0.235166
H38   H     H_    0.712464 0.895926 0.041114 0.183802
H39   H     H_    0.696587 0.763529 0.130284 0.155157
H40   H     H_    0.939231 0.177358 0.558737 0.321414
H41   H     H_    0.876834 0.313217 0.410802 0.190964
H42   H     H_    0.822058 0.210947 0.367661 0.118268
H43   H     H_    0.977729 0.288096 0.344788 0.198513
H44   H     H_    0.062148 0.824586 0.443034 0.299854
N1    N     N_R   0.585750 0.204560 0.560800 -0.248115
N2    N     N_2   0.616641 0.342477 0.226610 -0.474710
N3    N     N_2   0.410128 0.180912 0.943009 -0.446185
N4    N     N_2   0.520045 0.821110 0.048141 -0.463740
N5    N     N_R   0.414250 0.795440 0.439200 -0.238202
N6    N     N_2   0.972371 0.184158 0.496038 -0.389344
N7    N     N_2   0.027434 0.815834 0.505670 -0.437826
N8    N     N_2   0.864121 0.308573 0.711375 -0.429259
N9    N     N_2   0.121215 0.692722 0.299333 -0.497322
N10   N     N_2   0.312733 0.351030 0.816528 -0.444299
N11   N     N_2   0.440245 0.637051 0.171392 -0.463049
N12   N     N_2   0.570721 0.664975 0.779991 -0.501681
O1    O     O_R   0.454850 0.022100 0.338110 -0.383165
O2    O     O_R   0.545150 0.977900 0.661890 -0.383651
O3    O     O_R   0.512700 0.160150 0.379180 -0.535967
O4    O     O_R   0.487300 0.839850 0.620820 -0.542281
O5    O     O_R   0.287930 0.931000 0.479440 -0.495808
O6    O     O_R   0.712070 0.069000 0.520560 -0.498610
O7    O     O_R   0.345780 0.069050 0.520520 -0.447473
O8    O     O_R   0.654220 0.930950 0.479480 -0.460137

loop_
_geom_bond_atom_site_label_1
_geom_bond_atom_site_label_2
_ccdc_geom_bond_type
C43   H3    S    
C46   H10   S    
C43   H2    S    
C23   C45   A    
C27   C29   S    
C34   C37   A    
C14   C18   A    
C3    Cl12  S    
C6    C55   A    
C39   C41   A    
C27   C33   S    
C51   H32   S    
C15   C19   A    
C49   N12   S    
C5    N10   S    
C50   H29   S    
Cu1   O8    S    
C12   O4    A    
C9    Cl5   S    
C47   H15   S    
C44   H7    S    
C38   C40   A    
C24   C26   A    
C1    O3    A    
C11   C14   A    
C35   Cl9   S    
C51   H33   S    
H5    N8    S    
C22   C25   A    
C44   N8    S    
C12   C37   S    
C44   H6    S    
C19   C26   A    
C42   H42   S    
C16   C32   S    
C10   N5    A    
C23   N2    S    
H44   N7    S    
C52   H37   S    
C39   C55   A    
C20   C24   A    
C45   C56   A    
Cu1   O4    S    
C48   H21   S    
Cu2   O7    S    
C31   C33   S    
C49   H24   S    
C11   N1    A    
C43   N7    S    
C34   N12   S    
C43   H4    S    
C48   N11   S    
C48   H20   S    
C21   C22   A    
H36   N4    S    
C17   O6    A    
C38   N3    S    
C18   C25   A    
C16   O7    A    
C13   N5    A    
C53   C55   A    
C11   H12   S    
C29   N6    S    
C50   H28   S    
C8    C19   A    
C9    N1    A    
C47   H16   S    
C14   C20   A    
C5    C54   A    
C36   C40   A    
C10   Cl1   S    
C28   C35   S    
C4    C6    A    
H40   N6    S    
C13   H1    S    
H9    N9    S    
C40   Cl11  S    
Cu2   O3    S    
C47   H17   S    
C42   H41   S    
C32   C35   S    
H18   N11   S    
C22   Cl6   S    
C46   H11   S    
C28   H34   S    
C42   H43   S    
C38   C54   A    
C30   N7    S    
Cu1   O5    S    
C7    C18   A    
Cu2   O6    S    
C49   H25   S    
H27   N2    S    
Cu1   O1    S    
C45   C54   A    
C24   Cl7   S    
C48   H19   S    
C13   C15   A    
C17   C31   S    
C46   N9    S    
C27   H23   S    
H14   N10   S    
C7    N8    S    
Cu2   O2    S    
C7    C9    A    
C30   C33   S    
C27   C32   S    
C28   C31   S    
C1    O1    A    
C6    N11   S    
C3    C5    A    
C2    C53   A    
H22   N12   S    
C8    N9    S    
C41   Cl10  S    
C12   O2    A    
Cu2   N1    S    
C16   O5    A    
C39   N4    S    
C29   C35   S    
C50   H30   S    
H31   N3    S    
C44   H8    S    
C2    C3    A    
C29   C31   S    
C2    C56   A    
C30   C32   S    
C42   N6    S    
C47   N10   S    
C52   H39   S    
C33   Cl8   S    
C28   C30   S    
C51   N3    S    
Cu1   N5    S    
C50   N2    S    
C49   H26   S    
C37   C41   A    
Cu1   Cu2   S    
C51   H35   S    
C46   H13   S    
C15   C21   A    
C20   C21   A    
C52   H38   S    
C34   C53   A    
C8    C10   A    
C23   C36   A    
C4    Cl2   S    
C17   O8    A    
C25   Cl3   S    
C26   Cl4   S    
C4    C56   A    
C1    C36   S    
C52   N4    S    
