data_mof_unit_11334.cif
_audit_creation_date              2012-12-10T16:49:26-0500
_audit_creation_method            fapswitch 2.2
_symmetry_space_group_name_H-M    P1
_symmetry_Int_Tables_number       1
_space_group_crystal_system       triclinic
_cell_length_a                    7.95827
_cell_length_b                    8.576815
_cell_length_c                    12.866593
_cell_angle_alpha                 86.282093
_cell_angle_beta                  89.452212
_cell_angle_gamma                 91.429948
_cell_volume                      876.05376348

loop_
_atom_site_label
_atom_site_type_symbol
_atom_type_description
_atom_site_fract_x
_atom_site_fract_y
_atom_site_fract_z
_atom_type_partial_charge
C1    C     C_R   0.458913 0.207339 0.494323 0.911147
C2    C     C_R   0.701576 0.569870 0.148954 -0.256417
C3    C     C_R   0.608092 0.593226 0.867500 0.097759
C4    C     C_R   0.412821 0.478544 0.122959 0.096892
C5    C     C_R   0.586229 0.583966 0.976592 0.132859
C6    C     C_R   0.425907 0.540748 0.019644 0.142908
C7    C     C_2   0.449583 0.048787 0.473358 0.014585
C8    C     C_2   0.547010 0.950089 0.529674 0.006085
C9    C     C_3   0.266442 0.366363 0.156594 -0.401161
C10   C     C_3   0.257183 0.224837 0.089883 -0.888176
C11   C     C_3   0.785968 0.604724 0.822238 -0.373374
C12   C     C_R   0.540590 0.792467 0.506309 0.896728
C13   C     C_3   0.866211 0.444333 0.837924 -0.805378
C14   C     C_3   0.091404 0.713248 0.319815 -0.722676
C15   C     C_3   0.914532 0.215531 0.626643 -0.697101
C16   C     C_3   0.475111 0.000493 0.290513 -0.841094
C17   C     C_3   0.508023 0.000330 0.711760 -0.831511
C18   C     C_R   0.472436 0.522030 0.697742 0.865913
C19   C     C_R   0.530649 0.493520 0.300774 0.849463
C20   C     C_R   0.549520 0.506433 0.189064 -0.086135
C21   C     C_R   0.463448 0.565676 0.805856 -0.103823
C22   C     C_R   0.284132 0.555774 0.957111 -0.227571
C23   C     C_R   0.721976 0.603275 0.043949 -0.232192
C24   C     C_R   0.303914 0.573906 0.850599 -0.267087
H1    H     H_    0.806549 0.593653 0.198866 0.169979
H2    H     H_    0.775310 0.349152 0.821265 0.263443
H3    H     H_    0.975132 0.436944 0.785674 0.258983
H4    H     H_    0.908881 0.422642 0.919208 0.235422
H5    H     H_    0.791596 0.650622 0.740018 0.231185
H6    H     H_    0.863749 0.695301 0.857907 0.165855
H7    H     H_    0.868823 0.655878 0.391910 0.279085
H8    H     H_    0.096674 0.616990 0.266735 0.216668
H9    H     H_    0.033267 0.815175 0.277797 0.192903
H10   H     H_    0.218878 0.749579 0.341328 0.311975
H11   H     H_    0.134413 0.342372 0.606329 0.287181
H12   H     H_    0.193923 0.581735 0.802899 0.187872
H13   H     H_    0.979008 0.140865 0.686931 0.189465
H14   H     H_    0.904892 0.151171 0.554646 0.252759
H15   H     H_    0.789567 0.241104 0.658299 0.297931
H16   H     H_    0.259641 0.069630 0.364233 0.241462
H17   H     H_    0.401840 0.957289 0.224788 0.248361
H18   H     H_    0.579166 0.918820 0.306685 0.241516
H19   H     H_    0.528582 0.118767 0.267396 0.243976
H20   H     H_    0.724100 0.919954 0.645678 0.231421
H21   H     H_    0.415896 0.093228 0.694330 0.242172
H22   H     H_    0.579210 0.030721 0.781783 0.240745
H23   H     H_    0.158258 0.546227 0.989601 0.151559
H24   H     H_    0.439671 0.887104 0.729298 0.243365
H25   H     H_    0.845342 0.644976 0.018510 0.148274
H26   H     H_    0.382725 0.172159 0.083934 0.266037
H27   H     H_    0.167644 0.135430 0.126238 0.248400
H28   H     H_    0.212005 0.257507 0.010368 0.267677
H29   H     H_    0.279448 0.316613 0.237485 0.235459
H30   H     H_    0.145327 0.427427 0.152489 0.194768
N1    N     N_2   0.054030 0.541640 0.471970 0.023160
N2    N     N_2   0.945970 0.458360 0.528030 0.022506
N3    N     N_2   0.991742 0.664997 0.410797 -0.226176
N4    N     N_2   0.009236 0.358682 0.605579 -0.255447
N5    N     N_2   0.366051 0.006826 0.380845 -0.316848
N6    N     N_2   0.623596 0.988674 0.625084 -0.330117
O1    O     O_R   0.609680 0.261530 0.506880 -0.597768
O2    O     O_R   0.390320 0.738470 0.493120 -0.591170
O3    O     O_R   0.323330 0.288220 0.488910 -0.666997
O4    O     O_R   0.676670 0.711780 0.511090 -0.668157
O5    O     O_R   0.619510 0.488830 0.661140 -0.611155
O6    O     O_R   0.380490 0.511170 0.338860 -0.632674
O7    O     O_R   0.333160 0.515520 0.643180 -0.653932
O8    O     O_R   0.666840 0.484480 0.356820 -0.648290
Zn1   Zn    Zn3+2 0.691200 0.482180 0.511990 0.943015
Zn2   Zn    Zn3+2 0.308800 0.517820 0.488010 0.943508

loop_
_geom_bond_atom_site_label_1
_geom_bond_atom_site_label_2
_ccdc_geom_bond_type
C14   H10   S    
N1    N2    D    
O3    Zn2   S    
C13   H4    S    
C1    O1    A    
N2    N4    S    
C3    C11   S    
C18   C21   S    
C12   O2    A    
C9    C10   S    
C19   C20   S    
C5    C23   A    
C17   H24   S    
C8    C12   S    
O7    Zn2   S    
C10   H28   S    
H7    N3    S    
C14   H9    S    
C22   H23   S    
C18   O7    A    
C19   O8    A    
C15   H14   S    
H16   N5    S    
C24   H12   S    
O4    Zn1   S    
C8    N6    S    
C18   O5    A    
C11   C13   S    
C16   H19   S    
C15   H15   S    
O6    Zn2   S    
H20   N6    S    
H11   N4    S    
O5    Zn1   S    
C10   H27   S    
C1    O3    A    
C7    N5    S    
C6    C22   A    
C17   H21   S    
C2    H1    S    
N1    N3    S    
C5    C6    A    
C12   O4    A    
C15   N4    S    
C22   C24   A    
C13   H2    S    
C23   H25   S    
N1    Zn2   S    
C3    C21   A    
C11   H5    S    
C17   N6    S    
C2    C20   A    
C10   H26   S    
C16   H18   S    
C7    C8    D    
C9    H29   S    
C17   H22   S    
O2    Zn2   S    
C19   O6    A    
C4    C6    A    
N2    Zn1   S    
C21   C24   A    
O1    Zn1   S    
C2    C23   A    
C14   N3    S    
C13   H3    S    
C9    H30   S    
C4    C9    S    
C1    C7    S    
C16   H17   S    
C15   H13   S    
C11   H6    S    
C14   H8    S    
O8    Zn1   S    
C3    C5    A    
C16   N5    S    
C4    C20   A    
