data_mof_unit_24681.cif
_audit_creation_date              2012-12-11T17:43:55-0500
_audit_creation_method            fapswitch 2.2
_symmetry_space_group_name_H-M    P1
_symmetry_Int_Tables_number       1
_space_group_crystal_system       triclinic
_cell_length_a                    20.288896
_cell_length_b                    22.800535
_cell_length_c                    6.936885
_cell_angle_alpha                 89.550745
_cell_angle_beta                  87.069585
_cell_angle_gamma                 90.195222
_cell_volume                      3204.66891438

loop_
_atom_site_label
_atom_site_type_symbol
_atom_type_description
_atom_site_fract_x
_atom_site_fract_y
_atom_site_fract_z
_atom_type_partial_charge
O1    O     O_R   0.751270 0.447300 0.600030 -0.547613
O2    O     O_R   0.248730 0.947300 0.399970 -0.547067
O3    O     O_R   0.613530 0.440160 0.952150 -0.537150
O4    O     O_R   0.386470 0.940160 0.047850 -0.539495
O5    O     O_R   0.613050 0.552700 0.122560 -0.516554
O6    O     O_R   0.386950 0.052700 0.877440 -0.527003
C1    C     C_R   0.591525 0.425671 0.786839 0.711566
C2    C     C_R   0.407220 0.925049 0.214812 0.708866
O7    O     O_R   0.750780 0.440350 0.929820 -0.548822
O8    O     O_R   0.249220 0.940350 0.070180 -0.548048
O9    O     O_R   0.751280 0.552900 0.100070 -0.550457
O10   O     O_R   0.248720 0.052900 0.899930 -0.545956
C3    C     C_R   0.773916 0.425996 0.757969 0.676666
C4    C     C_R   0.226533 0.925620 0.242887 0.677360
O11   O     O_R   0.613040 0.447100 0.622520 -0.536838
O12   O     O_R   0.386960 0.947100 0.377480 -0.537902
O13   O     O_3   0.682160 0.536920 0.777780 -0.358188
O14   O     O_3   0.317840 0.036920 0.222220 -0.348269
V1    V     V_3+5 0.682160 0.493150 0.052630 1.440515
V2    V     V_3+5 0.317840 0.993150 0.947370 1.446761
O15   O     O_R   0.750790 0.559840 0.429870 -0.540478
O16   O     O_R   0.249210 0.059840 0.570130 -0.544450
C5    C     C_R   0.776813 0.570860 0.257410 0.733358
C6    C     C_R   0.226099 0.074106 0.742141 0.706684
O17   O     O_R   0.613540 0.559650 0.452200 -0.532242
O18   O     O_R   0.386460 0.059650 0.547800 -0.517759
C7    C     C_R   0.594609 0.577088 0.284484 0.717561
C8    C     C_R   0.405726 0.076989 0.713492 0.702690
V3    V     V_3+5 0.682160 0.506850 0.552630 1.455154
V4    V     V_3+5 0.317840 0.006850 0.447370 1.474202
O19   O     O_3   0.682150 0.463080 0.277610 -0.376705
O20   O     O_3   0.317850 0.963080 0.722390 -0.376734
C9    C     C_R   0.578535 0.869187 0.259079 -0.003446
C10   C     C_R   0.421621 0.368106 0.714189 0.011993
H1    H     H_    0.670734 0.787507 0.207982 0.187379
H2    H     H_    0.335658 0.284772 0.614541 0.197942
C11   C     C_R   0.461900 0.883909 0.221972 -0.057631
C12   C     C_R   0.536180 0.384087 0.783011 -0.062058
C13   C     C_R   0.476628 0.598575 0.311866 -0.143153
C14   C     C_R   0.520827 0.097731 0.771756 -0.133452
C15   C     C_R   0.422544 0.635677 0.323638 -0.103037
C16   C     C_R   0.572189 0.134790 0.814540 -0.104420
C17   C     C_R   0.430845 0.696071 0.305757 -0.147247
C18   C     C_R   0.564183 0.195230 0.808081 -0.145477
C19   C     C_R   0.494129 0.721353 0.271570 0.087487
C20   C     C_R   0.504821 0.220778 0.749680 0.092088
C21   C     C_R   0.550155 0.683108 0.254885 0.003657
C22   C     C_R   0.452869 0.182501 0.693685 0.015916
C23   C     C_R   0.503285 0.783733 0.256144 0.072137
C24   C     C_R   0.495536 0.283208 0.748323 0.076923
C25   C     C_R   0.568160 0.807488 0.256585 0.037226
C26   C     C_R   0.432578 0.306424 0.707850 0.042243
C27   C     C_R   0.621603 0.769628 0.235369 -0.154157
C28   C     C_R   0.382926 0.268025 0.653493 -0.186150
C29   C     C_R   0.613039 0.709309 0.217948 -0.057253
C30   C     C_R   0.394711 0.208399 0.626269 -0.086222
C31   C     C_R   0.450411 0.823392 0.235700 -0.209707
C32   C     C_R   0.547192 0.323535 0.782316 -0.206530
C33   C     C_R   0.525067 0.906435 0.238321 -0.205661
C34   C     C_R   0.473428 0.405763 0.754625 -0.196983
C35   C     C_R   0.540590 0.620851 0.279685 -0.083934
C36   C     C_R   0.460614 0.120147 0.715373 -0.077293
H3    H     H_    0.400167 0.808641 0.224940 0.095125
H4    H     H_    0.597320 0.309691 0.798856 0.094582
H5    H     H_    0.386809 0.722093 0.325691 0.109397
H6    H     H_    0.605134 0.220670 0.854702 0.109930
C37   C     C_R   0.173213 0.880256 0.261657 -0.041214
C38   C     C_R   0.828623 0.382005 0.740848 -0.041883
C39   C     C_R   0.142826 0.859182 0.097678 -0.222367
C40   C     C_R   0.860349 0.361902 0.904878 -0.222304
C41   C     C_R   0.093114 0.816279 0.115040 -0.130322
C42   C     C_R   0.911962 0.320943 0.887937 -0.131421
C43   C     C_R   0.072457 0.792988 0.297914 0.425172
C44   C     C_R   0.933194 0.298670 0.705506 0.423867
C45   C     C_R   0.103132 0.813795 0.460777 -0.186999
C46   C     C_R   0.901193 0.318484 0.542801 -0.184088
C47   C     C_R   0.152562 0.856955 0.443537 -0.198733
C48   C     C_R   0.849980 0.359666 0.559539 -0.198705
C49   C     C_R   0.928009 0.662017 0.371882 -0.114980
C50   C     C_R   0.078616 0.169920 0.630128 -0.114472
C51   C     C_R   0.874879 0.622473 0.392108 -0.168359
C52   C     C_R   0.129778 0.128789 0.610180 -0.171381
C53   C     C_R   0.940914 0.693851 0.198033 0.360281
C54   C     C_R   0.068894 0.203243 0.800541 0.361651
N1    N     N_2   0.021897 0.749098 0.324815 -0.307200
N2    N     N_2   0.984966 0.256210 0.678549 -0.308210
N3    N     N_2   0.992355 0.737140 0.176139 -0.250939
N4    N     N_2   0.016982 0.245854 0.824469 -0.249902
C55   C     C_R   0.835019 0.611374 0.236799 -0.025366
C56   C     C_R   0.172164 0.118630 0.760585 -0.039234
H7    H     H_    0.865329 0.600209 0.529253 0.126902
H8    H     H_    0.135597 0.104265 0.477332 0.125886
H9    H     H_    0.174903 0.871762 0.573081 0.131965
H10   H     H_    0.826883 0.373773 0.429826 0.131441
C57   C     C_R   0.850303 0.640275 0.060229 -0.178810
C58   C     C_R   0.162769 0.151433 0.930452 -0.215778
C59   C     C_R   0.900617 0.683013 0.041088 -0.063022
C60   C     C_R   0.112243 0.193815 0.952233 -0.065194
H11   H     H_    0.820825 0.631378 0.938040 0.151206
H12   H     H_    0.195522 0.144186 0.046856 0.160824
H13   H     H_    0.532245 0.953617 0.238808 0.139144
H14   H     H_    0.465824 0.452856 0.752873 0.126278
H15   H     H_    0.958348 0.668195 0.493867 0.154612
H16   H     H_    0.046550 0.175366 0.511404 0.152674
H17   H     H_    0.088518 0.796546 0.602485 0.137271
H18   H     H_    0.916216 0.301983 0.401379 0.135380
H19   H     H_    0.071288 0.801389 0.984957 0.166531
H20   H     H_    0.934730 0.306641 0.017843 0.164219
C61   C     C_2   0.907543 0.717780 0.858259 0.776824
O21   O     O_2   0.861615 0.719968 0.750780 -0.542662
O22   O     O_R   0.965693 0.748596 0.808418 -0.663135
H21   H     H_    0.962821 0.771917 0.684183 0.308461
C62   C     C_2   0.106770 0.228230 0.134415 0.775953
O23   O     O_2   0.152942 0.229337 0.241097 -0.550826
O24   O     O_R   0.049299 0.259287 0.185863 -0.659647
H22   H     H_    0.052470 0.281156 0.311757 0.308980
H23   H     H_    0.157334 0.875924 0.955228 0.132150
H24   H     H_    0.845485 0.377991 0.046910 0.130537
C63   C     C_2   0.643771 0.896870 0.287425 0.764458
O25   O     O_2   0.681785 0.874978 0.398588 -0.538297
O26   O     O_R   0.660403 0.949730 0.193162 -0.661332
H25   H     H_    0.705522 0.964805 0.225880 0.307724
C64   C     C_2   0.358188 0.396177 0.670562 0.759721
O27   O     O_2   0.331477 0.385019 0.521017 -0.545019
O28   O     O_R   0.331193 0.438428 0.796096 -0.649761
H26   H     H_    0.288653 0.455510 0.749897 0.308489
H27   H     H_    0.468548 0.551812 0.330931 0.115167
H28   H     H_    0.527411 0.050836 0.788893 0.117364
H29   H     H_    0.373571 0.617465 0.350977 0.132773
H30   H     H_    0.618005 0.116436 0.860665 0.134894
C65   C     C_2   0.669662 0.679180 0.126089 0.734438
O29   O     O_2   0.723973 0.686152 0.189969 -0.558015
O30   O     O_R   0.662906 0.651519 0.949412 -0.636795
H31   H     H_    0.706997 0.641023 0.884143 0.310175
C66   C     C_2   0.351465 0.179478 0.490555 0.769903
O31   O     O_2   0.375904 0.155440 0.347188 -0.537059
O32   O     O_R   0.283096 0.186235 0.512688 -0.652267
H32   H     H_    0.259200 0.168147 0.402784 0.318516

loop_
_geom_bond_atom_site_label_1
_geom_bond_atom_site_label_2
_ccdc_geom_bond_type
C49   C53   A    
C10   C64   S    
C41   H19   S    
H1    C27   S    
O13   V3    S    
C18   H6    S    
O22   H21   S    
C37   C47   A    
O4    C2    A    
V1    O19   S    
C52   H8    S    
C66   O31   D    
C13   C15   A    
O9    V1    S    
C44   C46   A    
C50   H16   S    
C38   C48   A    
C46   C48   A    
O3    C1    A    
C61   O22   S    
N2    N4    D    
C64   O28   S    
C57   H11   S    
O12   V4    S    
O24   H22   S    
C14   H28   S    
C14   C36   A    
C66   O32   S    
C19   C21   A    
C47   H9    S    
C39   C41   A    
O7    C3    A    
C7    C35   S    
O5    C7    A    
O7    V1    S    
O6    C8    A    
C42   H20   S    
C18   C20   A    
C23   C25   A    
C58   C60   A    
C24   C26   A    
C4    C37   S    
C5    C55   S    
O3    V1    S    
O14   V4    S    
C50   C54   A    
C51   C55   A    
C27   C29   A    
C9    C33   A    
C12   C32   A    
C10   C34   A    
C15   C17   A    
C49   H15   S    
C16   C18   A    
C34   H14   S    
C26   C28   A    
O11   V3    S    
C20   C22   A    
C63   O26   S    
O17   V3    S    
C13   C35   A    
C28   C30   A    
C13   H27   S    
N1    N3    D    
C33   H13   S    
C64   O27   D    
C42   C44   A    
O8    C4    A    
O8    V2    S    
C49   C51   A    
C60   C62   S    
C1    O11   A    
C32   H4    S    
O15   V3    S    
C9    C25   A    
C37   C39   A    
C24   C32   A    
C55   C57   A    
C15   H29   S    
C17   C19   A    
C22   C36   A    
C19   C23   A    
C17   H5    S    
O10   V2    S    
O1    V3    S    
C16   H30   S    
C44   N2    S    
C56   C58   A    
C45   C47   A    
C43   N1    S    
O26   H25   S    
C11   C33   A    
C12   C34   A    
C50   C52   A    
O18   V4    S    
C29   C65   S    
O15   C5    A    
O30   H31   S    
O16   C6    A    
O1    C3    A    
C2    C11   S    
C43   C45   A    
C65   O29   D    
C30   C66   S    
C21   C29   A    
C62   O23   D    
V2    O20   S    
C22   C30   A    
O10   C6    A    
C46   H18   S    
O16   V4    S    
C10   C26   A    
C54   N4    S    
C31   H3    S    
C14   C16   A    
C65   O30   S    
C6    C56   S    
C53   N3    S    
C21   C35   A    
C23   C31   A    
C63   O25   D    
C57   C59   A    
C9    C63   S    
O5    V1    S    
O4    V2    S    
O17   C7    A    
O6    V2    S    
O32   H32   S    
C20   C24   A    
O18   C8    A    
C52   C56   A    
O2    V4    S    
C54   C60   A    
C59   C61   S    
V3    O19   S    
C61   O21   D    
V4    O20   S    
C39   H23   S    
O28   H26   S    
C48   H10   S    
C58   H12   S    
O9    C5    A    
O13   V1    S    
C1    C12   S    
O14   V2    S    
O2    C4    A    
H2    C28   S    
C51   H7    S    
C40   H24   S    
C2    O12   A    
C53   C59   A    
C41   C43   A    
C38   C40   A    
C40   C42   A    
C45   H17   S    
C25   C27   A    
C11   C31   A    
C62   O24   S    
C3    C38   S    
C8    C36   S    
