data_mof_unit_51219.cif
_audit_creation_date              2012-12-10T20:45:28-0500
_audit_creation_method            fapswitch 2.2
_symmetry_space_group_name_H-M    P1
_symmetry_Int_Tables_number       1
_space_group_crystal_system       triclinic
_cell_length_a                    10.786564
_cell_length_b                    10.659429
_cell_length_c                    9.868402
_cell_angle_alpha                 89.191088
_cell_angle_beta                  90.778057
_cell_angle_gamma                 89.256508
_cell_volume                      1134.33909736

loop_
_atom_site_label
_atom_site_type_symbol
_atom_type_description
_atom_site_fract_x
_atom_site_fract_y
_atom_site_fract_z
_atom_type_partial_charge
C1    C     C_R   0.501807 0.260326 0.500543 0.873134
C2    C     C_R   0.199179 0.701963 0.010671 -0.105057
C3    C     C_R   0.930556 0.544412 0.387311 -0.254933
C4    C     C_R   0.872545 0.502383 0.504761 -0.083437
C5    C     C_R   0.942246 0.465476 0.620939 -0.009543
C6    C     C_R   0.069202 0.466533 0.613890 -0.261280
C7    C     C_R   0.127474 0.508278 0.496531 -0.080245
C8    C     C_R   0.057944 0.549606 0.381598 -0.003486
C9    C     C_R   0.853027 0.515293 0.846353 -0.106070
C10   C     C_R   0.813493 0.477553 0.974706 -0.146593
C11   C     C_R   0.808732 0.350150 0.009041 -0.125525
C12   C     C_R   0.260042 0.504053 0.498596 0.864621
C13   C     C_R   0.845793 0.260234 0.915708 -0.163073
C14   C     C_R   0.886506 0.297620 0.787496 -0.192707
C15   C     C_R   0.888976 0.425277 0.751622 0.155780
C16   C     C_R   0.596955 0.061485 0.570146 0.111845
C17   C     C_R   0.505693 0.128480 0.497954 -0.087113
C18   C     C_R   0.428470 0.067532 0.405555 -0.228699
C19   C     C_R   0.429891 0.938165 0.403072 -0.242219
C20   C     C_R   0.505869 0.871478 0.495062 -0.079321
C21   C     C_R   0.594617 0.933297 0.571308 0.126875
C22   C     C_3   0.629697 0.923592 0.717799 -0.509123
C23   C     C_R   0.500652 0.739699 0.499101 0.871472
C24   C     C_3   0.637238 0.065714 0.715096 -0.485767
C25   C     C_R   0.468673 0.394564 0.073019 0.195105
C26   C     C_R   0.537863 0.601606 0.070901 -0.138470
C27   C     C_R   0.538469 0.601338 0.927231 -0.129300
C28   C     C_R   0.466760 0.394443 0.929955 0.187812
C29   C     C_3   0.340885 0.334485 0.930271 -0.156909
C30   C     C_3   0.348253 0.330358 0.084247 -0.516995
C31   C     C_R   0.740047 0.499216 0.501532 0.870107
C32   C     C_R   0.224171 0.761581 0.132934 -0.138950
C33   C     C_R   0.180031 0.711399 0.254890 -0.096539
C34   C     C_R   0.111621 0.600278 0.254736 0.142596
C35   C     C_R   0.085083 0.542539 0.130874 -0.198140
C36   C     C_R   0.128564 0.593409 0.009585 -0.151369
H1    H     H_    0.233706 0.740103 0.916552 0.130700
H2    H     H_    0.778248 0.321333 0.108656 0.138898
H3    H     H_    0.844335 0.161636 0.943270 0.135179
H4    H     H_    0.917858 0.227533 0.716858 0.124524
H5    H     H_    0.363182 0.119294 0.341092 0.148330
H6    H     H_    0.366911 0.890783 0.336258 0.147467
H7    H     H_    0.552793 0.888882 0.781458 0.206362
H8    H     H_    0.720999 0.875957 0.734723 0.194605
H9    H     H_    0.569638 0.113033 0.780879 0.209414
H10   H     H_    0.733671 0.098855 0.725240 0.202532
H11   H     H_    0.567839 0.684109 0.124061 0.147438
H12   H     H_    0.276476 0.847390 0.132097 0.117503
H13   H     H_    0.569998 0.683037 0.872699 0.141959
H14   H     H_    0.267963 0.399247 0.889126 0.173028
H15   H     H_    0.277095 0.388652 0.133859 0.221561
H16   H     H_    0.360348 0.235081 0.129899 0.189103
H17   H     H_    0.197395 0.759173 0.349139 0.096493
H18   H     H_    0.032282 0.456975 0.128853 0.148123
H19   H     H_    0.107721 0.548579 0.914683 0.133937
H20   H     H_    0.876298 0.576494 0.299811 0.161490
H21   H     H_    0.122702 0.433375 0.701299 0.150742
H22   H     H_    0.858000 0.614415 0.821612 0.114645
H23   H     H_    0.788914 0.547255 0.048558 0.133343
N1    N     N_R   0.499160 0.499140 0.142800 -0.100175
N2    N     N_R   0.499160 0.499180 0.857150 -0.108894
O1    O     O_R   0.500020 0.316790 0.614690 -0.631184
O2    O     O_R   0.500000 0.316760 0.385350 -0.618208
O3    O     O_R   0.316770 0.500030 0.614670 -0.630248
O4    O     O_R   0.316750 0.499990 0.385330 -0.612911
O5    O     O_R   0.500000 0.683240 0.614650 -0.627258
O6    O     O_R   0.499980 0.683210 0.385310 -0.625657
O7    O     O_R   0.683250 0.500010 0.614670 -0.606953
O8    O     O_R   0.683230 0.499970 0.385330 -0.630361
Zn1   Zn    Zn3+2 0.500010 0.500020 0.653130 0.943157
Zn2   Zn    Zn3+2 0.499990 0.499980 0.346870 0.943029
C37   C     C_3   0.336376 0.203450 0.867876 -0.373707
C38   C     C_3   0.208004 0.145518 0.883364 -0.351038
C39   C     C_3   0.201643 0.019536 0.812274 -0.902423
H24   H     H_    0.214344 0.032608 0.701440 0.266789
H25   H     H_    0.275178 0.954952 0.852829 0.256916
H26   H     H_    0.109798 0.976729 0.829620 0.249631
H27   H     H_    0.187509 0.131202 0.992537 0.228290
H28   H     H_    0.136270 0.209749 0.838316 0.224532
H29   H     H_    0.355916 0.211322 0.758485 0.235053
H30   H     H_    0.406964 0.140443 0.917198 0.195765

loop_
_geom_bond_atom_site_label_1
_geom_bond_atom_site_label_2
_ccdc_geom_bond_type
N2    Zn1   S    
C30   H15   S    
C16   C21   A    
C38   C39   S    
C35   C36   A    
C1    O1    A    
C7    C8    A    
C25   C28   A    
C26   C27   A    
C39   H25   S    
C24   H9    S    
C23   O5    A    
C28   C29   S    
C9    H22   S    
C5    C6    A    
C12   O3    A    
C18   C19   A    
O1    Zn1   S    
C2    C32   A    
C34   C35   A    
C23   O6    A    
O8    Zn2   S    
C27   N2    A    
C22   H8    S    
C19   C20   A    
C16   C17   A    
C39   H26   S    
C38   H27   S    
C25   N1    A    
O3    Zn1   S    
C9    C10   A    
C37   H30   S    
C19   H6    S    
C29   C37   S    
C28   N2    A    
C16   C24   S    
C21   C22   S    
C35   H18   S    
C32   H12   S    
C6    H21   S    
C31   O7    A    
C1    O2    A    
C17   C18   A    
C29   H14   S    
C33   H17   S    
C7    C12   S    
C13   H3    S    
C39   H24   S    
C3    C8    A    
C18   H5    S    
C37   C38   S    
N1    Zn2   S    
O4    Zn2   S    
C11   H2    S    
C29   C30   S    
C3    H20   S    
C22   H7    S    
C20   C23   S    
C33   C34   A    
C38   H28   S    
C8    C34   S    
C26   H11   S    
O2    Zn2   S    
C22   C24   S    
C3    C4    A    
C2    C36   A    
C25   C30   S    
C30   H16   S    
C4    C5    A    
C6    C7    A    
C12   O4    A    
C1    C17   S    
C24   H10   S    
C32   C33   A    
C10   H23   S    
C9    C15   A    
C37   H29   S    
C36   H19   S    
C11   C13   A    
C2    H1    S    
O5    Zn1   S    
O6    Zn2   S    
C5    C15   S    
C4    C31   S    
C10   C11   A    
C14   H4    S    
C31   O8    A    
C20   C21   A    
O7    Zn1   S    
C14   C15   A    
C13   C14   A    
C26   N1    A    
C27   H13   S    
