data_mof_unit_14408.cif
_audit_creation_date              2013-03-05T15:54:52-0500
_audit_creation_method            fapswitch 2.2
_symmetry_space_group_name_H-M    P1
_symmetry_Int_Tables_number       1
_space_group_crystal_system       triclinic
_cell_length_a                    13.671486
_cell_length_b                    14.05439
_cell_length_c                    30.049255
_cell_angle_alpha                 97.632312
_cell_angle_beta                  89.89343
_cell_angle_gamma                 119.233978
_cell_volume                      4980.49922806

loop_
_atom_site_label
_atom_site_type_symbol
_atom_site_description
_atom_site_fract_x
_atom_site_fract_y
_atom_site_fract_z
_atom_type_partial_charge
O1    O     O_R   0.494060 0.188820 0.559230 -0.531258
O2    O     O_R   0.678470 0.153390 0.554100 -0.543806
C1    C     C_R   0.720100 0.099363 0.568879 0.816008
O3    O     O_R   0.697870 0.003940 0.549410 -0.510531
O4    O     O_R   0.480980 0.827230 0.535590 -0.536693
C2    C     C_R   0.383026 0.787934 0.551007 0.818697
O5    O     O_R   0.309390 0.811640 0.537920 -0.531400
O6    O     O_R   0.341810 0.023400 0.546180 -0.518989
C3    C     C_R   0.398900 0.117483 0.569937 0.822282
O7    O     O_R   0.493150 0.185870 0.461540 -0.512446
O8    O     O_R   0.677630 0.150660 0.463530 -0.549944
C4    C     C_R   0.719602 0.095623 0.442606 0.871996
O9    O     O_R   0.696960 0.000990 0.451710 -0.496962
O10   O     O_R   0.480140 0.824500 0.445020 -0.525301
C5    C     C_R   0.382503 0.784928 0.425024 0.796251
O11   O     O_R   0.308480 0.808690 0.440220 -0.524576
O12   O     O_R   0.340970 0.020670 0.455610 -0.536792
C6    C     C_R   0.395656 0.116097 0.443607 0.872514
Cr1   Cr    Cr6+3 0.583400 0.162540 0.509180 1.034194
Cr2   Cr    Cr6+3 0.584070 0.916690 0.495550 1.075298
Cr3   Cr    Cr6+3 0.332550 0.920810 0.495240 1.044494
O13   O     O_3   0.500010 0.000010 0.499990 -0.370676
C7    C     C_R   0.359789 0.724786 0.588975 -0.123901
C8    C     C_R   0.444596 0.711172 0.608545 -0.183963
C9    C     C_R   0.432415 0.672357 0.650087 0.400697
C10   C     C_R   0.333728 0.649220 0.672315 -0.011808
C11   C     C_R   0.245286 0.653044 0.650893 -0.054782
C12   C     C_R   0.257671 0.689445 0.609290 -0.056753
C13   C     C_R   0.263584 0.668309 0.833229 -0.041071
C14   C     C_R   0.252997 0.653850 0.878681 0.403191
C15   C     C_R   0.371465 0.568546 0.869654 -0.172636
C16   C     C_R   0.383093 0.585834 0.825026 -0.013604
C17   C     C_R   0.325765 0.631749 0.806354 0.031280
C18   C     C_1   0.327009 0.636400 0.759053 0.174070
C19   C     C_1   0.328692 0.639683 0.719313 0.186586
C20   C     C_R   0.302170 0.597091 0.896443 -0.174173
H1    H     H_    0.522321 0.735009 0.592339 0.197486
H2    H     H_    0.432242 0.558142 0.804453 0.172595
C21   C     C_3   0.319800 0.007619 0.718186 0.496142
C22   C     C_3   0.243174 0.140502 0.715541 -0.361332
C23   C     C_3   0.224723 0.142655 0.766832 0.131933
H3    H     H_    0.262301 0.221867 0.706412 0.218027
C24   C     C_1   0.300482 0.186539 0.879671 -0.002249
C25   C     C_3   0.343410 0.121691 0.703828 -0.149641
C26   C     C_3   0.313914 0.018412 0.773402 0.456214
C27   C     C_3   0.319822 0.134379 0.792191 -0.252641
C28   C     C_3   0.432380 0.236162 0.780629 0.181315
C29   C     C_3   0.451147 0.217984 0.730248 -0.408307
C30   C     C_1   0.309731 0.156030 0.841193 0.261142
C31   C     C_1   0.356900 0.125753 0.655184 0.175484
C32   C     C_1   0.372720 0.126848 0.615792 -0.042968
H4    H     H_    0.420251 0.309711 0.785765 0.105580
C33   C     C_3   0.751275 0.212656 0.727953 -0.467713
C34   C     C_3   0.953226 0.277888 0.715592 0.118611
C35   C     C_3   0.979372 0.304193 0.769495 0.531172
H5    H     H_    0.781112 0.298353 0.797198 0.267483
C36   C     C_1   0.907675 0.212887 0.878128 0.016004
C37   C     C_3   0.830909 0.179596 0.701698 -0.127903
C38   C     C_3   0.771648 0.219585 0.779350 -0.285564
C39   C     C_3   0.875736 0.208158 0.789948 -0.219763
C40   C     C_3   0.856179 0.093094 0.766385 0.147274
C41   C     C_3   0.808299 0.068416 0.717021 0.174819
C42   C     C_1   0.889796 0.212607 0.838967 0.225045
C43   C     C_1   0.801201 0.161554 0.653138 0.139515
C44   C     C_1   0.770022 0.136460 0.613853 -0.037308
H6    H     H_    0.662485 0.151125 0.717505 0.252381
H7    H     H_    0.699012 0.154197 0.792776 0.285806
C45   C     C_3   0.436370 0.803975 0.270973 0.171148
C46   C     C_3   0.228859 0.649207 0.268689 0.240575
C47   C     C_3   0.228355 0.637939 0.216401 -0.527756
C48   C     C_1   0.309851 0.608363 0.110464 -0.074507
C49   C     C_3   0.352407 0.694529 0.289156 -0.196155
C50   C     C_3   0.429466 0.785110 0.217930 0.180092
C51   C     C_3   0.344974 0.661059 0.199766 -0.111518
C52   C     C_3   0.374764 0.579414 0.219706 0.191749
C53   C     C_3   0.384338 0.603100 0.272548 0.061183
C54   C     C_1   0.330597 0.637753 0.150332 0.138203
C55   C     C_1   0.359361 0.712667 0.338690 0.143361
C56   C     C_1   0.367578 0.738106 0.378831 -0.016511
H8    H     H_    0.319238 0.525597 0.283915 0.089394
C57   C     C_R   0.354549 0.137884 0.402711 -0.235370
C58   C     C_R   0.415453 0.239811 0.386416 0.385975
C59   C     C_R   0.398499 0.243982 0.341069 -0.228048
C60   C     C_R   0.317682 0.151216 0.312699 -0.086732
C61   C     C_R   0.243977 0.054375 0.330320 0.484468
C62   C     C_R   0.264651 0.048936 0.375340 -0.183719
C63   C     C_R   0.221426 0.106333 0.152286 -0.089409
C64   C     C_R   0.216567 0.122988 0.108063 -0.205245
C65   C     C_R   0.416196 0.259140 0.116014 0.391813
C66   C     C_R   0.419186 0.242428 0.160934 -0.134628
C67   C     C_R   0.321237 0.169263 0.179169 0.012802
C68   C     C_1   0.320521 0.162710 0.226123 0.076417
C69   C     C_1   0.317859 0.157325 0.265600 0.154372
C70   C     C_R   0.311526 0.203949 0.090097 -0.170488
H9    H     H_    0.889060 0.362721 0.189089 0.152095
C71   C     C_R   0.773004 0.132450 0.400892 -0.215542
C72   C     C_R   0.831983 0.085413 0.376716 0.284280
C73   C     C_R   0.852899 0.101239 0.331428 0.326165
C74   C     C_R   0.814137 0.163111 0.311417 -0.070792
C75   C     C_R   0.765303 0.216727 0.336678 -0.125657
C76   C     C_R   0.746180 0.202847 0.381072 -0.150411
C77   C     C_R   0.873745 0.291144 0.165183 -0.125374
C78   C     C_R   0.903025 0.303830 0.121102 -0.120903
C79   C     C_R   0.842964 0.108397 0.104249 -0.146882
C80   C     C_R   0.813586 0.095963 0.148258 -0.039106
C81   C     C_R   0.833347 0.188147 0.179000 0.070685
C82   C     C_1   0.825319 0.179483 0.225568 0.028716
C83   C     C_1   0.821425 0.172163 0.264756 0.121394
C84   C     C_R   0.893083 0.213489 0.091007 -0.055440
H10   H     H_    0.782094 0.016025 0.158978 0.208554
O14   O     O_R   0.969690 0.151000 0.934080 -0.511286
O15   O     O_R   0.187530 0.180840 0.938210 -0.511249
C85   C     C_R   0.284063 0.231025 0.923054 0.817067
O16   O     O_R   0.358160 0.327300 0.941250 -0.533415
O17   O     O_R   0.323950 0.507710 0.953980 -0.546623
C86   C     C_R   0.266590 0.547434 0.938107 0.861640
O18   O     O_R   0.170530 0.527770 0.952070 -0.494649
O19   O     O_R   0.987720 0.318450 0.945940 -0.526360
C87   C     C_R   0.947012 0.223086 0.923295 0.817344
O20   O     O_R   0.976400 0.159230 0.032040 -0.548443
O21   O     O_R   0.193740 0.188470 0.029020 -0.548222
C88   C     C_R   0.292126 0.241951 0.049070 0.839574
O22   O     O_R   0.364860 0.335530 0.039220 -0.496947
O23   O     O_R   0.330170 0.515340 0.044800 -0.520095
C89   C     C_R   0.274748 0.558043 0.064758 0.794619
O24   O     O_R   0.177230 0.536000 0.050040 -0.537614
O25   O     O_R   0.993930 0.326080 0.036750 -0.537084
C90   C     C_R   0.952813 0.231983 0.049752 0.769348
Cr4   Cr    Cr6+3 0.086700 0.177000 0.983690 1.039845
Cr5   Cr    Cr6+3 0.336880 0.419130 0.994740 1.055700
Cr6   Cr    Cr6+3 0.084850 0.422220 0.995960 1.050792
O26   O     O_3   0.169480 0.339450 0.991460 -0.371774
N1    N     N_R   0.192384 0.696450 0.905937 0.147967
O27   O     O_R   0.228463 0.741673 0.947521 -0.343873
O28   O     O_R   0.111249 0.704916 0.887669 -0.268242
N2    N     N_R   0.215257 0.919155 0.691971 0.123813
O29   O     O_R   0.115685 0.885071 0.706255 -0.261705
O30   O     O_R   0.221149 0.883978 0.650267 -0.351031
H11   H     H_    0.167201 0.078608 0.693927 0.288535
N3    N     N_R   0.110640 0.062553 0.777304 0.205668
O31   O     O_R   0.079475 0.071294 0.817896 -0.309155
O32   O     O_R   0.033772 0.995423 0.745875 -0.248151
H12   H     H_    0.234343 0.225202 0.778922 0.172307
H13   H     H_    0.522493 0.201897 0.726105 0.232862
H14   H     H_    0.476035 0.295738 0.716345 0.199162
N4    N     N_R   0.535649 0.270314 0.808855 0.150577
O33   O     O_R   0.534321 0.230913 0.845807 -0.320208
O34   O     O_R   0.627740 0.356542 0.801036 -0.338613
N5    N     N_R   0.407958 0.979331 0.704609 0.120258
O35   O     O_R   0.399302 0.888183 0.714407 -0.334819
O36   O     O_R   0.478440 0.027990 0.675161 -0.418328
N6    N     N_R   0.408827 0.016931 0.796158 0.160899
O37   O     O_R   0.508810 0.064043 0.781996 -0.350570
O38   O     O_R   0.396301 0.978368 0.834124 -0.291875
H15   H     H_    0.221937 0.706563 0.818693 0.231603
H16   H     H_    0.764363 0.293268 0.720330 0.229679
N7    N     N_R   0.036841 0.259639 0.691013 0.156526
O39   O     O_R   0.061664 0.186029 0.700205 -0.345540
O40   O     O_R   0.091443 0.321556 0.661088 -0.347321
H17   H     H_    0.955219 0.349639 0.703167 0.153376
N8    N     N_R   0.988778 0.411574 0.788529 0.092443
O41   O     O_R   0.974790 0.473998 0.763829 -0.346160
O42   O     O_R   0.015111 0.447129 0.831407 -0.339049
N9    N     N_R   0.088348 0.312431 0.781652 0.087795
O43   O     O_R   0.177753 0.382271 0.764228 -0.371569
O44   O     O_R   0.103372 0.279416 0.818157 -0.401330
H18   H     H_    0.715223 0.015497 0.715945 0.173179
N10   N     N_R   0.846996 0.001028 0.688569 0.187942
O45   O     O_R   0.822903 0.905380 0.698981 -0.224045
O46   O     O_R   0.888278 0.024874 0.649961 -0.300652
N11   N     N_R   0.784500 0.001671 0.790853 0.152482
O47   O     O_R   0.678947 0.971781 0.794825 -0.322936
O48   O     O_R   0.826023 0.947415 0.807863 -0.246777
H19   H     H_    0.169180 0.634694 0.667718 0.187654
H20   H     H_    0.939804 0.099618 0.765988 0.214564
H21   H     H_    0.393753 0.833621 0.205518 0.147509
N12   N     N_R   0.419923 0.897519 0.288924 0.106998
O49   O     O_R   0.487013 0.969816 0.322152 -0.388858
O50   O     O_R   0.346830 0.915810 0.269628 -0.346188
H22   H     H_    0.176134 0.564762 0.277336 0.073414
N13   N     N_R   0.173011 0.712377 0.285866 0.203551
O51   O     O_R   0.077420 0.688095 0.265974 -0.289902
O52   O     O_R   0.199925 0.769677 0.325989 -0.325944
H23   H     H_    0.204941 0.695657 0.203758 0.245080
H24   H     H_    0.161852 0.553284 0.201712 0.159690
N14   N     N_R   0.492913 0.626231 0.293296 0.179253
O53   O     O_R   0.588294 0.700512 0.281180 -0.258780
O54   O     O_R   0.494059 0.566279 0.322567 -0.318367
H25   H     H_    0.189927 0.696856 0.594565 0.189351
N15   N     N_R   0.471025 0.571669 0.201229 0.201907
O55   O     O_R   0.489667 0.494401 0.211297 -0.324530
O56   O     O_R   0.527146 0.627694 0.170040 -0.272339
H26   H     H_    0.521075 0.826303 0.284505 0.196615
N16   N     N_R   0.539811 0.825247 0.198875 0.152820
O57   O     O_R   0.632017 0.860967 0.223934 -0.296602
O58   O     O_R   0.547934 0.839815 0.156861 -0.352068
H27   H     H_    0.300694 0.495533 0.209878 0.043839
H28   H     H_    0.135587 0.077636 0.089107 0.177855
H29   H     H_    0.145692 0.048302 0.166173 0.184357
N17   N     N_R   0.150294 0.960718 0.303654 0.217053
O59   O     O_R   0.069229 0.887039 0.323451 -0.241273
O60   O     O_R   0.142439 0.949072 0.259914 -0.311054
H30   H     H_    0.214680 0.971936 0.388122 0.217923
N18   N     N_R   0.495078 0.338766 0.415044 0.131192
O61   O     O_R   0.469811 0.363559 0.455097 -0.335648
O62   O     O_R   0.584483 0.412233 0.398892 -0.323158
H31   H     H_    0.497354 0.287588 0.181873 0.189575
N19   N     N_R   0.518842 0.331691 0.097581 0.129745
O63   O     O_R   0.539730 0.303974 0.057111 -0.339940
O64   O     O_R   0.598858 0.416003 0.123351 -0.298831
H32   H     H_    0.449934 0.319834 0.327588 0.215271
H33   H     H_    0.941509 0.385689 0.111761 0.159037
H34   H     H_    0.737842 0.266348 0.321495 0.172985
H35   H     H_    0.702046 0.241117 0.398688 0.193816
N20   N     N_R   0.867277 0.019543 0.397345 0.160838
O65   O     O_R   0.920414 0.055455 0.437082 -0.340765
O66   O     O_R   0.847348 0.923964 0.376398 -0.251038
H36   H     H_    0.833615 0.037339 0.081560 0.166397
N21   N     N_R   0.915959 0.057751 0.306614 0.157765
O67   O     O_R   0.012587 0.077540 0.323691 -0.328990
O68   O     O_R   0.879614 0.002117 0.266363 -0.290895
H37   H     H_    0.410816 0.525536 0.882100 0.174296
N22   N     N_R   0.521890 0.661232 0.669725 0.133639
O69   O     O_R   0.501927 0.594986 0.699166 -0.349205
O70   O     O_R   0.621401 0.707718 0.654580 -0.286307
N23   N     N_R   0.211501 0.922309 0.785400 0.189347
O71   O     O_R   0.194334 0.824114 0.769526 -0.307916
O72   O     O_R   0.163677 0.931332 0.821964 -0.269410

loop_
_geom_bond_atom_site_label_1
_geom_bond_atom_site_label_2
_geom_bond_distance
_ccdc_geom_bond_type
C37   C41   1.570978 S    
C41   N10   1.476646 S    
C80   H10   1.083750 S    
N15   O55   1.301412 A    
C63   C67   1.390074 A    
C77   C78   1.391976 A    
C50   C51   1.566638 S    
N16   O58   1.301543 A    
N22   O69   1.301415 A    
C3    C32   1.428306 S    
C63   H29   1.084126 S    
C49   C53   1.570850 S    
C12   H25   1.082776 S    
C72   C73   1.414248 A    
C33   C38   1.551609 S    
O4    Cr2   1.918206 S    
C61   C62   1.402095 A    
C74   C83   1.423570 S    
N11   O48   1.300920 A    
C27   C30   1.483572 S    
O8    Cr1   1.926622 S    
C10   C11   1.398151 A    
N7    O39   1.296502 A    
C89   O24   1.277270 A    
C39   C42   1.474935 S    
C41   H18   1.114800 S    
N9    O43   1.301489 A    
N3    O32   1.298089 A    
C35   N9    1.479475 S    
N4    O33   1.301311 A    
N20   O66   1.301325 A    
C46   H22   1.114115 S    
O4    C2    1.286964 A    
C65   N19   1.437115 S    
C81   C82   1.420071 S    
C5    O11   1.277535 A    
C73   C74   1.410222 A    
C22   H11   1.107823 S    
C13   C17   1.397401 A    
C45   N12   1.473063 S    
C6    C57   1.479980 S    
C86   O18   1.285057 A    
C29   H13   1.107024 S    
O14   C87   1.273569 A    
C18   C19   1.200897 T    
C64   H28   1.083081 S    
C65   C70   1.419661 A    
O19   C87   1.264786 A    
C79   C80   1.389798 A    
C23   N3    1.475210 S    
C49   C55   1.471583 S    
O19   Cr6   1.919124 S    
C61   N17   1.446397 S    
C47   H24   1.114646 S    
C38   H7    1.095019 S    
Cr3   O13   1.992670 S    
C34   C35   1.613102 S    
O14   Cr4   2.051364 S    
C5    C56   1.424293 S    
C59   C60   1.395912 A    
O6    C3    1.269066 A    
N12   O50   1.301349 A    
C51   C54   1.470186 S    
C40   H20   1.101588 S    
C47   C51   1.559353 S    
C23   C27   1.568284 S    
C8    C9    1.405345 A    
C36   C42   1.201429 T    
C45   H26   1.103529 S    
C40   N11   1.473174 S    
C16   H2    1.084034 S    
O15   Cr4   1.926338 S    
C76   H35   1.083386 S    
C57   C62   1.407024 A    
H9    C77   1.083843 S    
C45   C49   1.574337 S    
C36   C87   1.423925 S    
Cr4   O26   1.970683 S    
C40   C41   1.547373 S    
N10   O46   1.301110 A    
N16   O57   1.301210 A    
C28   N4    1.475619 S    
C38   C39   1.546207 S    
N7    O40   1.301537 A    
C35   C39   1.598784 S    
C29   H14   1.114471 S    
O16   Cr5   2.036621 S    
C1    C44   1.425729 S    
C13   H15   1.079959 S    
C11   H19   1.084115 S    
O15   C85   1.272990 A    
N8    O42   1.301701 A    
C57   C58   1.415950 A    
N4    O34   1.301238 A    
C21   N2    1.489100 S    
N13   O52   1.300711 A    
C37   C43   1.470315 S    
O7    C6    1.270522 A    
C64   C70   1.410418 A    
C75   H34   1.084599 S    
O1    Cr1   2.043630 S    
C51   C52   1.575300 S    
O20   Cr4   2.041467 S    
C28   C29   1.543677 S    
O10   Cr2   1.921042 S    
C52   N15   1.474188 S    
O1    C3    1.269397 A    
C60   C61   1.413507 A    
C35   N8    1.484143 S    
N2    O30   1.302041 A    
O21   Cr4   1.934320 S    
C67   C68   1.425806 S    
C55   C56   1.200885 T    
N19   O63   1.301422 A    
C31   C32   1.203659 T    
C9    C10   1.413509 A    
N13   O51   1.301825 A    
C58   C59   1.396284 A    
O12   Cr3   1.920089 S    
C50   N16   1.474201 S    
C39   C40   1.569140 S    
C46   C49   1.576673 S    
Cr5   O26   1.992412 S    
C52   C53   1.570686 S    
C13   C14   1.404261 A    
N21   O68   1.301030 A    
C15   H37   1.083115 S    
C84   C90   1.464827 S    
C22   H3    1.114589 S    
C74   C75   1.388281 A    
O17   C86   1.286042 A    
O7    Cr1   2.050764 S    
C7    C8    1.405643 A    
C14   N1    1.437975 S    
C71   C72   1.416267 A    
Cr1   O13   1.970734 S    
N22   O70   1.301289 A    
O12   C6    1.279021 A    
O23   Cr5   1.918318 S    
C7    C12   1.403034 A    
N3    O31   1.301471 A    
C33   H6    1.106294 S    
N11   O47   1.301427 A    
C79   H36   1.083198 S    
O21   C88   1.277660 A    
C2    O5    1.281794 A    
C33   H16   1.113043 S    
C70   C88   1.479846 S    
C47   H23   1.113888 S    
N10   O45   1.300885 A    
N6    O38   1.302874 A    
N12   O49   1.301649 A    
C65   C66   1.404497 A    
N23   O72   1.300794 A    
C48   C89   1.424669 S    
O22   Cr5   2.042394 S    
N1    O27   1.301463 A    
C58   N18   1.437412 S    
Cr2   O13   1.995541 S    
C82   C83   1.194454 T    
N14   O54   1.301395 A    
O25   C90   1.275883 A    
C20   C86   1.479649 S    
C48   C54   1.200709 T    
C53   N14   1.475145 S    
N1    O28   1.301695 A    
C85   O16   1.273859 A    
C34   C37   1.572283 S    
C25   C31   1.478102 S    
C8    H1    1.082684 S    
N21   O67   1.300615 A    
C27   C28   1.585855 S    
C22   C23   1.560018 S    
N15   O56   1.300097 A    
O9    Cr2   2.035218 S    
O2    Cr1   1.934883 S    
O10   C5    1.281113 A    
C15   C16   1.389507 A    
C24   C30   1.207255 T    
C53   H8    1.116276 S    
N18   O62   1.301490 A    
N2    O29   1.297049 A    
Cr6   O26   1.995615 S    
O6    Cr3   1.916812 S    
C78   H33   1.083142 S    
C52   H27   1.115810 S    
C33   C37   1.554724 S    
O20   C90   1.268714 A    
O11   Cr3   2.031819 S    
C23   H12   1.111040 S    
C21   C25   1.593225 S    
C14   C20   1.418233 A    
C80   C81   1.395003 A    
C21   N5    1.483336 S    
H5    C38   1.110208 S    
C21   C26   1.651359 S    
C78   C84   1.405454 A    
C26   N6    1.478261 S    
C60   C69   1.429167 S    
C16   C17   1.391891 A    
C50   H21   1.111634 S    
N5    O36   1.301196 A    
O2    C1    1.269008 A    
C45   C50   1.575936 S    
C25   C29   1.550224 S    
N8    O41   1.301735 A    
N5    O35   1.301414 A    
C24   C85   1.435343 S    
C34   N7    1.466619 S    
O5    Cr3   2.036143 S    
C66   C67   1.397427 A    
C79   C84   1.405694 A    
O24   Cr6   2.034147 S    
N17   O59   1.301796 A    
C2    C7    1.477333 S    
C43   C44   1.201685 T    
N9    O44   1.299979 A    
C68   C69   1.198020 T    
C17   C18   1.431211 S    
C9    N22   1.443273 S    
C26   N23   1.481554 S    
N20   O65   1.301270 A    
C46   C47   1.557806 S    
O18   Cr6   2.031940 S    
O25   Cr6   1.914918 S    
C34   H17   1.109134 S    
C66   H31   1.083841 S    
O3    Cr2   2.040187 S    
C26   C27   1.615204 S    
C10   C19   1.434600 S    
C22   C25   1.548883 S    
C73   N21   1.436676 S    
N18   O61   1.301522 A    
C63   C64   1.386815 A    
N19   O64   1.301438 A    
N23   O71   1.302458 A    
C72   N20   1.436654 S    
C77   C81   1.396692 A    
C28   H4    1.115691 S    
C11   C12   1.392016 A    
C88   O22   1.277122 A    
C15   C20   1.410351 A    
C4    C71   1.473753 S    
C75   C76   1.379853 A    
N6    O37   1.294843 A    
C4    O9    1.278201 A    
N14   O53   1.300901 A    
C71   C76   1.407059 A    
C62   H30   1.082896 S    
N17   O60   1.300781 A    
C59   H32   1.084671 S    
C1    O3    1.275673 A    
O8    C4    1.275118 A    
C46   N13   1.475310 S    
O23   C89   1.280951 A    
O17   Cr5   1.924077 S    
