data_mof_unit_32654.cif
_audit_creation_date              2012-12-11T14:37:56-0500
_audit_creation_method            fapswitch 2.2
_symmetry_space_group_name_H-M    P1
_symmetry_Int_Tables_number       1
_space_group_crystal_system       triclinic
_cell_length_a                    14.501719
_cell_length_b                    15.817576
_cell_length_c                    6.952493
_cell_angle_alpha                 89.9999
_cell_angle_beta                  80.696445
_cell_angle_gamma                 89.999987
_cell_volume                      1573.79884869

loop_
_atom_site_label
_atom_site_type_symbol
_atom_type_description
_atom_site_fract_x
_atom_site_fract_y
_atom_site_fract_z
_atom_type_partial_charge
O1    O     O_R   0.337080 0.165770 0.524980 -0.539931
O2    O     O_R   0.662920 0.834230 0.475020 -0.539089
O3    O     O_R   0.662920 0.665770 0.475020 -0.539085
O4    O     O_R   0.337080 0.334230 0.524980 -0.539927
O5    O     O_R   0.348340 0.341430 0.191390 -0.527744
O6    O     O_R   0.651660 0.658570 0.808610 -0.533296
O7    O     O_R   0.651660 0.841430 0.808610 -0.533287
O8    O     O_R   0.348340 0.158570 0.191390 -0.527747
O9    O     O_R   0.165780 0.339950 0.082750 -0.544060
O10   O     O_R   0.834220 0.660050 0.917250 -0.544609
O11   O     O_R   0.834220 0.839950 0.917250 -0.544606
O12   O     O_R   0.165780 0.160050 0.082750 -0.544060
C1    C     C_R   0.370075 0.364631 0.355850 0.669624
C2    C     C_R   0.629866 0.635405 0.644164 0.683363
C3    C     C_R   0.629867 0.864594 0.644163 0.683361
C4    C     C_R   0.370075 0.135369 0.355851 0.669648
O13   O     O_3   0.191540 0.250000 0.407620 -0.383053
O14   O     O_3   0.808460 0.750000 0.592380 -0.381471
V1    V     V_3+5 0.262540 0.250000 0.108780 1.485884
V2    V     V_3+5 0.737460 0.750000 0.891220 1.467991
O15   O     O_R   0.154530 0.164290 0.756910 -0.544551
O16   O     O_R   0.845470 0.835710 0.243090 -0.542874
O17   O     O_R   0.845470 0.664290 0.243090 -0.542872
O18   O     O_R   0.154530 0.335710 0.756910 -0.544550
C5    C     C_R   0.132847 0.132977 0.931880 0.720113
C6    C     C_R   0.867269 0.866945 0.068069 0.714148
C7    C     C_R   0.867270 0.633055 0.068069 0.714139
C8    C     C_R   0.132847 0.367023 0.931880 0.720127
H1    H     H_    0.575908 0.429974 0.532507 0.149910
H2    H     H_    0.442169 0.577016 0.432744 0.140877
H3    H     H_    0.442139 0.923000 0.432790 0.140885
H4    H     H_    0.575899 0.070023 0.532565 0.149905
V3    V     V_3+5 0.240320 0.250000 0.616280 1.406643
V4    V     V_3+5 0.759680 0.750000 0.383720 1.403551
O19   O     O_3   0.311330 0.250000 0.867310 -0.364022
O20   O     O_3   0.688670 0.750000 0.132690 -0.366634
C9    C     C_3   0.071046 0.516845 0.088770 0.371571
C10   C     C_3   0.929257 0.483321 0.911172 0.364813
C11   C     C_3   0.929258 0.016678 0.911166 0.364824
C12   C     C_3   0.071043 0.983156 0.088776 0.371568
C13   C     C_3   0.040168 0.573821 0.930873 -0.201205
C14   C     C_3   0.960114 0.426360 0.069083 -0.205502
C15   C     C_3   0.960112 0.073641 0.069077 -0.205499
C16   C     C_3   0.040169 0.926179 0.930879 -0.201212
H5    H     H_    0.073502 0.634291 0.876507 0.110517
H6    H     H_    0.926776 0.365889 0.123427 0.110116
H7    H     H_    0.926773 0.134112 0.123416 0.110116
H8    H     H_    0.073503 0.865709 0.876518 0.110517
C17   C     C_3   0.937878 0.562662 0.034385 -0.104133
C18   C     C_3   0.062385 0.437508 0.965555 -0.103340
C19   C     C_3   0.062385 0.062493 0.965556 -0.103339
C20   C     C_3   0.937877 0.937338 0.034385 -0.104133
C21   C     C_3   0.969811 0.506733 0.194427 -0.225183
C22   C     C_3   0.030482 0.493445 0.805534 -0.222436
C23   C     C_3   0.030485 0.006554 0.805534 -0.222444
C24   C     C_3   0.969808 0.993269 0.194427 -0.225185
C25   C     C_2   0.539350 0.525402 0.215456 0.093315
C26   C     C_2   0.465924 0.469371 0.738547 0.098857
C27   C     C_2   0.465917 0.030627 0.738609 0.098848
C28   C     C_2   0.539342 0.974595 0.215514 0.093317
H9    H     H_    0.946643 0.512993 0.353954 0.124366
H10   H     H_    0.053668 0.487188 0.646011 0.123427
H11   H     H_    0.053673 0.012810 0.646012 0.123429
H12   H     H_    0.946638 0.987010 0.353953 0.124366
C29   C     C_2   0.495276 0.528708 0.400592 -0.306051
C30   C     C_2   0.516089 0.471739 0.558542 -0.316763
C31   C     C_2   0.516078 0.028261 0.558600 -0.316754
C32   C     C_2   0.495259 0.971297 0.400646 -0.306070
C33   C     C_2   0.381298 0.519227 0.808879 0.369271
H13   H     H_    0.348818 0.559383 0.712899 0.022296
O21   O     O_2   0.346211 0.514847 0.980124 -0.523972
C34   C     C_2   0.613471 0.465323 0.135684 0.375521
H14   H     H_    0.639407 0.417699 0.225154 0.024115
O22   O     O_2   0.646405 0.468793 0.963132 -0.530385
C35   C     C_2   0.613483 0.034657 0.135750 0.375511
H15   H     H_    0.639436 0.082271 0.225224 0.024115
O23   O     O_2   0.646417 0.031184 0.963198 -0.530374
C36   C     C_2   0.381290 0.980774 0.808944 0.369288
H16   H     H_    0.348801 0.940626 0.712963 0.022297
O24   O     O_2   0.346211 0.985148 0.980195 -0.523978
N1    N     N_2   0.149374 0.534000 0.188115 -0.471096
H17   H     H_    0.163193 0.484990 0.276923 0.258241
C37   C     C_3   0.146733 0.615231 0.284101 -0.533003
H18   H     H_    0.211124 0.623553 0.349476 0.201630
H19   H     H_    0.085114 0.619182 0.401762 0.172283
H20   H     H_    0.143687 0.667003 0.177489 0.194684
N2    N     N_2   0.851025 0.466083 0.811652 -0.475387
H21   H     H_    0.837194 0.515088 0.722840 0.260079
C38   C     C_3   0.853910 0.384872 0.715481 -0.523245
H22   H     H_    0.789679 0.376502 0.649584 0.207961
H23   H     H_    0.856833 0.333078 0.822095 0.192719
H24   H     H_    0.915683 0.380994 0.598171 0.169577
N3    N     N_2   0.851028 0.033914 0.811639 -0.475379
H25   H     H_    0.837200 0.984909 0.722827 0.260075
C39   C     C_3   0.853913 0.115125 0.715465 -0.523258
H26   H     H_    0.789683 0.123494 0.649563 0.207948
H27   H     H_    0.915688 0.119004 0.598160 0.169580
H28   H     H_    0.856833 0.166919 0.822079 0.192723
N4    N     N_2   0.149369 0.966003 0.188128 -0.471098
H29   H     H_    0.163186 0.015013 0.276938 0.258242
C40   C     C_3   0.146729 0.884772 0.284116 -0.532998
H30   H     H_    0.211117 0.876452 0.349498 0.201631
H31   H     H_    0.143686 0.833000 0.177503 0.194684
H32   H     H_    0.085107 0.880820 0.401771 0.172283

loop_
_geom_bond_atom_site_label_1
_geom_bond_atom_site_label_2
_ccdc_geom_bond_type
O10   C7    A    
C16   H8    S    
N2    H21   S    
N3    H25   S    
C39   H26   S    
C12   N4    S    
N1    H17   S    
C39   H28   S    
O1    V3    S    
C10   C17   S    
C19   C23   S    
C18   C22   S    
C10   C14   S    
C14   C21   S    
C36   O24   D    
O15   V3    S    
C14   H6    S    
O4    C1    A    
C33   O21   D    
C11   N3    S    
C27   C31   D    
C21   H9    S    
C26   C30   D    
C11   C23   S    
N4    H29   S    
O10   V2    S    
C12   C24   S    
C23   H11   S    
C24   H12   S    
O17   C7    A    
C38   H23   S    
O5    C1    A    
C9    C21   S    
C16   C20   S    
O8    C4    A    
O7    C3    A    
C11   C20   S    
N3    C39   S    
C9    N1    S    
O13   V3    S    
C27   C36   S    
C13   C17   S    
N1    C37   S    
O9    V1    S    
H3    C32   S    
O16   V4    S    
O11   V2    S    
O8    V1    S    
C31   C32   S    
C40   H30   S    
C34   O22   D    
C8    C18   S    
C36   H16   S    
O13   V1    S    
C11   C15   S    
C22   H10   S    
O11   C6    A    
C35   H15   S    
C5    C19   S    
C6    C20   S    
O6    C2    A    
O14   V4    S    
C37   H18   S    
C10   C22   S    
O17   V4    S    
O1    C4    A    
C38   H24   S    
O2    C3    A    
C35   O23   D    
O3    C2    A    
C14   C18   S    
H4    C31   S    
N4    C40   S    
O7    V2    S    
C40   H32   S    
N2    C38   S    
O15   C5    A    
O4    V3    S    
C37   H19   S    
O2    V4    S    
O18   C8    A    
C25   C29   D    
C34   H14   S    
C39   H27   S    
C26   C33   S    
O5    V1    S    
C12   C19   S    
O6    V2    S    
C10   N2    S    
C28   C35   S    
O18   V3    S    
O3    V4    S    
O12   C5    A    
V1    O19   S    
C9    C18   S    
C16   C23   S    
C15   C19   S    
C17   C21   S    
O12   V1    S    
V3    O19   S    
V4    O20   S    
O14   V2    S    
C25   C34   S    
C9    C13   S    
C33   H13   S    
C13   C22   S    
H2    C29   S    
H1    C30   S    
V2    O20   S    
C7    C17   S    
C15   C24   S    
C12   C16   S    
C37   H20   S    
C28   C32   D    
C40   H31   S    
C29   C30   S    
O16   C6    A    
C13   H5    S    
C38   H22   S    
C15   H7    S    
C20   C24   S    
O9    C8    A    
