data_mof_unit_32595.cif
_audit_creation_date              2012-12-10T17:02:11-0500
_audit_creation_method            fapswitch 2.2
_symmetry_space_group_name_H-M    P1
_symmetry_Int_Tables_number       1
_space_group_crystal_system       triclinic
_cell_length_a                    10.692336
_cell_length_b                    10.656678
_cell_length_c                    10.037858
_cell_angle_alpha                 90.861224
_cell_angle_beta                  88.003782
_cell_angle_gamma                 90.806798
_cell_volume                      1142.83310377

loop_
_atom_site_label
_atom_site_type_symbol
_atom_type_description
_atom_site_fract_x
_atom_site_fract_y
_atom_site_fract_z
_atom_type_partial_charge
C1    C     C_R   0.499960 0.262420 0.498912 0.984615
C2    C     C_2   0.498855 0.129692 0.495578 -0.293731
C3    C     C_2   0.571613 0.573685 0.924153 0.416901
C4    C     C_R   0.260567 0.506340 0.503274 0.939230
C5    C     C_2   0.577648 0.566689 0.073523 -0.167148
C6    C     C_R   0.484370 0.735939 0.501159 0.942187
C7    C     C_R   0.739652 0.505425 0.497526 1.024525
C8    C     C_R   0.120517 0.722464 0.622851 0.095215
C9    C     C_R   0.058855 0.836997 0.634232 -0.192372
C10   C     C_R   0.941735 0.849856 0.583265 -0.144443
C11   C     C_R   0.878296 0.745451 0.531797 0.141443
C12   C     C_R   0.063566 0.618514 0.555026 0.010733
C13   C     C_R   0.936169 0.625788 0.525745 0.020892
C14   C     C_R   0.127619 0.508335 0.512555 -0.139234
C15   C     C_R   0.065066 0.400769 0.466415 0.019067
C16   C     C_R   0.936028 0.401400 0.461022 0.310694
C17   C     C_R   0.872682 0.512968 0.490575 -0.202187
C18   C     C_2   0.430600 0.932461 0.397228 0.151964
C19   C     C_2   0.459456 0.867368 0.505150 -0.370055
C20   C     C_2   0.430600 0.068640 0.405685 -0.219991
Cl1   Cl    Cl    0.670003 0.685783 0.845936 -0.602035
Cl2   Cl    Cl    0.854356 0.261715 0.416564 -0.664429
H1    H     H_    0.556065 0.084045 0.567011 0.153174
H2    H     H_    0.103679 0.216604 0.490899 0.219408
H3    H     H_    0.285540 0.789785 0.688379 0.175199
H4    H     H_    0.202242 0.703415 0.798439 0.197287
H5    H     H_    0.770361 0.822789 0.396017 0.193981
H6    H     H_    0.706904 0.815261 0.551251 0.206489
H7    H     H_    0.464091 0.905018 0.199686 0.203141
H8    H     H_    0.311367 0.899141 0.248573 0.176675
H9    H     H_    0.450018 0.431514 0.898547 0.120915
H10   H     H_    0.649027 0.622590 0.121902 0.198799
H11   H     H_    0.428793 0.454447 0.103903 0.156926
H12   H     H_    0.102036 0.916602 0.683902 0.148238
H13   H     H_    0.897468 0.940723 0.588437 0.169274
H14   H     H_    0.464363 0.911630 0.602866 0.137393
H15   H     H_    0.378494 0.119464 0.333079 0.168297
H16   H     H_    0.115262 0.265921 0.330747 0.226279
N1    N     N_2   0.501340 0.501330 0.852150 -0.214037
N2    N     N_2   0.501380 0.501360 0.147810 -0.210405
N3    N     N_3   0.134168 0.290069 0.429429 -0.455116
N4    N     N_3   0.230507 0.708600 0.697886 -0.415513
N5    N     N_3   0.758377 0.764807 0.478734 -0.448620
N6    N     N_3   0.401039 0.871761 0.273340 -0.406497
O1    O     O_R   0.499980 0.319060 0.613040 -0.623383
O2    O     O_R   0.500020 0.319100 0.386900 -0.592436
O3    O     O_R   0.316750 0.499980 0.613090 -0.609014
O4    O     O_R   0.316790 0.500020 0.386950 -0.619205
O5    O     O_R   0.499980 0.680900 0.613100 -0.579965
O6    O     O_R   0.500020 0.680940 0.386960 -0.584033
O7    O     O_R   0.683210 0.499980 0.613050 -0.561627
O8    O     O_R   0.683250 0.500020 0.386910 -0.590635
Zn1   Zn    Zn3+2 0.499970 0.499970 0.650990 1.008237
Zn2   Zn    Zn3+2 0.500030 0.500030 0.349010 0.988931

loop_
_geom_bond_atom_site_label_1
_geom_bond_atom_site_label_2
_ccdc_geom_bond_type
H3    N4    S    
O7    Zn1   S    
C11   N5    S    
C10   H13   S    
C6    C19   S    
C18   N6    S    
C8    C12   A    
C9    C10   A    
H6    N5    S    
C18   C20   S    
C13   C17   A    
O3    Zn1   S    
C5    H10   S    
C1    O1    A    
O2    Zn2   S    
C12   C14   A    
O1    Zn1   S    
H7    N6    S    
N1    Zn1   S    
C6    O6    A    
O4    Zn2   S    
C20   H15   S    
C11   C13   A    
H8    N6    S    
O6    Zn2   S    
H2    N3    S    
O5    Zn1   S    
C8    N4    S    
C7    O8    A    
C1    C2    S    
N2    Zn2   S    
C19   H14   S    
C6    O5    A    
C4    C14   S    
C9    H12   S    
C1    O2    A    
C3    Cl1   S    
H11   N2    S    
C10   C11   A    
C15   N3    S    
C7    O7    A    
C15   C16   A    
H5    N5    S    
C12   C13   A    
H4    N4    S    
H16   N3    S    
C18   C19   D    
C4    O4    A    
C5    N2    D    
C2    H1    S    
C3    N1    D    
C14   C15   A    
C8    C9    A    
C16   Cl2   S    
C7    C17   S    
C2    C20   D    
H9    N1    S    
C16   C17   A    
C3    C5    S    
C4    O3    A    
O8    Zn2   S    
