data_mof_unit_20064.cif
_audit_creation_date              2013-03-05T16:11:21-0500
_audit_creation_method            fapswitch 2.2
_symmetry_space_group_name_H-M    P1
_symmetry_Int_Tables_number       1
_space_group_crystal_system       triclinic
_cell_length_a                    10.882091
_cell_length_b                    9.970136
_cell_length_c                    10.826267
_cell_angle_alpha                 90.064456
_cell_angle_beta                  93.950105
_cell_angle_gamma                 89.999663
_cell_volume                      1171.81475976

loop_
_atom_site_label
_atom_site_type_symbol
_atom_site_description
_atom_site_fract_x
_atom_site_fract_y
_atom_site_fract_z
_atom_type_partial_charge
O1    O     O_R   0.316750 0.614620 0.499990 -0.617389
O2    O     O_R   0.316750 0.385380 0.499990 -0.631870
C1    C     C_R   0.259891 0.500149 0.499977 0.924117
O3    O     O_R   0.499970 0.614670 0.314790 -0.559084
O4    O     O_R   0.499970 0.385330 0.314790 -0.652929
C2    C     C_R   0.502157 0.499900 0.258455 0.963864
Zn1   Zn    Zn3+2 0.499980 0.653120 0.500000 1.130424
Zn2   Zn    Zn3+2 0.499980 0.346880 0.500000 1.078998
O5    O     O_R   0.683220 0.614710 0.500010 -0.553348
O6    O     O_R   0.683220 0.385290 0.500010 -0.563326
O7    O     O_R   0.500010 0.614660 0.685200 -0.519406
O8    O     O_R   0.500010 0.385340 0.685200 -0.609554
C3    C     C_R   0.738709 0.499764 0.490295 1.023696
C4    C     C_R   0.503288 0.500702 0.742544 1.085179
C5    C     C_3   0.380388 0.550879 0.064095 0.098624
C6    C     C_3   0.522957 0.353365 0.072145 0.096160
H1    H     H_    0.307041 0.486186 0.099506 0.137213
H2    H     H_    0.432993 0.301408 0.079505 0.167136
C7    C     C_3   0.375933 0.529587 0.921878 0.085935
C8    C     C_3   0.545786 0.360444 0.933612 0.177636
H3    H     H_    0.322716 0.435244 0.901248 0.105179
H4    H     H_    0.482429 0.285201 0.887559 0.198292
C9    C     C_3   0.616137 0.595462 0.084487 0.600525
C10   C     C_3   0.507745 0.500907 0.122832 -0.233188
C11   C     C_3   0.510570 0.504480 0.880267 -0.356615
C12   C     C_3   0.611032 0.612200 0.937726 0.344857
C13   C     C_R   0.062271 0.377855 0.502381 0.199936
C14   C     C_R   0.061075 0.621201 0.468444 0.206242
C15   C     C_R   0.935317 0.375919 0.481868 0.214177
C16   C     C_R   0.933498 0.620965 0.460360 0.215413
C17   C     C_R   0.870107 0.498712 0.473758 -0.345691
C18   C     C_R   0.126239 0.500490 0.494242 -0.344436
C19   C     C_R   0.566476 0.072425 0.588769 0.198642
C20   C     C_R   0.578670 0.931064 0.580547 0.225250
N1    N     N_R   0.499970 0.857200 0.499970 -0.246788
N2    N     N_R   0.499970 0.142800 0.499970 -0.251522
C21   C     C_R   0.428665 0.928920 0.413224 0.488397
C22   C     C_R   0.431209 0.070956 0.411179 0.498788
O9    O     O_3   0.351001 0.682387 0.099732 -0.612015
H5    H     H_    0.394270 0.746887 0.049017 0.445875
O10   O     O_3   0.609298 0.268915 0.137349 -0.592649
H6    H     H_    0.673046 0.323075 0.183146 0.412853
O11   O     O_3   0.355400 0.866555 0.322199 -0.582898
H7    H     H_    0.349233 0.771555 0.344008 0.393223
O12   O     O_3   0.359414 0.133400 0.318840 -0.633131
H8    H     H_    0.347833 0.227102 0.343335 0.373047
O13   O     O_3   0.310355 0.631098 0.855977 -0.625171
H9    H     H_    0.223052 0.623875 0.876574 0.392290
O14   O     O_3   0.665744 0.319772 0.909818 -0.551746
H10   H     H_    0.725852 0.353858 0.975025 0.416573
O15   O     O_3   0.603330 0.722144 0.141836 -0.673973
H11   H     H_    0.679135 0.775509 0.134524 0.408777
O16   O     O_3   0.728100 0.535117 0.129863 -0.810763
H12   H     H_    0.791629 0.603807 0.152037 0.403036
N3    N     N_R   0.581181 0.755047 0.906050 0.234422
O17   O     O_R   0.478308 0.793568 0.849439 -0.273568
O18   O     O_R   0.664681 0.847164 0.928433 -0.232096
N4    N     N_R   0.735728 0.586525 0.892830 0.231560
O19   O     O_R   0.750743 0.518149 0.792430 -0.330910
O20   O     O_R   0.830505 0.653934 0.939560 -0.278567
N5    N     N_R   0.125016 0.253650 0.530299 0.259817
O21   O     O_R   0.170665 0.230097 0.642444 -0.309414
O22   O     O_R   0.127321 0.159907 0.446758 -0.250061
N6    N     N_R   0.122474 0.744719 0.443858 0.244724
O23   O     O_R   0.165213 0.818924 0.536100 -0.255086
O24   O     O_R   0.107056 0.797662 0.334055 -0.251278
N7    N     N_R   0.874400 0.248369 0.466076 0.266875
O25   O     O_R   0.894409 0.153769 0.547570 -0.194582
O26   O     O_R   0.815478 0.219596 0.360783 -0.316693
N8    N     N_R   0.870225 0.745738 0.434313 0.263013
O27   O     O_R   0.904918 0.854435 0.493225 -0.194948
O28   O     O_R   0.794321 0.756330 0.337016 -0.361738
N9    N     N_R   0.618102 0.139033 0.696630 0.272622
O29   O     O_R   0.707224 0.224157 0.687667 -0.220194
O30   O     O_R   0.599627 0.088039 0.804315 -0.251115
N10   N     N_R   0.684896 0.872996 0.647642 0.279900
O31   O     O_R   0.686220 0.750891 0.685408 -0.282479
O32   O     O_R   0.781386 0.945794 0.678740 -0.193068

loop_
_geom_bond_atom_site_label_1
_geom_bond_atom_site_label_2
_geom_bond_distance
_ccdc_geom_bond_type
N3    O17   1.297056 A    
C13   C15   1.384208 A    
O10   H6    0.985220 S    
C12   N3    1.495736 S    
O16   H12   0.990639 S    
C5    C7    1.551456 S    
C21   C22   1.416615 A    
C7    H3    1.118807 S    
N10   O32   1.301311 A    
Zn2   N2    2.034705 S    
O4    C2    1.296500 A    
O7    C4    1.294652 A    
C7    O13   1.405013 S    
C8    C11   1.585575 S    
N4    O20   1.303343 A    
C19   N2    1.358664 A    
Zn1   O5    2.030465 S    
C20   N1    1.390119 A    
N9    O29   1.297479 A    
C9    C12   1.594960 S    
N5    O22   1.301303 A    
O5    C3    1.302890 A    
C22   O12   1.375190 S    
C13   N5    1.436472 S    
C15   N7    1.438677 S    
C9    C10   1.587675 S    
N8    O27   1.299631 A    
C6    C8    1.538721 S    
C6    C10   1.582125 S    
N9    O30   1.300644 A    
C1    C18   1.451460 S    
O3    Zn1   2.041019 S    
C16   N8    1.440554 S    
C9    O16   1.416328 S    
O15   H11   0.989412 S    
C14   C18   1.415183 A    
N10   O31   1.284434 A    
O3    C2    1.297049 A    
O9    H5    0.986471 S    
N4    O19   1.302192 A    
O12   H8    0.981335 S    
N7    O25   1.300305 A    
O1    C1    1.298226 A    
N6    O24   1.301479 A    
C21   O11   1.372505 S    
Zn1   O7    2.041764 S    
O11   H7    0.979821 S    
C8    O14   1.407457 S    
C9    O15   1.417851 S    
O13   H9    0.993325 S    
Zn2   O8    2.040916 S    
C2    C10   1.473768 S    
C19   C20   1.418884 A    
C12   N4    1.494558 S    
C5    O9    1.409286 S    
C14   N6    1.434952 S    
C19   N9    1.424115 S    
C5    C10   1.566087 S    
C8    H4    1.112880 S    
N3    O18   1.302704 A    
C5    H1    1.114805 S    
N1    C21   1.377132 A    
C13   C18   1.412796 A    
O1    Zn1   2.030532 S    
Zn1   N1    2.034706 S    
C3    C17   1.453269 S    
Zn2   O6    2.030469 S    
O2    Zn2   2.030527 S    
O8    C4    1.305730 A    
O6    C3    1.298972 A    
O4    Zn2   2.041866 S    
N6    O23   1.302033 A    
N2    C22   1.377094 A    
O2    C1    1.300827 A    
C11   C12   1.624919 S    
C15   C17   1.414825 A    
C16   C17   1.413074 A    
C14   C16   1.385033 A    
C4    C11   1.488104 S    
N5    O21   1.301359 A    
C7    C11   1.582057 S    
C6    H2    1.115335 S    
O14   H10   0.988712 S    
N8    O28   1.297451 A    
N7    O26   1.300546 A    
C6    O10   1.414200 S    
C20   N10   1.443714 S    
