data_mof_unit_61483.cif
_audit_creation_date              2012-12-10T18:51:02-0500
_audit_creation_method            fapswitch 2.2
_symmetry_space_group_name_H-M    P1
_symmetry_Int_Tables_number       1
_space_group_crystal_system       triclinic
_cell_length_a                    37.152259
_cell_length_b                    30.216553
_cell_length_c                    21.791723
_cell_angle_alpha                 89.996
_cell_angle_beta                  125.587135
_cell_angle_gamma                 90.014509
_cell_volume                      19894.6299066

loop_
_atom_site_label
_atom_site_type_symbol
_atom_type_description
_atom_site_fract_x
_atom_site_fract_y
_atom_site_fract_z
_atom_type_partial_charge
C1    C     C_R   0.413800 0.499994 0.913732 0.853764
C2    C     C_R   0.586163 0.500004 0.086199 0.852674
C3    C     C_R   0.913830 0.999994 0.913773 0.852739
C4    C     C_R   0.086121 0.000005 0.086096 0.851776
C5    C     C_2   0.502063 0.503146 0.817151 -0.035541
C6    C     C_2   0.499094 0.502937 0.183870 -0.033182
C7    C     C_2   0.000275 0.002801 0.815626 -0.030498
C8    C     C_2   0.997956 0.003107 0.182864 -0.035355
C9    C     C_R   0.297075 0.471455 0.836472 -0.169743
C10   C     C_R   0.702753 0.475070 0.159031 -0.168099
C11   C     C_R   0.797228 0.974399 0.840197 -0.168366
C12   C     C_R   0.202577 0.978742 0.155268 -0.166441
C13   C     C_R   0.342977 0.471021 0.881776 -0.193817
C14   C     C_R   0.656851 0.474534 0.113771 -0.193880
C15   C     C_R   0.843131 0.973909 0.885441 -0.193881
C16   C     C_R   0.156686 0.978169 0.109942 -0.194492
C17   C     C_R   0.366040 0.499988 0.865885 -0.011852
C18   C     C_R   0.633852 0.500017 0.133931 -0.007718
C19   C     C_R   0.866127 0.999987 0.866052 -0.008734
C20   C     C_R   0.133730 0.000009 0.133745 -0.003478
C21   C     C_R   0.343365 0.528989 0.804223 -0.189712
C22   C     C_R   0.656493 0.525544 0.199740 -0.190508
C23   C     C_R   0.843464 0.026107 0.801047 -0.190329
C24   C     C_R   0.156306 0.021806 0.203150 -0.191115
C25   C     C_R   0.297470 0.528651 0.757686 -0.172276
C26   C     C_R   0.702389 0.525102 0.246273 -0.170888
C27   C     C_R   0.797567 0.025721 0.754590 -0.171115
C28   C     C_R   0.202196 0.021136 0.249752 -0.169519
C29   C     C_R   0.273972 0.500089 0.773770 0.111676
C30   C     C_R   0.725899 0.500114 0.225977 0.110346
C31   C     C_R   0.774073 0.000090 0.774086 0.110186
C32   C     C_R   0.225757 0.999907 0.225926 0.109611
C33   C     C_R   0.202218 0.540227 0.694481 -0.164393
C34   C     C_R   0.797697 0.539038 0.312465 -0.164757
C35   C     C_R   0.702307 0.039295 0.689072 -0.164658
C36   C     C_R   0.297607 0.036782 0.319969 -0.165411
C37   C     C_R   0.156304 0.540095 0.647947 -0.195212
C38   C     C_R   0.843611 0.538796 0.359220 -0.194298
C39   C     C_R   0.656393 0.039082 0.642329 -0.194572
C40   C     C_R   0.343510 0.036454 0.366802 -0.193792
C41   C     C_R   0.133579 0.500006 0.633111 0.003785
C42   C     C_R   0.866373 0.499971 0.366820 0.000985
C43   C     C_R   0.633616 0.999973 0.633168 0.001530
C44   C     C_R   0.366324 0.999888 0.366787 -0.003442
C45   C     C_R   0.500706 0.500348 0.881694 0.921064
C46   C     C_R   0.499530 0.500328 0.118491 0.921423
C47   C     C_R   0.000372 0.000320 0.881452 0.920386
C48   C     C_R   0.999261 0.000344 0.118269 0.919613
C49   C     C_R   0.156226 0.459917 0.663485 -0.196099
C50   C     C_R   0.843724 0.461170 0.328939 -0.196153
C51   C     C_R   0.656240 0.960877 0.669511 -0.196176
C52   C     C_R   0.343687 0.963306 0.321106 -0.195734
C53   C     C_R   0.202135 0.459829 0.708839 -0.164446
C54   C     C_R   0.797814 0.461009 0.283630 -0.164923
C55   C     C_R   0.702149 0.960728 0.714896 -0.164803
C56   C     C_R   0.297789 0.962949 0.275946 -0.165906
C57   C     C_R   0.225490 0.500055 0.725110 0.107694
C58   C     C_R   0.774417 0.500060 0.274603 0.107761
C59   C     C_R   0.725563 0.000047 0.725459 0.107598
C60   C     C_R   0.274320 0.999865 0.274569 0.108389
C61   C     C_R   0.499995 0.413682 0.499996 0.878599
C62   C     C_R   0.999995 0.913681 0.499994 0.878403
C63   C     C_R   0.499738 0.496161 0.618268 0.934987
C64   C     C_R   0.500243 0.496201 0.381716 0.934805
C65   C     C_R   0.999776 0.996174 0.618285 0.933901
C66   C     C_R   0.000273 0.996110 0.381750 0.934560
C67   C     C_R   0.500005 0.586079 0.499999 0.865582
C68   C     C_R   0.000005 0.086078 0.499998 0.865696
C69   C     C_R   0.000002 0.413815 0.500005 0.853404
C70   C     C_R   0.500004 0.913820 0.500007 0.853936
C71   C     C_R   0.086094 0.500024 0.585952 0.856556
C72   C     C_R   0.913890 0.500009 0.414032 0.856614
C73   C     C_R   0.586106 0.000017 0.585965 0.856655
C74   C     C_R   0.413873 0.999980 0.414019 0.857224
C75   C     C_R   0.000003 0.586293 0.500002 0.854988
C76   C     C_R   0.500005 0.086295 0.500004 0.856030
C77   C     C_R   0.464347 0.296787 0.437712 0.098158
C78   C     C_R   0.535625 0.296810 0.562308 0.098387
C79   C     C_R   0.964419 0.796786 0.437549 0.098272
C80   C     C_R   0.035541 0.796803 0.562437 0.098392
C81   C     C_R   0.000033 0.274110 0.500032 0.109845
C82   C     C_R   0.500041 0.774124 0.500050 0.109733
C83   C     C_R   0.464476 0.342728 0.438438 -0.176992
C84   C     C_R   0.535501 0.342749 0.561550 -0.177236
C85   C     C_R   0.964547 0.842728 0.438282 -0.177287
C86   C     C_R   0.035424 0.842745 0.561681 -0.177115
C87   C     C_R   0.499989 0.365696 0.499989 -0.120886
C88   C     C_R   0.999988 0.865695 0.499980 -0.120698
C89   C     C_R   0.499984 0.273723 0.500018 0.001696
C90   C     C_R   0.999976 0.773718 0.499999 0.001737
C91   C     C_R   0.024535 0.703006 0.479289 -0.185186
C92   C     C_R   0.975450 0.702962 0.520729 -0.185276
C93   C     C_R   0.524208 0.203016 0.478805 -0.185116
C94   C     C_R   0.475798 0.202969 0.521256 -0.185275
C95   C     C_R   0.024243 0.657098 0.478599 -0.195394
C96   C     C_R   0.975753 0.657054 0.521404 -0.195034
C97   C     C_R   0.523906 0.157110 0.478106 -0.195356
C98   C     C_R   0.476106 0.157063 0.521929 -0.194541
C99   C     C_R   0.999997 0.634129 0.499993 -0.016334
C100  C     C_R   0.500003 0.134136 0.500003 -0.016613
C101  C     C_R   0.999986 0.725752 0.500002 0.107429
C102  C     C_R   0.499996 0.225759 0.500022 0.107010
C103  C     C_R   0.487102 0.702239 0.540197 -0.165307
C104  C     C_R   0.512980 0.702256 0.459905 -0.165343
C105  C     C_R   0.987713 0.202236 0.541092 -0.165236
C106  C     C_R   0.012355 0.202254 0.458978 -0.165272
C107  C     C_R   0.486539 0.656333 0.539287 -0.193611
C108  C     C_R   0.513522 0.656347 0.460780 -0.193652
C109  C     C_R   0.987169 0.156328 0.540235 -0.193647
C110  C     C_R   0.012884 0.156343 0.459815 -0.193757
C111  C     C_R   0.500022 0.633619 0.500020 -0.002598
C112  C     C_R   0.000021 0.133616 0.500017 -0.002257
C113  C     C_R   0.032765 0.297462 0.500117 -0.167979
C114  C     C_R   0.967295 0.297429 0.499952 -0.167996
C115  C     C_R   0.533058 0.797484 0.500971 -0.167884
C116  C     C_R   0.467016 0.797448 0.499131 -0.167939
C117  C     C_R   0.500042 0.725593 0.500053 0.107227
C118  C     C_R   0.000034 0.225585 0.500033 0.107020
C119  C     C_R   0.000016 0.366153 0.500029 -0.009777
C120  C     C_R   0.500020 0.866167 0.500035 -0.009952
C121  C     C_R   0.032336 0.343367 0.499038 -0.195482
C122  C     C_R   0.967709 0.343334 0.501028 -0.195314
C123  C     C_R   0.532627 0.843388 0.499868 -0.195693
C124  C     C_R   0.467430 0.843352 0.500220 -0.195037
C125  C     C_2   0.533748 0.479916 0.750618 -0.169769
C126  C     C_2   0.465896 0.481411 0.248922 -0.167782
C127  C     C_2   0.034505 0.981775 0.751554 -0.163936
C128  C     C_2   0.966235 0.979392 0.249386 -0.167869
C129  C     C_2   0.497831 0.484730 0.680459 -0.350701
C130  C     C_2   0.501978 0.484628 0.319429 -0.349855
C131  C     C_2   0.998147 0.984363 0.680583 -0.346612
C132  C     C_2   0.002241 0.984532 0.319666 -0.349584
C133  C     C_2   0.528431 0.475618 0.811673 -0.208212
C134  C     C_2   0.471035 0.476965 0.187725 -0.205918
C135  C     C_2   0.029346 0.977182 0.812683 -0.205182
C136  C     C_2   0.971640 0.975160 0.188418 -0.206960
H1    H     H_    0.566738 0.480861 0.763829 0.177228
H2    H     H_    0.432840 0.483722 0.235519 0.176839
H3    H     H_    0.067813 0.984764 0.765393 0.174295
H4    H     H_    0.933097 0.980037 0.235997 0.176003
H5    H     H_    0.138503 0.571142 0.624271 0.124564
H6    H     H_    0.861388 0.568920 0.388436 0.125726
H7    H     H_    0.638628 0.069416 0.614266 0.125462
H8    H     H_    0.361245 0.064956 0.401827 0.128416
H9    H     H_    0.138370 0.428856 0.651481 0.125139
H10   H     H_    0.861584 0.431027 0.335361 0.127910
H11   H     H_    0.638363 0.930529 0.661909 0.127217
H12   H     H_    0.361552 0.934837 0.321538 0.131872
H13   H     H_    0.219266 0.428321 0.730418 0.129264
H14   H     H_    0.780741 0.430277 0.256451 0.129291
H15   H     H_    0.719203 0.929805 0.740906 0.129354
H16   H     H_    0.280822 0.933638 0.242890 0.128959
H17   H     H_    0.058946 0.280357 0.501869 0.129085
H18   H     H_    0.941124 0.280297 0.498216 0.129274
H19   H     H_    0.559463 0.780394 0.503389 0.129140
H20   H     H_    0.440621 0.780330 0.496730 0.129350
H21   H     H_    0.437181 0.360475 0.390350 0.167926
H22   H     H_    0.562801 0.360513 0.609629 0.167750
H23   H     H_    0.937316 0.860480 0.390087 0.167564
H24   H     H_    0.062664 0.860509 0.609870 0.167762
H25   H     H_    0.043749 0.720838 0.463804 0.135147
H26   H     H_    0.956228 0.720758 0.536206 0.135112
H27   H     H_    0.543168 0.220845 0.462933 0.135276
H28   H     H_    0.456832 0.220762 0.537124 0.135243
H29   H     H_    0.043430 0.639524 0.462676 0.144742
H30   H     H_    0.956578 0.639447 0.537340 0.144213
H31   H     H_    0.542821 0.139544 0.461760 0.144723
H32   H     H_    0.457204 0.139464 0.538291 0.144128
H33   H     H_    0.057671 0.361123 0.499047 0.135738
H34   H     H_    0.942370 0.361064 0.501024 0.136555
H35   H     H_    0.558172 0.861149 0.500498 0.136001
H36   H     H_    0.441879 0.861085 0.499593 0.136916
H37   H     H_    0.477894 0.719333 0.572914 0.129474
H38   H     H_    0.522199 0.719365 0.427205 0.129409
H39   H     H_    0.978970 0.219343 0.574454 0.129585
H40   H     H_    0.021103 0.219377 0.425623 0.129544
H41   H     H_    0.465247 0.479365 0.667750 0.165342
H42   H     H_    0.534440 0.477929 0.332291 0.164429
H43   H     H_    0.965588 0.976985 0.667338 0.162563
H44   H     H_    0.034955 0.979308 0.332580 0.164371
H45   H     H_    0.476345 0.638522 0.570087 0.129311
H46   H     H_    0.523708 0.638547 0.429967 0.129257
H47   H     H_    0.977458 0.138516 0.571756 0.128944
H48   H     H_    0.022588 0.138542 0.428283 0.128953
H49   H     H_    0.548961 0.451694 0.855998 0.148492
H50   H     H_    0.448757 0.454555 0.141584 0.145585
H51   H     H_    0.052667 0.955384 0.859906 0.142530
H52   H     H_    0.951080 0.951057 0.144024 0.148001
H53   H     H_    0.279753 0.449748 0.850970 0.129497
H54   H     H_    0.720019 0.456278 0.141198 0.129291
H55   H     H_    0.779976 0.955055 0.857403 0.129503
H56   H     H_    0.219766 0.963051 0.134557 0.128656
H57   H     H_    0.360498 0.448833 0.930042 0.139029
H58   H     H_    0.639272 0.455074 0.062309 0.135149
H59   H     H_    0.860714 0.953982 0.936291 0.135953
H60   H     H_    0.139075 0.961594 0.055718 0.130995
H61   H     H_    0.361189 0.551094 0.791238 0.144000
H62   H     H_    0.638631 0.544929 0.215811 0.141065
H63   H     H_    0.861306 0.045947 0.785520 0.142064
H64   H     H_    0.138394 0.038413 0.221800 0.137405
H65   H     H_    0.280467 0.550317 0.708739 0.129126
H66   H     H_    0.719366 0.543868 0.298401 0.129086
H67   H     H_    0.780580 0.045030 0.703108 0.129305
H68   H     H_    0.219081 0.036788 0.304575 0.128581
H69   H     H_    0.219411 0.571728 0.707110 0.129114
H70   H     H_    0.780526 0.569775 0.305364 0.128918
H71   H     H_    0.719492 0.070206 0.697310 0.129069
H72   H     H_    0.280489 0.066094 0.318770 0.128537
O1    O     O_R   0.434530 0.536960 0.934530 -0.621878
O2    O     O_R   0.565470 0.536960 0.065470 -0.620508
O3    O     O_R   0.934530 0.036960 0.934530 -0.620625
O4    O     O_R   0.065470 0.036960 0.065470 -0.619802
O5    O     O_R   0.065470 0.500010 0.514410 -0.620440
O6    O     O_R   0.934530 0.500010 0.485590 -0.620729
O7    O     O_R   0.565470 0.000010 0.514410 -0.620606
O8    O     O_R   0.434530 0.000010 0.485590 -0.621287
O9    O     O_R   0.065460 0.500010 0.616540 -0.613329
O10   O     O_R   0.934540 0.500010 0.383460 -0.613625
O11   O     O_R   0.565460 0.000010 0.616540 -0.613522
O12   O     O_R   0.434540 0.000010 0.383460 -0.614374
O13   O     O_R   0.000010 0.565480 0.448930 -0.621690
O14   O     O_R   0.999990 0.565480 0.551070 -0.622413
O15   O     O_R   0.500010 0.065480 0.448930 -0.621740
O16   O     O_R   0.499990 0.065480 0.551070 -0.622642
O17   O     O_R   0.434530 0.463040 0.934530 -0.622303
O18   O     O_R   0.565470 0.463040 0.065470 -0.621500
O19   O     O_R   0.934530 0.963040 0.934530 -0.621873
O20   O     O_R   0.065470 0.963040 0.065470 -0.620192
O21   O     O_R   0.500010 0.536960 0.909550 -0.602673
O22   O     O_R   0.499990 0.536960 0.090450 -0.603490
O23   O     O_R   0.000010 0.036960 0.909550 -0.604700
O24   O     O_R   0.999990 0.036960 0.090450 -0.602498
O25   O     O_R   0.500010 0.463040 0.909550 -0.634146
O26   O     O_R   0.499990 0.463040 0.090450 -0.633711
O27   O     O_R   0.000010 0.963040 0.909550 -0.633082
O28   O     O_R   0.999990 0.963040 0.090450 -0.634359
O29   O     O_R   0.536960 0.434530 0.536970 -0.628401
O30   O     O_R   0.463040 0.434530 0.463030 -0.628077
O31   O     O_R   0.036960 0.934530 0.536970 -0.628113
O32   O     O_R   0.963040 0.934530 0.463030 -0.628405
O33   O     O_R   0.536950 0.500000 0.627420 -0.619596
O34   O     O_R   0.463050 0.500000 0.372580 -0.619665
O35   O     O_R   0.036950 1.000000 0.627420 -0.619727
O36   O     O_R   0.963050 0.000000 0.372580 -0.619417
O37   O     O_R   0.463030 0.500000 0.553490 -0.626452
O38   O     O_R   0.536970 0.500000 0.446510 -0.626594
O39   O     O_R   0.963030 0.000000 0.553490 -0.626663
O40   O     O_R   0.036970 1.000000 0.446510 -0.626710
O41   O     O_R   0.536960 0.565470 0.536960 -0.615433
O42   O     O_R   0.463040 0.565470 0.463040 -0.615454
O43   O     O_R   0.036960 0.065470 0.536960 -0.615511
O44   O     O_R   0.963040 0.065470 0.463040 -0.615207
O45   O     O_R   1.000000 0.434540 0.448940 -0.619175
O46   O     O_R   0.000000 0.434540 0.551060 -0.618508
O47   O     O_R   0.500000 0.934540 0.448940 -0.619304
O48   O     O_R   0.500000 0.934540 0.551060 -0.618529
Zn1   Zn    Zn3+2 0.500000 0.549350 0.000000 0.969921
Zn2   Zn    Zn3+2 0.000000 0.049350 0.000000 0.971021
Zn3   Zn    Zn3+2 0.500000 0.450640 0.000000 0.950670
Zn4   Zn    Zn3+2 0.000000 0.950640 0.000000 0.952032
Zn5   Zn    Zn3+2 0.549360 0.500000 0.549360 0.951546
Zn6   Zn    Zn3+2 0.450640 0.500000 0.450640 0.952028
Zn7   Zn    Zn3+2 0.049360 1.000000 0.549360 0.951350
Zn8   Zn    Zn3+2 0.950640 1.000000 0.450640 0.951602
Zn9   Zn    Zn3+2 0.000010 0.500010 0.431810 0.960040
Zn10  Zn    Zn3+2 0.999990 0.500010 0.568190 0.960040
Zn11  Zn    Zn3+2 0.500010 0.000010 0.431810 0.959124
Zn12  Zn    Zn3+2 0.499990 0.000010 0.568190 0.959173
N1    N     N_3   0.428193 0.274252 0.372850 -0.463654
H73   H     H_    0.440966 0.253841 0.351070 0.194945
H74   H     H_    0.412467 0.254339 0.389854 0.190580
N2    N     N_3   0.571790 0.274300 0.627175 -0.464075
H75   H     H_    0.559052 0.253777 0.648900 0.194805
H76   H     H_    0.587600 0.254517 0.610222 0.190276
N3    N     N_3   0.928360 0.774250 0.372522 -0.463854
H77   H     H_    0.941270 0.753830 0.350970 0.194892
H78   H     H_    0.912504 0.754340 0.389312 0.190271
N4    N     N_3   0.071608 0.774289 0.627464 -0.463996
H79   H     H_    0.058729 0.753761 0.648960 0.194861
H80   H     H_    0.087542 0.754503 0.610717 0.190043
N5    N     N_3   0.481814 0.542027 0.770133 -0.450967
H81   H     H_    0.452066 0.533514 0.718894 0.180534
H82   H     H_    0.503558 0.557760 0.761207 0.210956
N6    N     N_3   0.522257 0.540329 0.233608 -0.453300
H83   H     H_    0.551723 0.529690 0.283614 0.179622
H84   H     H_    0.502026 0.557416 0.244692 0.210871
N7    N     N_3   0.975221 0.039176 0.764078 -0.454499
H85   H     H_    0.946026 0.027110 0.714789 0.179480
H86   H     H_    0.994600 0.057198 0.751857 0.209801
N8    N     N_3   0.018443 0.041933 0.230195 -0.451209
H87   H     H_    0.048240 0.033252 0.281312 0.179669
H88   H     H_    0.996799 0.057780 0.239304 0.210681

loop_
_geom_bond_atom_site_label_1
_geom_bond_atom_site_label_2
_ccdc_geom_bond_type
C43   C73   S    
C121  H33   S    
C12   C32   A    
N4    H80   S    
C55   C59   A    
C89   C102  S    
C8    C136  D    
C46   O22   A    
C134  H50   S    
C35   C39   A    
N3    H77   S    
C132  H44   S    
C84   C87   A    
C103  H37   S    
C97   C100  A    
C69   O45   A    
C54   H14   S    
C8    N8    S    
C34   H70   S    
O2    Zn1   S    
C5    C133  D    
O29   Zn5   S    
C77   C89   A    
C50   C54   A    
O35   Zn7   S    
C107  H45   S    
C106  C118  A    
C27   H67   S    
C61   O30   A    
C46   O26   A    
C7    N7    S    
C24   H64   S    
N6    H83   S    
C26   H66   S    
C45   O25   A    
C82   C115  A    
C38   C42   A    
C25   H65   S    
C128  C136  S    
C36   H72   S    
C103  C107  A    
O14   Zn10  S    
C95   C99   A    
C85   C88   A    
C64   O34   A    
C94   C98   A    
C1    O17   A    
C63   O33   A    
C96   C99   A    
O5    Zn9   S    
C92   C96   A    
O10   Zn9   S    
C62   O32   A    
C73   O11   A    
C35   C59   A    
N8    H87   S    
C68   C112  S    
C31   C59   S    
C9    C13   A    
O8    Zn12  S    
C79   C90   A    
C80   C86   A    
C61   C87   S    
C110  C112  A    
C21   H61   S    
C15   C19   A    
C52   C56   A    
C11   C15   A    
C108  H46   S    
C126  H2    S    
O20   Zn4   S    
C12   C16   A    
C75   O14   A    
C70   C120  S    
O27   Zn4   S    
C122  H34   S    
C124  H36   S    
C81   C114  A    
C106  H40   S    
C33   C57   A    
N7    H86   S    
C3    C19   S    
O9    Zn10  S    
O36   Zn8   S    
C23   C27   A    
C56   H16   S    
C18   C22   A    
C130  H42   S    
O42   Zn6   S    
C40   C44   A    
N8    H88   S    
O39   Zn8   S    
O21   Zn1   S    
C120  C123  A    
C133  H49   S    
C6    C46   S    
C41   C71   S    
O40   Zn7   S    
C15   H59   S    
C68   O44   A    
C63   C129  S    
C14   H58   S    
O44   Zn8   S    
C11   C31   A    
C52   H12   S    
O33   Zn5   S    
N1    H73   S    
C136  H52   S    
C53   H13   S    
C38   H6    S    
O31   Zn7   S    
C103  C117  A    
C45   O21   A    
C91   C101  A    
C2    O18   A    
C63   O37   A    
O37   Zn6   S    
C128  C132  D    
C41   C49   A    
C105  C109  A    
C65   C131  S    
C69   O46   A    
C66   C132  S    
C119  C121  A    
C76   O15   A    
C25   C29   A    
O26   Zn3   S    
C12   H56   S    
O23   Zn2   S    
C7    C47   S    
C2    O2    A    
O28   Zn4   S    
C109  H47   S    
C29   C57   S    
C86   C88   A    
C1    O1    A    
O11   Zn12  S    
C28   H68   S    
C20   C24   A    
C95   H29   S    
C50   H10   S    
C115  C123  A    
O17   Zn3   S    
O25   Zn3   S    
C10   C14   A    
C109  C112  A    
C70   O48   A    
C76   O16   A    
C126  C130  D    
C84   H22   S    
N2    H75   S    
O6    Zn10  S    
C66   O40   A    
C3    O3    A    
C125  H1    S    
N5    H81   S    
C71   O5    A    
C129  H41   S    
C81   C118  S    
C69   C119  S    
C33   C37   A    
C62   O31   A    
C56   C60   A    
C80   N4    S    
O47   Zn11  S    
C48   O24   A    
C72   O6    A    
O18   Zn3   S    
C19   C23   A    
C8    C48   S    
C90   C101  S    
C7    C135  D    
C16   H60   S    
C96   H30   S    
C78   C84   A    
C65   O35   A    
C10   C30   A    
C93   C97   A    
O1    Zn1   S    
N7    H85   S    
C83   H21   S    
O22   Zn1   S    
C28   C32   A    
C16   C20   A    
C83   C87   A    
C125  C133  S    
O7    Zn11  S    
C75   C99   S    
C127  H3    S    
O34   Zn6   S    
C49   H9    S    
C5    C45   S    
C108  C111  A    
C10   H54   S    
C44   C74   S    
C126  C134  S    
C51   H11   S    
C48   O28   A    
O38   Zn5   S    
C37   H5    S    
C92   C101  A    
C42   C50   A    
O19   Zn4   S    
C47   O23   A    
C67   C111  S    
C39   H7    S    
C26   C30   A    
C78   N2    S    
N1    H74   S    
C27   C31   A    
C105  H39   S    
C54   C58   A    
C5    N5    S    
C105  C118  A    
O30   Zn6   S    
C76   C100  S    
C32   C60   S    
C62   C88   S    
C74   O12   A    
C23   H63   S    
C94   H28   S    
C104  C108  A    
C36   C40   A    
C72   O10   A    
C80   C90   A    
C68   O43   A    
C34   C58   A    
C104  C117  A    
C106  C110  A    
C119  C122  A    
C92   H26   S    
O15   Zn11  S    
C47   O27   A    
C21   C25   A    
O46   Zn10  S    
C79   N3    S    
C116  C124  A    
C74   O8    A    
C33   H69   S    
C34   C38   A    
C93   C102  A    
C107  C111  A    
C14   C18   A    
C22   H62   S    
C6    N6    S    
C24   C28   A    
C4    O4    A    
C113  H17   S    
C2    C18   S    
C36   C60   A    
C53   C57   A    
C70   O47   A    
O16   Zn12  S    
C104  H38   S    
C98   H32   S    
C135  H51   S    
C55   H15   S    
C44   C52   A    
C4    C20   S    
C9    C29   A    
N5    H82   S    
C113  C121  A    
C77   N1    S    
C3    O19   A    
C1    C17   S    
C71   O9    A    
C40   H8    S    
C13   C17   A    
C78   C89   A    
C9    H53   S    
C61   O29   A    
N3    H78   S    
N6    H84   S    
C115  H19   S    
C82   C116  A    
C6    C134  D    
C97   H31   S    
O48   Zn12  S    
C43   C51   A    
C66   O36   A    
C91   H25   S    
C49   C53   A    
C131  H43   S    
C30   C58   S    
C114  C122  A    
O4    Zn2   S    
C79   C85   A    
O45   Zn9   S    
C128  H4    S    
C11   H55   S    
C4    O20   A    
O24   Zn2   S    
C37   C41   A    
C127  C135  S    
C98   C100  A    
C127  C131  D    
C116  H20   S    
O13   Zn9   S    
O32   Zn8   S    
C110  H48   S    
C65   O39   A    
C93   H27   S    
C67   O42   A    
C125  C129  D    
C35   H71   S    
C64   O38   A    
C75   O13   A    
C91   C95   A    
N2    H76   S    
O3    Zn2   S    
C22   C26   A    
C64   C130  S    
C81   C113  A    
C51   C55   A    
C77   C83   A    
N4    H79   S    
C73   O7    A    
C13   H57   S    
C85   H23   S    
C82   C117  S    
O41   Zn5   S    
C42   C72   S    
O12   Zn11  S    
C86   H24   S    
C39   C43   A    
C114  H18   S    
C123  H35   S    
C120  C124  A    
C94   C102  A    
O43   Zn7   S    
C67   O41   A    
C17   C21   A    
