data_mof_unit_19509.cif
_audit_creation_date              2012-12-10T16:48:09-0500
_audit_creation_method            fapswitch 2.2
_symmetry_space_group_name_H-M    P1
_symmetry_Int_Tables_number       1
_space_group_crystal_system       triclinic
_cell_length_a                    15.811774
_cell_length_b                    8.722447
_cell_length_c                    7.500205
_cell_angle_alpha                 102.36974
_cell_angle_beta                  96.745118
_cell_angle_gamma                 91.777605
_cell_volume                      1001.7174747

loop_
_atom_site_label
_atom_site_type_symbol
_atom_type_description
_atom_site_fract_x
_atom_site_fract_y
_atom_site_fract_z
_atom_type_partial_charge
C1    C     C_R   0.497529 0.200425 0.454112 0.804356
C2    C     C_R   0.502424 0.799572 0.545885 0.800946
C3    C     C_R   0.339870 0.501979 0.498232 0.790413
C4    C     C_R   0.660140 0.498076 0.501780 0.794954
C5    C     C_2   0.496447 0.033609 0.427735 0.277680
C6    C     C_2   0.503440 0.966381 0.572256 0.280237
C7    C     C_3   0.982768 0.379164 0.570716 0.465119
C8    C     C_3   0.017288 0.626892 0.430766 0.453555
C9    C     C_3   0.018933 0.366843 0.386222 -0.426132
C10   C     C_3   0.980476 0.638678 0.615494 -0.482864
C11   C     C_1   0.249889 0.507481 0.490865 -0.148584
C12   C     C_1   0.750186 0.493676 0.509345 -0.121948
C13   C     C_3   0.045366 0.519673 0.664711 0.411715
C14   C     C_3   0.954748 0.486600 0.337290 0.436238
C15   C     C_3   0.082108 0.509126 0.481888 -0.063533
C16   C     C_3   0.918182 0.495947 0.519867 -0.055370
C17   C     C_1   0.173912 0.510500 0.481790 0.056976
C18   C     C_1   0.826237 0.492156 0.518907 0.080321
Cu1   Cu    Cu3+1 0.509330 0.517380 0.684380 1.045567
Cu2   Cu    Cu3+1 0.490670 0.482620 0.315620 1.044798
H1    H     H_    0.035234 0.258241 0.292264 0.162054
H2    H     H_    0.962826 0.746519 0.708714 0.166593
H3    H     H_    0.434542 0.375936 0.947635 0.249513
H4    H     H_    0.565450 0.624076 0.052366 0.252350
N1    N     N_2   0.476600 0.456420 0.038510 -0.182028
N2    N     N_2   0.523400 0.543580 0.961490 -0.179297
O1    O     O_R   0.506070 0.286130 0.619780 -0.555273
O2    O     O_R   0.493930 0.713870 0.380220 -0.558014
O3    O     O_R   0.490300 0.256770 0.308360 -0.525872
O4    O     O_R   0.509700 0.743230 0.691640 -0.526533
O5    O     O_R   0.386960 0.514660 0.655680 -0.583056
O6    O     O_R   0.613040 0.485340 0.344320 -0.574386
O7    O     O_R   0.371190 0.485310 0.344260 -0.580439
O8    O     O_R   0.628810 0.514690 0.655740 -0.578110
O9    O     O_3   0.959495 0.250029 0.643838 -0.591272
C19   C     C_3   0.032274 0.166914 0.680880 -0.314046
H5    H     H_    0.078865 0.238424 0.791881 0.204583
H6    H     H_    0.063640 0.125220 0.555643 0.181847
H7    H     H_    0.012189 0.062192 0.730569 0.177139
O10   O     O_3   0.041033 0.753203 0.353386 -0.592711
C20   C     C_3   0.969531 0.841472 0.323684 -0.310849
H8    H     H_    0.942067 0.887159 0.453069 0.189788
H9    H     H_    0.919363 0.772200 0.219140 0.194924
H10   H     H_    0.990040 0.943790 0.270041 0.182136
O11   O     O_3   0.896311 0.469634 0.176453 -0.593770
C21   C     C_3   0.940850 0.454083 0.023882 -0.187999
H11   H     H_    0.979693 0.349258 0.010184 0.192559
H12   H     H_    0.981055 0.562038 0.032003 0.202623
H13   H     H_    0.893476 0.438955 0.899420 0.212974
O12   O     O_3   0.097063 0.528162 0.833941 -0.605414
C22   C     C_3   0.130078 0.683795 0.907234 -0.256967
H14   H     H_    0.078923 0.760822 0.955400 0.164846
H15   H     H_    0.163211 0.732579 0.806941 0.168961
H16   H     H_    0.177549 0.684121 0.028616 0.211815
F1    F     F_    0.488231 0.948472 0.250799 -0.633189
F2    F     F_    0.511620 0.051515 0.749189 -0.629924

loop_
_geom_bond_atom_site_label_1
_geom_bond_atom_site_label_2
_ccdc_geom_bond_type
C2    O2    A    
C9    C14   S    
C13   O12   S    
C15   C17   S    
C8    C15   S    
Cu1   O1    S    
C20   H8    S    
Cu1   Cu2   S    
C2    O4    A    
C22   H16   S    
Cu1   O5    S    
C1    O3    A    
O12   C22   S    
C9    C15   S    
C10   C16   S    
O11   C21   S    
C10   H2    S    
C3    O5    A    
C20   H9    S    
C21   H13   S    
C9    H1    S    
C2    C6    S    
C19   H7    S    
C1    C5    S    
Cu2   O7    S    
C19   H6    S    
O10   C20   S    
H4    N2    S    
C14   O11   S    
C4    O8    A    
Cu2   O3    S    
C13   C15   S    
C7    C16   S    
C5    C6    D    
C20   H10   S    
C14   C16   S    
C3    C11   S    
Cu2   N1    S    
C4    O6    A    
C22   H14   S    
C21   H12   S    
C7    C9    S    
C7    C13   S    
H3    N1    S    
C8    O10   S    
C16   C18   S    
Cu2   O6    S    
C12   C18   T    
C1    O1    A    
Cu1   N2    S    
C3    O7    A    
C21   H11   S    
C19   H5    S    
C8    C14   S    
Cu2   O2    S    
Cu1   O8    S    
N1    N2    D    
C4    C12   S    
Cu1   O4    S    
C7    O9    S    
C5    F1    S    
C8    C10   S    
C11   C17   T    
O9    C19   S    
C6    F2    S    
C22   H15   S    
C10   C13   S    
