data_mof_unit_25304.cif
_audit_creation_date              2012-12-10T19:00:13-0500
_audit_creation_method            fapswitch 2.2
_symmetry_space_group_name_H-M    P1
_symmetry_Int_Tables_number       1
_space_group_crystal_system       triclinic
_cell_length_a                    9.682931
_cell_length_b                    10.965112
_cell_length_c                    13.409053
_cell_angle_alpha                 89.589944
_cell_angle_beta                  74.098354
_cell_angle_gamma                 91.712738
_cell_volume                      1368.43231226

loop_
_atom_site_label
_atom_site_type_symbol
_atom_type_description
_atom_site_fract_x
_atom_site_fract_y
_atom_site_fract_z
_atom_type_partial_charge
C1    C     C_R   0.503055 0.737093 0.497195 0.814178
C2    C     C_R   0.450905 0.424415 0.971302 0.019862
C3    C     C_R   0.494139 0.433311 0.862441 -0.094511
C4    C     C_R   0.555641 0.443599 0.025149 -0.015063
C5    C     C_R   0.698092 0.413634 0.974185 -0.059499
C6    C     C_R   0.734109 0.378507 0.869483 0.465441
C7    C     C_R   0.632379 0.394188 0.813814 -0.264495
C8    C     C_R   0.522978 0.492473 0.126192 0.435197
C9    C     C_R   0.766631 0.455409 0.133123 0.432361
C10   C     C_R   0.388918 0.434493 0.807419 -0.197871
C11   C     C_R   0.441847 0.937810 0.433922 -0.081094
C12   C     C_R   0.424795 0.480498 0.697771 0.838644
C13   C     C_R   0.511145 0.870332 0.493176 -0.117978
C14   C     C_R   0.591085 0.935214 0.549823 -0.307345
C15   C     C_R   0.582126 0.064218 0.559994 0.471501
C16   C     C_R   0.495155 0.128175 0.508576 -0.115830
C17   C     C_R   0.427305 0.061407 0.446478 -0.136107
C18   C     C_3   0.275342 0.052515 0.440165 0.282834
C19   C     C_3   0.304839 0.922120 0.402362 0.833930
C20   C     C_R   0.951141 0.436167 0.428784 0.279876
C21   C     C_R   0.903088 0.572420 0.564573 -0.292687
C22   C     C_R   0.052867 0.572571 0.566375 0.597672
C23   C     C_R   0.496917 0.262460 0.504506 0.809948
C24   C     C_R   0.098356 0.440140 0.425928 0.020362
C25   C     C_3   0.107691 0.308032 0.406810 -0.609698
C26   C     C_3   0.947532 0.301780 0.416596 0.306820
C27   C     C_R   0.577222 0.499015 0.299399 0.822904
C28   C     C_R   0.802502 0.421690 0.027517 -0.307717
C29   C     C_R   0.622890 0.481905 0.184318 -0.212271
C30   C     C_R   0.264370 0.362261 0.850652 0.449726
C31   C     C_R   0.232782 0.322560 0.954250 -0.359191
C32   C     C_R   0.323068 0.355543 0.016130 0.394423
Cu1   Cu    Cu3+1 0.359330 0.500020 0.500010 1.017306
Cu2   Cu    Cu3+1 0.640670 0.499980 0.499990 0.979233
H1    H     H_    0.135715 0.263961 0.472318 0.229048
H2    H     H_    0.142321 0.259907 0.984416 0.168647
N1    N     N_R   0.852320 0.499070 0.499340 -0.237930
N2    N     N_R   0.148230 0.499110 0.499340 -0.214498
O1    O     O_R   0.381190 0.680360 0.500000 -0.491204
O2    O     O_R   0.618780 0.680320 0.499990 -0.603425
O3    O     O_R   0.323230 0.500000 0.650990 -0.509302
O4    O     O_R   0.560820 0.499960 0.650980 -0.604548
O5    O     O_R   0.381220 0.319680 0.500010 -0.583841
O6    O     O_R   0.618810 0.319640 0.500000 -0.550552
O7    O     O_R   0.439180 0.500040 0.349020 -0.587351
O8    O     O_R   0.676770 0.500000 0.349010 -0.502942
O9    O     O_3   0.868242 0.477348 0.187325 -0.554152
C33   C     C_3   0.998885 0.422966 0.143640 -0.182319
H3    H     H_    0.982765 0.325051 0.127600 0.189244
H4    H     H_    0.060893 0.425968 0.201094 0.218569
H5    H     H_    0.059329 0.476201 0.074002 0.123821
O10   O     O_3   0.657355 0.130170 0.617779 -0.607199
C34   C     C_3   0.649984 0.071051 0.713180 -0.392821
H6    H     H_    0.540705 0.031481 0.751215 0.163406
H7    H     H_    0.675285 0.138869 0.766854 0.222210
H8    H     H_    0.732246 0.000365 0.702618 0.165738
O11   O     O_3   0.183420 0.059448 0.542480 -0.583878
C35   C     C_3   0.036619 0.047842 0.546217 -0.303845
H9    H     H_    0.014607 0.051142 0.469600 0.133501
H10   H     H_    0.978384 0.122207 0.593354 0.175474
H11   H     H_    0.991020 0.961742 0.586978 0.196563
H12   H     H_    0.255203 0.114689 0.381104 0.056647
O12   O     O_3   0.204370 0.833424 0.460155 -0.536501
C36   C     C_3   0.090529 0.809365 0.414606 -0.211258
H13   H     H_    0.109776 0.723696 0.370795 0.160401
H14   H     H_    0.071879 0.883894 0.363497 0.141249
H15   H     H_    0.989059 0.795956 0.476845 0.143593
O13   O     O_3   0.326333 0.918358 0.292700 -0.678561
C37   C     C_3   0.436811 0.840027 0.244530 -0.336175
H16   H     H_    0.427844 0.751860 0.287620 0.216020
H17   H     H_    0.543761 0.884853 0.236746 0.155720
H18   H     H_    0.429148 0.822838 0.164885 0.240435
H19   H     H_    0.825895 0.628374 0.616204 0.167400
O14   O     O_3   0.108562 0.644408 0.632766 -0.508642
C38   C     C_3   0.004705 0.704049 0.709965 -0.318690
H20   H     H_    0.952361 0.775283 0.675362 0.147214
H21   H     H_    0.059945 0.750844 0.762028 0.199001
H22   H     H_    0.923914 0.638425 0.758630 0.133279
H23   H     H_    0.176825 0.289631 0.327854 0.238604
O15   O     O_3   0.912116 0.270919 0.324599 -0.531915
C39   C     C_3   0.909991 0.143378 0.313520 -0.325553
H24   H     H_    0.833766 0.096859 0.381420 0.163388
H25   H     H_    0.019840 0.107791 0.299537 0.163726
H26   H     H_    0.872301 0.121622 0.244485 0.183338
O16   O     O_3   0.854271 0.309115 0.830550 -0.587130
C40   C     C_3   0.934460 0.351545 0.731525 -0.213197
H27   H     H_    0.872084 0.363392 0.674848 0.113776
H28   H     H_    0.011565 0.281956 0.695851 0.216567
H29   H     H_    0.995281 0.436199 0.739459 0.209171
H30   H     H_    0.880283 0.254472 0.487849 0.133336
H31   H     H_    0.911943 0.404346 0.984805 0.196616
O17   O     O_3   0.442347 0.595923 0.145417 -0.622761
C41   C     C_3   0.295218 0.567240 0.178611 -0.271439
H32   H     H_    0.240811 0.643762 0.224448 0.173842
H33   H     H_    0.269964 0.484778 0.229435 0.209563
H34   H     H_    0.252585 0.562015 0.110429 0.166250
O18   O     O_3   0.191018 0.309476 0.786911 -0.576879
C42   C     C_3   0.242632 0.190945 0.763020 -0.278377
H35   H     H_    0.216804 0.130302 0.832970 0.152293
H36   H     H_    0.360233 0.193495 0.725068 0.154906
H37   H     H_    0.188740 0.149550 0.708386 0.235947
O19   O     O_3   0.296385 0.306201 0.115102 -0.624985
C43   C     C_3   0.346296 0.186165 0.108333 -0.324363
H38   H     H_    0.462378 0.183490 0.065805 0.167859
H39   H     H_    0.281655 0.124901 0.071447 0.171391
H40   H     H_    0.334086 0.150444 0.187920 0.204036
H41   H     H_    0.650955 0.354813 0.738167 0.201595
H42   H     H_    0.655305 0.884646 0.589235 0.151991

loop_
_geom_bond_atom_site_label_1
_geom_bond_atom_site_label_2
_ccdc_geom_bond_type
C41   H32   S    
C21   H19   S    
C27   C29   S    
Cu2   N1    S    
Cu1   O7    S    
Cu2   O4    S    
C4    C8    A    
C39   H24   S    
C34   H6    S    
C30   O18   S    
C11   C19   S    
Cu1   O1    S    
C6    O16   S    
Cu2   O2    S    
C8    C29   A    
C3    C7    A    
C31   H2    S    
C5    C6    A    
C40   H28   S    
C35   H10   S    
C15   C16   A    
C22   N2    A    
O18   C42   S    
C23   O5    A    
C2    C32   A    
C18   C19   S    
C37   H17   S    
C12   O4    A    
C1    O2    A    
O13   C37   S    
C33   H5    S    
C31   C32   A    
C19   O12   S    
C16   C17   A    
C24   N2    A    
Cu2   O8    S    
C43   H40   S    
C9    C29   A    
C27   O7    A    
C35   H11   S    
C33   H4    S    
C41   H33   S    
C21   C22   A    
C37   H16   S    
C39   H25   S    
Cu1   Cu2   S    
C34   H7    S    
O14   C38   S    
Cu1   O5    S    
C36   H15   S    
C20   C24   A    
Cu2   O6    S    
C24   C25   S    
C40   H27   S    
C18   H12   S    
C35   H9    S    
O16   C40   S    
C26   O15   S    
C23   O6    A    
C36   H14   S    
C37   H18   S    
C2    C4    A    
C38   H20   S    
C12   O3    A    
C5    C28   A    
C10   C30   A    
C18   O11   S    
O9    C33   S    
C26   H30   S    
C17   C18   S    
C19   O13   S    
C43   H39   S    
C15   O10   S    
C38   H21   S    
C10   C12   S    
C25   H1    S    
C8    O17   S    
C27   O8    A    
C33   H3    S    
C9    O9    S    
C16   C23   S    
C42   H36   S    
C7    H41   S    
C1    C13   S    
C22   O14   S    
C39   H26   S    
O10   C34   S    
C34   H8    S    
C11   C17   A    
C25   H23   S    
O15   C39   S    
C40   H29   S    
C6    C7    A    
C41   H34   S    
C42   H37   S    
Cu1   N2    S    
Cu1   O3    S    
C36   H13   S    
C2    C3    A    
C25   C26   S    
C3    C10   A    
C20   N1    A    
C11   C13   A    
O11   C35   S    
C30   C31   A    
C20   C26   S    
C14   H42   S    
O17   C41   S    
C28   H31   S    
C32   O19   S    
O19   C43   S    
C38   H22   S    
C1    O1    A    
O12   C36   S    
C4    C5    A    
C21   N1    A    
C42   H35   S    
C43   H38   S    
C14   C15   A    
C13   C14   A    
C9    C28   A    
