data_mof_unit_12624.cif
_audit_creation_date              2012-12-10T18:50:44-0500
_audit_creation_method            fapswitch 2.2
_symmetry_space_group_name_H-M    P1
_symmetry_Int_Tables_number       1
_space_group_crystal_system       triclinic
_cell_length_a                    10.697929
_cell_length_b                    9.860642
_cell_length_c                    15.73007
_cell_angle_alpha                 89.677063
_cell_angle_beta                  90.413711
_cell_angle_gamma                 90.019439
_cell_volume                      1659.27098457

loop_
_atom_site_label
_atom_site_type_symbol
_atom_type_description
_atom_site_fract_x
_atom_site_fract_y
_atom_site_fract_z
_atom_type_partial_charge
C1    C     C_R   0.259937 0.500009 0.500209 0.862992
C2    C     C_3   0.627144 0.517495 0.952195 -0.414300
C3    C     C_3   0.626335 0.517067 0.050184 -0.507298
C4    C     C_1   0.494690 0.498800 0.825999 -0.094148
C5    C     C_1   0.494768 0.501775 0.174343 -0.108829
C6    C     C_1   0.497797 0.501122 0.249585 -0.196077
C7    C     C_R   0.064286 0.384950 0.529534 -0.212020
C8    C     C_R   0.063678 0.615734 0.472817 -0.192629
C9    C     C_R   0.936128 0.384666 0.529111 -0.194854
C10   C     C_R   0.935615 0.615759 0.472758 -0.200558
C11   C     C_R   0.872416 0.500072 0.500636 -0.005196
C12   C     C_R   0.127472 0.500182 0.500861 -0.013453
C13   C     C_R   0.572729 0.071270 0.556040 -0.150103
C14   C     C_R   0.572405 0.927751 0.556235 -0.148219
C15   C     C_R   0.500021 0.500332 0.338340 0.916622
C16   C     C_R   0.427794 0.927926 0.442507 0.230348
C17   C     C_R   0.425932 0.073435 0.443705 0.228991
C18   C     C_R   0.739986 0.500006 0.500189 0.851809
C19   C     C_R   0.499711 0.499650 0.661769 0.902478
C20   C     C_3   0.413727 0.625783 0.047281 0.065011
C21   C     C_3   0.439015 0.363342 0.049559 0.091276
C22   C     C_3   0.437900 0.364158 0.950917 -0.450462
C23   C     C_3   0.409761 0.617664 0.948724 -0.399104
C24   C     C_1   0.497145 0.498905 0.750678 -0.192993
C25   C     C_3   0.490354 0.501883 0.082797 0.228662
C26   C     C_3   0.492529 0.499493 0.917443 0.284004
H1    H     H_    0.312264 0.601869 0.925512 0.186628
H2    H     H_    0.341442 0.349970 0.925419 0.175549
H3    H     H_    0.506051 0.283341 0.071240 0.141544
H4    H     H_    0.465311 0.719718 0.065595 0.137249
H5    H     H_    0.494596 0.277522 0.927537 0.157670
H6    H     H_    0.442905 0.715574 0.921389 0.148239
H7    H     H_    0.668802 0.612919 0.073934 0.182124
H8    H     H_    0.685731 0.432297 0.074385 0.183685
H9    H     H_    0.667301 0.614817 0.928724 0.177556
H10   H     H_    0.688103 0.434047 0.929244 0.178217
H11   H     H_    0.113671 0.296060 0.552677 0.157156
H12   H     H_    0.112382 0.704985 0.450228 0.145211
H13   H     H_    0.887182 0.295384 0.551730 0.150249
H14   H     H_    0.886341 0.705087 0.450111 0.154161
H15   H     H_    0.631263 0.125149 0.600914 0.147983
H16   H     H_    0.630507 0.873115 0.601367 0.152422
N1    N     N_R   0.499970 0.857200 0.499980 -0.103500
N2    N     N_R   0.499970 0.142800 0.499980 -0.103497
O1    O     O_R   0.316750 0.614620 0.499990 -0.614652
O2    O     O_R   0.316750 0.385380 0.499990 -0.600138
O3    O     O_R   0.499990 0.614720 0.377140 -0.589570
O4    O     O_R   0.499990 0.385280 0.377140 -0.604488
O5    O     O_R   0.683220 0.614710 0.500000 -0.627383
O6    O     O_R   0.683220 0.385290 0.500000 -0.627005
O7    O     O_R   0.499980 0.614620 0.622860 -0.615443
O8    O     O_R   0.499980 0.385380 0.622860 -0.617664
Zn1   Zn    Zn3+2 0.499980 0.653120 0.500000 0.957760
Zn2   Zn    Zn3+2 0.499980 0.346880 0.500000 0.958158
N3    N     N_2   0.352901 0.853997 0.383911 -0.255394
H17   H     H_    0.258138 0.865924 0.391745 0.207003
C27   C     C_3   0.391840 0.858025 0.295926 -0.777133
H18   H     H_    0.355980 0.766516 0.263077 0.245905
H19   H     H_    0.495464 0.859020 0.290997 0.243672
H20   H     H_    0.352223 0.947824 0.262776 0.207565
N4    N     N_2   0.352388 0.148992 0.384663 -0.255176
H21   H     H_    0.385722 0.152792 0.323429 0.223467
C28   C     C_3   0.217832 0.141293 0.392398 -0.776707
H22   H     H_    0.178413 0.073997 0.342627 0.214682
H23   H     H_    0.177585 0.243877 0.382595 0.258579
H24   H     H_    0.189863 0.103496 0.456229 0.224233
N5    N     N_2   0.287464 0.634317 0.081659 -0.305365
H25   H     H_    0.277850 0.600214 0.143307 0.242746
C29   C     C_3   0.224550 0.763010 0.068874 -0.852686
H26   H     H_    0.126772 0.755085 0.091583 0.247169
H27   H     H_    0.221922 0.791203 0.000470 0.252529
H28   H     H_    0.272989 0.843975 0.105314 0.240240
N6    N     N_2   0.315629 0.332401 0.083498 -0.290359
H29   H     H_    0.242923 0.386132 0.056233 0.254536
C30   C     C_3   0.287268 0.189886 0.094592 -0.850768
H30   H     H_    0.193734 0.178634 0.123961 0.247532
H31   H     H_    0.357158 0.141348 0.137569 0.241138
H32   H     H_    0.286786 0.137806 0.032135 0.242418

loop_
_geom_bond_atom_site_label_1
_geom_bond_atom_site_label_2
_ccdc_geom_bond_type
C2    H9    S    
N3    H17   S    
C28   H23   S    
C11   C18   S    
N6    H29   S    
C20   N5    S    
C15   O3    A    
C13   H15   S    
C20   H4    S    
O4    Zn2   S    
O6    Zn2   S    
C5    C6    T    
C4    C24   T    
C1    O2    A    
C27   H19   S    
C20   C25   S    
C3    H7    S    
C21   N6    S    
C9    H13   S    
C10   H14   S    
C23   C26   S    
C29   H27   S    
C17   N4    S    
C6    C15   S    
C19   O8    A    
N1    Zn1   S    
C16   C17   A    
C23   H1    S    
O3    Zn1   S    
C28   H24   S    
O1    Zn1   S    
C22   H2    S    
C21   C22   S    
N6    C30   S    
C29   H26   S    
C1    C12   S    
C8    H12   S    
C15   O4    A    
O8    Zn2   S    
C7    C12   A    
C22   H5    S    
N5    H25   S    
C3    C25   S    
C27   H20   S    
C3    H8    S    
C21   H3    S    
O7    Zn1   S    
C29   H28   S    
C30   H30   S    
N2    Zn2   S    
C9    C11   A    
C20   C23   S    
C8    C12   A    
O2    Zn2   S    
N4    C28   S    
C7    H11   S    
C2    C26   S    
C30   H31   S    
C16   N1    A    
C5    C25   S    
N3    C27   S    
C18   O6    A    
C2    H10   S    
C7    C9    A    
C21   C25   S    
C4    C26   S    
C14   H16   S    
C23   H6    S    
C2    C3    S    
C16   N3    S    
C1    O1    A    
C27   H18   S    
O5    Zn1   S    
C19   C24   S    
N4    H21   S    
C30   H32   S    
C17   N2    A    
C10   C11   A    
C28   H22   S    
C19   O7    A    
C8    C10   A    
C22   C26   S    
N5    C29   S    
C13   C14   A    
C13   N2    A    
C18   O5    A    
C14   N1    A    
