data_mof_unit_19536.cif
_audit_creation_date              2013-03-05T15:44:39-0500
_audit_creation_method            fapswitch 2.2
_symmetry_space_group_name_H-M    P1
_symmetry_Int_Tables_number       1
_space_group_crystal_system       triclinic
_cell_length_a                    18.977375
_cell_length_b                    11.099039
_cell_length_c                    18.757037
_cell_angle_alpha                 90.680349
_cell_angle_beta                  89.9064
_cell_angle_gamma                 89.698243
_cell_volume                      3950.4674303

loop_
_atom_site_label
_atom_site_type_symbol
_atom_site_description
_atom_site_fract_x
_atom_site_fract_y
_atom_site_fract_z
_atom_type_partial_charge
O1    O     O_R   0.787540 0.042690 0.170470 -0.472020
O2    O     O_R   0.212460 0.042690 0.829530 -0.530466
O3    O     O_R   0.287540 0.542690 0.170470 -0.505388
O4    O     O_R   0.712460 0.542690 0.829530 -0.502571
O5    O     O_R   0.765660 0.292160 0.175050 -0.461795
O6    O     O_R   0.234340 0.292160 0.824950 -0.507702
O7    O     O_R   0.265660 0.792160 0.175050 -0.452167
O8    O     O_R   0.734340 0.792160 0.824950 -0.497817
C1    C     C_R   0.729313 0.372941 0.144810 0.576638
C2    C     C_R   0.288180 0.333801 0.861495 0.520613
C3    C     C_R   0.229874 0.873831 0.145031 0.578110
C4    C     C_R   0.788502 0.832595 0.861382 0.534305
O9    O     O_R   0.670190 0.408980 0.168550 -0.506322
O10   O     O_R   0.329810 0.408980 0.831450 -0.459592
O11   O     O_R   0.170190 0.908980 0.168550 -0.547198
O12   O     O_R   0.829810 0.908980 0.831450 -0.467021
O13   O     O_R   0.556580 0.251450 0.175160 -0.524266
O14   O     O_R   0.443420 0.251450 0.824840 -0.532442
O15   O     O_R   0.056580 0.751450 0.175160 -0.520466
O16   O     O_R   0.943420 0.751450 0.824840 -0.528572
C5    C     C_R   0.532244 0.153895 0.146070 0.563078
C6    C     C_R   0.470362 0.155546 0.852058 0.537779
C7    C     C_R   0.030007 0.656327 0.148415 0.578974
C8    C     C_R   0.964209 0.652663 0.855870 0.535825
O17   O     O_R   0.545920 0.049510 0.170320 -0.458291
O18   O     O_R   0.454080 0.049510 0.829680 -0.481103
O19   O     O_R   0.045920 0.549510 0.170320 -0.457817
O20   O     O_R   0.954080 0.549510 0.829680 -0.474677
O21   O     O_R   0.681390 0.957840 0.176710 -0.480723
O22   O     O_R   0.318610 0.957840 0.823290 -0.466152
O23   O     O_R   0.181390 0.457840 0.176710 -0.486679
O24   O     O_R   0.818610 0.457840 0.823290 -0.466318
C9    C     C_R   0.741623 0.967790 0.148459 0.608648
C10   C     C_R   0.272278 0.021190 0.859972 0.513774
C11   C     C_R   0.241909 0.467210 0.148833 0.512129
C12   C     C_R   0.769753 0.515083 0.860322 0.513885
O25   O     O_R   0.787500 0.044280 0.330990 -0.491673
O26   O     O_R   0.212500 0.044280 0.669010 -0.454861
O27   O     O_R   0.287500 0.544280 0.330990 -0.503267
O28   O     O_R   0.712500 0.544280 0.669010 -0.442248
O29   O     O_R   0.765610 0.293630 0.323860 -0.487179
O30   O     O_R   0.234390 0.293630 0.676140 -0.513976
O31   O     O_R   0.265610 0.793630 0.323860 -0.476104
O32   O     O_R   0.734390 0.793630 0.676140 -0.512304
C13   C     C_R   0.730993 0.381726 0.350551 0.620538
C14   C     C_R   0.269506 0.379035 0.648316 0.529634
C15   C     C_R   0.231008 0.881646 0.350571 0.617446
C16   C     C_R   0.769309 0.879620 0.648540 0.533485
O33   O     O_R   0.670140 0.410570 0.329080 -0.475363
O34   O     O_R   0.329860 0.410570 0.670920 -0.493613
O35   O     O_R   0.170140 0.910570 0.329080 -0.484850
O36   O     O_R   0.829860 0.910570 0.670920 -0.496361
O37   O     O_R   0.556540 0.252920 0.323970 -0.482467
O38   O     O_R   0.443460 0.252920 0.676030 -0.472109
O39   O     O_R   0.056540 0.752920 0.323970 -0.485967
O40   O     O_R   0.943460 0.752920 0.676030 -0.466092
C17   C     C_R   0.531718 0.156790 0.354102 0.571307
C18   C     C_R   0.470332 0.157388 0.647855 0.540951
C19   C     C_R   0.030249 0.657485 0.352952 0.592944
C20   C     C_R   0.969139 0.657121 0.646670 0.538253
O41   O     O_R   0.545870 0.051100 0.330840 -0.485264
O42   O     O_R   0.454130 0.051100 0.669160 -0.492404
O43   O     O_R   0.045870 0.551100 0.330840 -0.449909
O44   O     O_R   0.954130 0.551100 0.669160 -0.523948
O45   O     O_R   0.681340 0.959300 0.325510 -0.524514
O46   O     O_R   0.318660 0.959300 0.674490 -0.431214
O47   O     O_R   0.181340 0.459300 0.325510 -0.516029
O48   O     O_R   0.818660 0.459300 0.674490 -0.443230
C21   C     C_R   0.740973 0.974249 0.355359 0.537655
C22   C     C_R   0.271612 0.017714 0.638238 0.575361
C23   C     C_R   0.241111 0.474102 0.355181 0.511424
C24   C     C_R   0.771668 0.518114 0.638273 0.577716
Cr1   Cr    Cr6+3 0.772000 0.169640 0.250110 1.124213
Cr2   Cr    Cr6+3 0.228000 0.169640 0.749890 1.062014
Cr3   Cr    Cr6+3 0.272000 0.669640 0.250110 1.101537
Cr4   Cr    Cr6+3 0.728000 0.669640 0.749890 1.095864
Cr5   Cr    Cr6+3 0.614960 0.323350 0.249260 1.080318
Cr6   Cr    Cr6+3 0.385040 0.323350 0.750740 1.084264
Cr7   Cr    Cr6+3 0.114960 0.823350 0.249260 1.065248
Cr8   Cr    Cr6+3 0.885040 0.823350 0.750740 1.061903
Cr9   Cr    Cr6+3 0.616670 0.010620 0.250840 1.106777
Cr10  Cr    Cr6+3 0.383330 0.010620 0.749160 1.120466
Cr11  Cr    Cr6+3 0.116670 0.510620 0.250840 1.104779
Cr12  Cr    Cr6+3 0.883330 0.510620 0.749160 1.100023
O49   O     O_3   0.667880 0.167870 0.250070 -0.308635
O50   O     O_3   0.332120 0.167870 0.749930 -0.346762
O51   O     O_3   0.167880 0.667870 0.250070 -0.294753
O52   O     O_3   0.832120 0.667870 0.749930 -0.346130
C25   C     C_R   0.505623 0.164085 0.922167 -0.010789
C26   C     C_R   0.505214 0.158118 0.072172 0.035643
C27   C     C_R   0.985915 0.652782 0.931539 -0.012047
C28   C     C_R   0.993072 0.669525 0.080408 -0.028958
C29   C     C_R   0.504382 0.273077 0.962218 -0.051647
C30   C     C_R   0.498412 0.268570 0.037132 -0.014947
C31   C     C_R   0.007096 0.760318 0.964161 -0.021777
C32   C     C_R   0.002968 0.773384 0.038350 -0.026965
C33   C     C_R   0.507107 0.051446 0.031297 0.111668
C34   C     C_R   0.516523 0.055224 0.957965 0.086586
C35   C     C_R   0.967837 0.564496 0.049115 0.060626
C36   C     C_R   0.968469 0.552805 0.975117 0.093304
C37   C     C_R   0.509209 0.386472 0.929964 -0.060381
C38   C     C_R   0.485302 0.374824 0.075766 -0.093353
C39   C     C_R   0.032004 0.855431 0.923554 -0.117649
C40   C     C_R   0.008286 0.889886 0.067912 -0.116276
C41   C     C_R   0.036476 0.971290 0.951421 0.036456
C42   C     C_R   0.024629 0.989505 0.025981 0.032042
C43   C     C_R   0.503722 0.492903 0.970654 0.033196
C44   C     C_R   0.494385 0.485626 0.044984 -0.005849
H1    H     H_    0.520035 0.393092 0.873553 0.195642
H2    H     H_    0.470183 0.372979 0.131410 0.130970
H3    H     H_    0.046658 0.839833 0.868343 0.141938
H4    H     H_    0.995464 0.905871 0.123482 0.150494
C45   C     C_R   0.715060 0.984908 0.023142 -0.062471
C46   C     C_R   0.304344 0.893726 0.960176 -0.076279
C47   C     C_R   0.210123 0.477058 0.024385 -0.025408
C48   C     C_R   0.782911 0.367178 0.953585 -0.075156
H5    H     H_    0.681854 0.061674 0.036761 0.115834
H6    H     H_    0.336775 0.839997 0.924266 0.187814
H7    H     H_    0.171558 0.545745 0.038618 0.136784
H8    H     H_    0.807108 0.306512 0.915034 0.201280
C49   C     C_R   0.731589 0.963194 0.952142 0.138769
C50   C     C_R   0.294920 0.853075 0.028517 0.087739
C51   C     C_R   0.223204 0.452552 0.953019 0.140576
C52   C     C_R   0.781886 0.334996 0.024068 0.081443
C53   C     C_R   0.774595 0.864300 0.934763 0.047782
C54   C     C_R   0.253503 0.920541 0.077149 0.052853
C55   C     C_R   0.274976 0.366909 0.934886 0.011455
C56   C     C_R   0.748459 0.412138 0.074282 0.002305
C57   C     C_R   0.806871 0.796276 0.988190 -0.174037
C58   C     C_R   0.222627 0.027590 0.055348 -0.067976
C59   C     C_R   0.313769 0.307797 0.987873 -0.131606
C60   C     C_R   0.717774 0.519751 0.052138 -0.115078
H9    H     H_    0.840701 0.720951 0.973554 0.062265
H10   H     H_    0.191615 0.080296 0.093140 0.173239
H11   H     H_    0.352083 0.239368 0.972722 0.127692
H12   H     H_    0.690639 0.577051 0.090609 0.226951
C61   C     C_R   0.794736 0.823693 0.060094 0.016357
C62   C     C_R   0.225052 0.061569 0.984497 -0.044290
C63   C     C_R   0.299894 0.331314 0.060004 0.012714
C64   C     C_R   0.716999 0.550353 0.980908 -0.044045
C65   C     C_R   0.749154 0.920026 0.076986 0.077245
C66   C     C_R   0.267029 0.993512 0.935818 -0.042881
C67   C     C_R   0.249785 0.420068 0.077396 0.031626
C68   C     C_R   0.755922 0.477267 0.932331 -0.031701
C69   C     C_R   0.506961 0.052604 0.468323 -0.037050
C70   C     C_R   0.520211 0.058968 0.541535 -0.067013
C71   C     C_R   0.991340 0.556651 0.463104 -0.016129
C72   C     C_R   0.009307 0.558289 0.535451 -0.073365
C73   C     C_R   0.505648 0.167616 0.577932 -0.063274
C74   C     C_R   0.504675 0.161529 0.428368 -0.033311
C75   C     C_R   0.000131 0.666616 0.574352 -0.072816
C76   C     C_R   0.997327 0.665395 0.424556 -0.022926
C77   C     C_R   0.501248 0.276735 0.539647 0.068539
C78   C     C_R   0.498597 0.273301 0.464754 0.047594
C79   C     C_R   0.997644 0.777439 0.537286 0.067958
C80   C     C_R   0.995690 0.776562 0.462176 0.047880
C81   C     C_R   0.782628 0.027897 0.473417 -0.101361
C82   C     C_R   0.298058 0.044393 0.513090 -0.168204
C83   C     C_R   0.280760 0.529648 0.473559 -0.096900
C84   C     C_R   0.793939 0.550124 0.512803 -0.192067
H13   H     H_    0.808217 0.104985 0.449896 0.196387
H14   H     H_    0.329400 0.121834 0.528756 0.074246
H15   H     H_    0.304162 0.609142 0.450485 0.201285
H16   H     H_    0.822472 0.630768 0.528347 0.077407
C85   C     C_R   0.783233 0.018829 0.546886 -0.017303
C86   C     C_R   0.289513 0.016550 0.440877 0.039337
C87   C     C_R   0.281624 0.519227 0.546959 -0.023982
C88   C     C_R   0.784812 0.522751 0.440601 0.014955
C89   C     C_R   0.749205 0.919853 0.577905 -0.054880
C90   C     C_R   0.247717 0.916398 0.422701 0.082490
C91   C     C_R   0.250002 0.417387 0.577245 -0.048189
C92   C     C_R   0.747723 0.417184 0.422580 0.074398
C93   C     C_R   0.709919 0.839485 0.535394 -0.122518
C94   C     C_R   0.215649 0.846863 0.475193 -0.141768
C95   C     C_R   0.213879 0.333723 0.533995 -0.090681
C96   C     C_R   0.719072 0.343793 0.475235 -0.145514
H17   H     H_    0.684278 0.762999 0.559486 0.207947
H18   H     H_    0.183500 0.770280 0.459548 0.081976
H19   H     H_    0.190724 0.254369 0.557426 0.201941
H20   H     H_    0.689488 0.264159 0.459708 0.077949
C97   C     C_R   0.708790 0.849244 0.461398 -0.039466
C98   C     C_R   0.223117 0.875184 0.546954 0.050788
C99   C     C_R   0.212385 0.345004 0.460113 -0.011597
C100  C     C_R   0.725833 0.372891 0.546993 0.049737
C101  C     C_R   0.747173 0.943517 0.430202 -0.036783
C102  C     C_R   0.264551 0.976154 0.565531 0.063281
C103  C     C_R   0.247763 0.443122 0.429798 -0.033310
C104  C     C_R   0.764350 0.477294 0.565446 0.056826
I1    I     I_    0.476083 0.887113 0.076486 -0.172574
I2    I     I_    0.552402 0.896895 0.902289 -0.199290
I3    I     I_    0.924025 0.430782 0.118384 -0.161495
I4    I     I_    0.953239 0.376833 0.934843 -0.096332
C105  C     C_2   0.819685 0.113352 0.589866 0.278532
H21   H     H_    0.808898 0.123570 0.646424 0.168410
O53   O     O_2   0.861476 0.182248 0.562441 -0.481227
C106  C     C_2   0.322906 0.096154 0.387513 0.252716
H22   H     H_    0.351017 0.175875 0.405379 0.103125
O54   O     O_2   0.319738 0.074725 0.323622 -0.478451
C107  C     C_2   0.315936 0.615128 0.590645 0.283956
H23   H     H_    0.304770 0.623692 0.647209 0.167417
O55   O     O_2   0.356563 0.686681 0.563835 -0.444258
C108  C     C_2   0.813031 0.607874 0.387148 0.261632
H24   H     H_    0.840062 0.688700 0.405049 0.108420
O56   O     O_2   0.806605 0.589997 0.323153 -0.444016
C109  C     C_2   0.670939 0.756732 0.418242 0.226470
H25   H     H_    0.678690 0.749784 0.361104 0.161798
O57   O     O_2   0.631584 0.684581 0.446368 -0.467889
C110  C     C_2   0.186595 0.796267 0.598897 0.252277
H26   H     H_    0.150805 0.727441 0.579413 0.081810
O58   O     O_2   0.196983 0.803318 0.662978 -0.454559
C111  C     C_2   0.176933 0.251109 0.415971 0.267534
H27   H     H_    0.185934 0.245305 0.358955 0.132369
O59   O     O_2   0.137897 0.177324 0.443032 -0.442136
C112  C     C_2   0.690929 0.291918 0.598979 0.252236
H28   H     H_    0.657840 0.219252 0.579424 0.071865
O60   O     O_2   0.699432 0.301978 0.663223 -0.448269
C113  C     C_2   0.051323 0.062976 0.896977 0.260702
H29   H     H_    0.068425 0.035419 0.843917 0.115950
O61   O     O_2   0.043344 0.169457 0.908171 -0.409583
C114  C     C_2   0.032400 0.104066 0.066133 0.329893
H30   H     H_    0.048861 0.102061 0.121541 0.092528
O62   O     O_2   0.017304 0.200709 0.040730 -0.346375
C115  C     C_2   0.500234 0.609291 0.934263 0.279852
H31   H     H_    0.487775 0.689756 0.964609 0.187948
O63   O     O_2   0.508649 0.616010 0.869844 -0.489806
C116  C     C_2   0.502178 0.587230 0.095018 0.246729
H32   H     H_    0.463144 0.602803 0.136548 0.142699
O64   O     O_2   0.556209 0.645872 0.095464 -0.437155
I5    I     I_    0.702168 0.095023 0.875555 -0.275955
I6    I     I_    0.336644 0.679980 0.041956 -0.389184
I7    I     I_    0.165826 0.551728 0.876095 -0.254772
I8    I     I_    0.840727 0.176093 0.043534 -0.248799
C117  C     C_2   0.826581 0.745703 0.114926 0.229092
H33   H     H_    0.846081 0.657960 0.099302 0.118914
O65   O     O_2   0.830827 0.776801 0.177399 -0.461801
C118  C     C_2   0.181200 0.165470 0.964398 0.227691
H34   H     H_    0.172189 0.187385 0.909920 0.194154
O66   O     O_2   0.153806 0.230311 0.009592 -0.469480
C119  C     C_2   0.332968 0.258012 0.116452 0.213563
H35   H     H_    0.333858 0.290010 0.171312 0.125736
O67   O     O_2   0.357159 0.158372 0.102815 -0.508278
C120  C     C_2   0.671685 0.653862 0.960044 0.242354
H36   H     H_    0.654728 0.667709 0.906062 0.196247
O68   O     O_2   0.650796 0.726484 0.004664 -0.464221
C121  C     C_2   0.494106 0.932324 0.434791 0.348952
H37   H     H_    0.529128 0.857106 0.444393 0.192585
O69   O     O_2   0.444105 0.917123 0.394918 -0.451841
C122  C     C_2   0.549144 0.954756 0.582144 0.256056
H38   H     H_    0.585292 0.972337 0.625815 0.123086
O70   O     O_2   0.530312 0.851297 0.570991 -0.443172
C123  C     C_2   0.959478 0.445009 0.431351 0.303010
H39   H     H_    0.952623 0.365068 0.463089 0.199595
O71   O     O_2   0.935184 0.442956 0.371142 -0.456047
C124  C     C_2   0.042846 0.451776 0.570159 0.253210
H40   H     H_    0.062704 0.459533 0.624224 0.146469
O72   O     O_2   0.052681 0.356756 0.538272 -0.473268
I9    I     I_    0.509792 0.448187 0.593512 -0.101479
I10   I     I_    0.473795 0.435212 0.408069 -0.203064
I11   I     I_    0.009133 0.947030 0.592702 -0.149355
I12   I     I_    0.977792 0.942021 0.406514 -0.174777

loop_
_geom_bond_atom_site_label_1
_geom_bond_atom_site_label_2
_geom_bond_distance
_ccdc_geom_bond_type
O7    Cr3   1.972350 S    
C18   O42   1.288609 A    
Cr11  O51   2.002309 S    
O4    C12   1.269789 A    
C121  O69   1.220338 D    
O47   Cr11  1.951789 S    
C29   C30   1.411026 A    
O39   C19   1.297996 A    
O20   Cr12  2.065751 S    
C97   C109  1.488447 S    
C31   C32   1.399411 A    
C72   C75   1.408860 A    
O8    Cr4   1.950047 S    
C34   I2    2.140978 S    
C77   I9    2.150912 S    
C94   C98   1.386247 A    
O29   Cr1   1.942845 S    
C40   C42   1.400269 A    
C69   C70   1.397507 A    
O1    C9    1.273387 A    
C123  H39   1.082628 S    
C36   I4    2.107252 S    
C109  H25   1.083337 S    
C118  H34   1.067062 S    
O7    C3    1.267603 A    
C71   C123  1.499104 S    
O39   Cr7   1.958061 S    
C108  O56   1.220717 D    
C124  O72   1.219583 D    
O36   Cr8   2.074641 S    
C115  O63   1.221778 D    
C84   H16   1.085711 S    
C119  H35   1.084759 S    
C86   C106  1.486250 S    
C83   H15   1.084234 S    
C59   H11   1.083820 S    
O45   Cr9   1.951789 S    
O30   C14   1.277603 A    
C112  O60   1.219925 D    
C60   H12   1.083874 S    
C123  O71   1.220516 D    
C54   C58   1.388245 A    
C37   H1    1.080979 S    
C118  O66   1.219397 D    
C82   C102  1.402225 A    
C28   C32   1.417680 A    
C70   C122  1.495038 S    
O23   Cr11  1.937153 S    
C14   C91   1.452157 S    
C39   H3    1.083533 S    
C98   C102  1.412983 A    
C81   H13   1.084044 S    
C83   C103  1.406228 A    
O32   Cr4   1.966870 S    
C73   C77   1.417467 A    
O44   Cr12  2.067507 S    
C1    O9    1.267513 A    
C71   C72   1.399655 A    
C49   C53   1.399412 A    
C48   C68   1.385612 A    
C62   C118  1.471655 S    
C24   C104  1.441231 S    
C77   C78   1.405836 A    
C76   C80   1.414261 A    
O21   C9    1.265033 A    
C88   C108  1.486849 S    
C110  H26   1.085392 S    
C105  O53   1.221777 D    
C120  O68   1.219358 D    
C43   C44   1.408447 A    
C38   C44   1.376311 A    
C116  H32   1.085814 S    
O6    Cr2   1.950047 S    
O27   Cr3   2.090746 S    
C27   C36   1.426043 A    
O3    Cr3   2.061064 S    
C48   H8    1.082229 S    
C94   H18   1.086727 S    
C26   C33   1.403134 A    
C98   C110  1.490400 S    
C69   C74   1.430449 A    
C78   I10   2.149320 S    
C18   C73   1.477734 S    
O14   Cr6   1.954006 S    
C33   C34   1.387921 A    
C52   C56   1.412717 A    
Cr6   O50   2.001117 S    
C33   I1    2.106706 S    
O42   Cr10  2.067507 S    
C93   C97   1.393640 A    
C107  H23   1.084566 S    
O18   Cr10  2.065751 S    
O27   C23   1.265656 A    
C121  H37   1.081315 S    
O31   Cr3   1.942845 S    
C58   H10   1.084542 S    
C3    O11   1.272523 A    
C83   C87   1.383113 A    
C50   I6    2.092274 S    
C56   C60   1.394077 A    
C61   C117  1.479852 S    
Cr7   O51   1.992287 S    
C114  H30   1.086156 S    
C57   C61   1.397550 A    
C122  O70   1.220218 D    
C42   C114  1.478269 S    
C26   C30   1.403294 A    
C79   C80   1.409300 A    
C100  C104  1.413175 A    
C5    C26   1.479935 S    
C109  O57   1.221655 D    
C85   C89   1.408438 A    
O24   Cr12  1.951002 S    
O16   Cr8   1.954006 S    
C47   C67   1.402729 A    
O30   Cr2   1.966870 S    
C1    C56   1.443991 S    
C49   I5    2.135464 S    
C108  H24   1.085769 S    
O22   C10   1.311829 A    
C31   C39   1.393254 A    
C63   C119  1.481283 S    
O48   Cr12  1.945844 S    
C4    O12   1.290491 A    
C3    C54   1.451665 S    
C47   C51   1.384588 A    
C115  H31   1.078311 S    
C39   C41   1.385409 A    
C2    O10   1.286330 A    
C29   C37   1.406252 A    
C40   H4    1.082341 S    
C23   C103  1.450723 S    
C97   C101  1.410302 A    
C112  H28   1.085535 S    
C15   O35   1.265123 A    
C4    C53   1.440237 S    
O26   Cr2   2.068716 S    
C9    C65   1.442371 S    
C113  H29   1.086323 S    
C19   C76   1.481824 S    
C25   C34   1.403778 A    
C91   C95   1.407458 A    
O13   C5    1.294399 A    
Cr4   O52   1.975920 S    
O28   Cr4   2.068716 S    
C47   H7    1.084781 S    
O43   Cr11  2.056660 S    
O48   C24   1.299713 A    
O12   Cr8   2.060053 S    
C20   C75   1.482725 S    
Cr12  O52   1.993066 S    
C50   C54   1.409199 A    
O15   C7    1.270621 A    
O5    C1    1.268150 A    
C124  H40   1.085061 S    
C53   C57   1.401637 A    
O10   Cr6   2.060053 S    
O46   Cr10  1.945844 S    
C70   C73   1.404614 A    
C79   I11   2.151662 S    
O25   C21   1.267702 A    
C96   H20   1.086691 S    
C100  C112  1.490712 S    
C111  H27   1.083837 S    
O3    C11   1.271672 A    
O8    C4    1.313303 A    
C17   C74   1.484005 S    
C64   C120  1.487912 S    
O13   Cr5   1.945274 S    
C13   O33   1.264514 A    
C61   C65   1.404689 A    
C45   C49   1.385732 A    
C63   C67   1.400928 A    
C119  O67   1.219338 D    
C46   H6    1.083213 S    
Cr2   O50   1.975920 S    
O15   Cr7   1.945274 S    
C117  O65   1.220553 D    
Cr1   O49   1.976127 S    
C52   I8    2.118164 S    
C6    O18   1.284235 A    
C45   H5    1.084878 S    
O25   Cr1   2.090746 S    
O26   C22   1.291841 A    
C111  O59   1.221532 D    
O21   Cr9   1.937153 S    
C86   C90   1.407901 A    
O31   C15   1.271645 A    
C7    O19   1.293743 A    
C69   C121  1.490401 S    
C32   C40   1.405057 A    
O9    Cr5   2.081623 S    
C62   C66   1.419064 A    
O37   Cr5   1.958061 S    
O38   C18   1.282083 A    
C57   H9    1.083894 S    
C38   H2    1.082453 S    
C85   C105  1.489466 S    
C113  O61   1.206597 D    
C84   C104  1.402013 A    
C81   C85   1.382994 A    
C2    C55   1.441774 S    
C58   C62   1.386486 A    
C8    C27   1.478526 S    
C21   C101  1.453423 S    
C51   C55   1.402115 A    
O34   Cr6   2.074641 S    
C15   C90   1.438770 S    
C122  H38   1.085845 S    
C82   C86   1.395635 A    
C8    O20   1.256318 A    
C95   C99   1.393247 A    
C117  H33   1.077177 S    
C88   C92   1.408049 A    
Cr3   O51   1.976127 S    
C46   C66   1.393424 A    
C5    O17   1.275255 A    
C10   C66   1.462351 S    
O37   C17   1.303249 A    
O22   Cr10  1.951002 S    
O28   C24   1.291523 A    
C120  H36   1.075476 S    
O14   C6    1.289621 A    
C19   O43   1.280001 A    
O5    Cr1   1.972350 S    
C87   C107  1.488866 S    
C64   C68   1.416963 A    
C81   C101  1.406146 A    
C106  H22   1.085513 S    
O17   Cr9   2.070284 S    
O2    Cr2   2.087272 S    
O6    C2    1.314226 A    
C95   H19   1.083798 S    
O24   C12   1.314158 A    
C17   O41   1.273866 A    
C90   C94   1.398739 A    
O11   Cr7   2.081623 S    
C60   C64   1.382548 A    
C41   C42   1.427973 A    
C14   O34   1.271382 A    
C116  O64   1.217366 D    
C75   C79   1.420701 A    
O40   Cr8   1.940032 S    
C35   C36   1.392528 A    
C87   C91   1.407745 A    
C114  O62   1.212035 D    
C20   O44   1.287910 A    
O1    Cr1   2.061064 S    
C55   C59   1.404636 A    
O19   Cr11  2.070284 S    
C71   C76   1.419267 A    
C12   C68   1.443206 S    
C22   C102  1.441147 S    
C13   C92   1.439137 S    
Cr8   O52   2.001117 S    
O32   C16   1.278793 A    
Cr10  O50   1.993066 S    
C72   C124  1.496076 S    
C41   C113  1.478022 S    
C35   I3    2.153408 S    
C89   C93   1.406902 A    
O2    C10   1.293895 A    
O46   C22   1.298554 A    
C44   C116  1.466785 S    
O45   C21   1.274176 A    
O23   C11   1.266426 A    
C6    C25   1.478750 S    
O33   Cr5   2.063164 S    
O47   C23   1.274833 A    
C84   C88   1.395702 A    
C45   C65   1.404195 A    
C25   C29   1.416462 A    
O35   Cr7   2.063164 S    
O4    Cr4   2.087272 S    
C106  O54   1.220648 D    
C59   C63   1.399170 A    
C82   H14   1.085757 S    
Cr5   O49   1.992287 S    
C16   C89   1.454044 S    
C46   C50   1.375699 A    
C43   C115  1.469437 S    
O40   C20   1.284937 A    
C16   O36   1.271595 A    
C96   C100  1.386750 A    
C51   I7    2.123535 S    
C30   C38   1.397802 A    
C27   C31   1.396075 A    
C110  O58   1.220006 D    
C105  H21   1.084596 S    
C74   C78   1.412872 A    
C37   C43   1.402074 A    
C107  O55   1.221753 D    
O29   C13   1.272327 A    
C7    C28   1.464997 S    
O41   Cr9   2.056660 S    
O38   Cr6   1.940032 S    
C93   H17   1.083706 S    
C48   C52   1.373676 A    
C99   C111  1.487602 S    
O16   C8    1.306884 A    
Cr9   O49   2.002309 S    
C99   C103  1.407553 A    
C92   C96   1.398795 A    
C28   C35   1.386845 A    
C11   C67   1.439944 S    
C80   I12   2.148963 S    
