data_mof_unit_45850.cif
_audit_creation_date              2012-12-11T15:41:29-0500
_audit_creation_method            fapswitch 2.2
_symmetry_space_group_name_H-M    P1
_symmetry_Int_Tables_number       1
_space_group_crystal_system       triclinic
_cell_length_a                    15.208744
_cell_length_b                    15.118169
_cell_length_c                    15.094772
_cell_angle_alpha                 109.065675
_cell_angle_beta                  110.154298
_cell_angle_gamma                 110.493848
_cell_volume                      2627.68307163

loop_
_atom_site_label
_atom_site_type_symbol
_atom_type_description
_atom_site_fract_x
_atom_site_fract_y
_atom_site_fract_z
_atom_type_partial_charge
C1    C     C_R   0.199298 0.001162 0.912159 -0.038376
C2    C     C_R   0.650031 0.771130 0.429344 -0.282071
C3    C     C_R   0.411289 0.321483 0.730500 0.012106
C4    C     C_R   0.585262 0.686986 0.318981 0.011079
C5    C     C_R   0.363392 0.333873 0.796415 -0.019610
C6    C     C_R   0.632145 0.682554 0.251809 -0.008789
C7    C     C_R   0.248085 0.266029 0.747501 -0.112471
C8    C     C_R   0.746040 0.756589 0.300187 -0.118558
C9    C     C_R   0.184009 0.185085 0.635844 -0.035367
C10   C     C_R   0.807858 0.839693 0.410955 0.000227
C11   C     C_R   0.231938 0.171577 0.572822 -0.123033
C12   C     C_R   0.771959 0.958995 0.050315 -0.065632
C13   C     C_R   0.759688 0.847591 0.474306 -0.038987
C14   C     C_R   0.426587 0.514786 0.942653 -0.220439
C15   C     C_R   0.569993 0.501750 0.105346 -0.219891
C16   C     C_R   0.806987 0.208512 0.297625 -0.246836
C17   C     C_R   0.257105 0.775326 0.687096 -0.142557
C18   C     C_R   0.492867 0.601537 0.051549 0.137194
C19   C     C_R   0.504188 0.416062 0.996444 0.151608
C20   C     C_R   0.565237 0.595648 0.134300 0.070606
C21   C     C_R   0.431483 0.421483 0.913949 0.050044
C22   C     C_R   0.050670 0.471150 0.377065 -0.179255
C23   C     C_R   0.871490 0.303311 0.302837 -0.129886
C24   C     C_R   0.135683 0.467619 0.569743 -0.156061
C25   C     C_R   0.141064 0.566027 0.472665 -0.182582
C26   C     C_R   0.040673 0.375209 0.476495 -0.192175
C27   C     C_R   0.174045 0.568065 0.572526 0.177692
C28   C     C_R   0.989862 0.381416 0.383382 0.167503
C29   C     C_R   0.565409 0.156892 0.610954 0.413867
C30   C     C_R   0.429972 0.959057 0.408240 0.420991
C31   C     C_R   0.559938 0.157955 0.516949 0.396311
C32   C     C_R   0.421845 0.960827 0.497138 0.387172
C33   C     C_R   0.496236 0.057902 0.417789 -0.368351
C34   C     C_R   0.228523 0.671984 0.675556 -0.169983
C35   C     C_R   0.494050 0.058689 0.599147 -0.361687
C36   C     C_R   0.081848 0.048999 0.039498 -0.116829
C37   C     C_R   0.864290 0.874686 0.891359 -0.068754
C38   C     C_R   0.999461 0.060342 0.048579 -0.107847
C39   C     C_R   0.947218 0.863172 0.882379 -0.156307
C40   C     C_R   0.413083 0.985488 0.221184 0.003967
C41   C     C_R   0.589694 0.087036 0.787012 -0.110455
C42   C     C_R   0.891772 0.973466 0.973858 0.232985
C43   C     C_R   0.054695 0.950940 0.956342 0.178009
C44   C     C_R   0.592734 0.308513 0.015847 -0.111887
C45   C     C_R   0.504823 0.051846 0.324741 0.060459
C46   C     C_R   0.408323 0.704728 0.009592 -0.030979
C47   C     C_R   0.594453 0.059778 0.315679 0.015043
C48   C     C_R   0.408319 0.002425 0.700071 0.030143
C49   C     C_R   0.410015 0.219122 0.931697 -0.126421
C50   C     C_R   0.588799 0.792014 0.095928 -0.072155
C51   C     C_R   0.803132 0.303809 0.214010 0.607039
C52   C     C_R   0.247870 0.685072 0.777224 0.593697
C53   C     C_R   0.199146 0.908029 0.000204 -0.080346
C54   C     C_R   0.772813 0.051159 0.959529 -0.057819
C55   C     C_R   0.141564 0.944624 0.947507 -0.094025
C56   C     C_R   0.497872 0.053117 0.693372 0.169910
C57   C     C_R   0.807536 0.984895 0.984655 -0.042955
C58   C     C_2   0.150914 0.024497 0.826102 0.513120
C59   C     C_2   0.825232 0.932124 0.130565 0.475785
C60   C     C_2   0.528786 0.395048 0.770718 0.534054
C61   C     C_2   0.471478 0.603849 0.280629 0.439425
C62   C     C_2   0.193586 0.278262 0.812009 0.506848
C63   C     C_2   0.801885 0.747089 0.236804 0.479238
C64   C     C_3   0.744064 0.290348 0.746916 -0.120015
C65   C     C_3   0.432588 0.809206 0.314048 -0.124398
C66   C     C_3   0.559284 0.294375 0.484395 -0.188281
C67   C     C_R   0.502356 0.316877 0.975223 0.035474
C68   C     C_3   0.244303 0.813801 0.407274 -0.111232
C69   C     C_2   0.698066 0.085866 0.402945 0.450354
C70   C     C_2   0.301131 0.989556 0.638325 0.465822
C71   C     C_3   0.826914 0.470396 0.252567 -0.342558
C72   C     C_3   0.106043 0.574578 0.781718 -0.239374
C73   C     C_2   0.151870 0.817689 0.019429 0.424990
C74   C     C_2   0.826306 0.131537 0.932492 0.472900
C75   C     C_R   0.497392 0.701767 0.068261 -0.046250
C76   C     C_R   0.344321 0.238763 0.619578 -0.256542
H1    H     H_    0.378898 0.226588 0.568050 0.105488
H2    H     H_    0.003218 0.303534 0.482105 0.134353
H3    H     H_    0.166357 0.116163 0.096277 0.115683
H4    H     H_    0.779657 0.807889 0.834883 0.114070
H5    H     H_    0.837704 0.173335 0.342629 0.179698
H6    H     H_    0.254142 0.794913 0.624275 0.176705
H7    H     H_    0.018824 0.135879 0.112826 0.105081
H8    H     H_    0.928400 0.787816 0.818447 0.113401
H9    H     H_    0.330592 0.960775 0.202781 0.143445
H10   H     H_    0.672271 0.142178 0.812432 0.125767
H11   H     H_    0.675420 0.367187 0.043522 0.178309
H12   H     H_    0.615803 0.777092 0.481720 0.128562
H13   H     H_    0.324914 0.651724 0.985791 0.182851
H14   H     H_    0.327436 0.201169 0.894693 0.075396
H15   H     H_    0.671591 0.818509 0.150699 0.096412
H16   H     H_    0.181578 0.108573 0.486969 0.139274
H17   H     H_    0.808376 0.911909 0.559590 0.164496
H18   H     H_    0.188765 0.039718 0.780175 0.077681
H19   H     H_    0.828214 0.961420 0.208011 0.039350
H20   H     H_    0.558320 0.382307 0.714589 0.056769
H21   H     H_    0.443012 0.610722 0.337979 0.018956
H22   H     H_    0.241541 0.334319 0.899872 0.054214
H23   H     H_    0.096274 0.131627 0.596914 0.157969
H24   H     H_    0.755418 0.687890 0.149761 0.071692
H25   H     H_    0.773401 0.346395 0.717548 0.180866
H26   H     H_    0.760680 0.222937 0.720689 0.119010
H27   H     H_    0.793214 0.338702 0.837798 0.153367
H28   H     H_    0.442399 0.785621 0.377723 0.132771
H29   H     H_    0.514293 0.862007 0.328225 0.133280
H30   H     H_    0.387470 0.733418 0.233323 0.173273
H31   H     H_    0.612859 0.373877 0.495171 0.160622
H32   H     H_    0.497222 0.237988 0.395448 0.130068
H33   H     H_    0.518238 0.309689 0.530899 0.111545
H34   H     H_    0.894188 0.898581 0.449164 0.152305
H35   H     H_    0.222495 0.742000 0.333526 0.188946
H36   H     H_    0.223929 0.869932 0.383870 0.122736
H37   H     H_    0.191083 0.783034 0.438131 0.128953
H38   H     H_    0.731757 0.144668 0.487669 0.060332
H39   H     H_    0.287967 0.015548 0.578491 0.033930
H40   H     H_    0.891071 0.512827 0.340257 0.167672
H41   H     H_    0.745257 0.442079 0.245152 0.139615
H42   H     H_    0.841546 0.531637 0.225837 0.195968
H43   H     H_    0.045351 0.532915 0.692823 0.140979
H44   H     H_    0.103174 0.646869 0.827507 0.159583
H45   H     H_    0.374065 0.521248 0.878073 0.148300
H46   H     H_    0.081040 0.516273 0.810140 0.189981
H47   H     H_    0.073087 0.791692 0.013885 0.052453
H48   H     H_    0.829421 0.208963 0.961984 0.015945
H49   H     H_    0.622186 0.493970 0.168653 0.112328
H50   H     H_    0.023405 0.473566 0.302289 0.184450
H51   H     H_    0.169953 0.461473 0.641413 0.181990
H52   H     H_    0.177665 0.639052 0.469056 0.129652
N1    N     N_R   0.293810 0.002730 0.945950 -0.081825
N2    N     N_R   0.443210 0.997250 0.791090 -0.061847
N3    N     N_R   0.443180 0.152110 0.945950 -0.050901
N4    N     N_R   0.556820 0.847890 0.054050 -0.056498
N5    N     N_R   0.706170 0.208950 0.152090 -0.100789
N6    N     N_R   0.293830 0.791050 0.847910 -0.097137
N7    N     N_R   0.293800 0.945910 0.002760 -0.054753
N8    N     N_R   0.706200 0.054090 0.997240 -0.085654
N9    N     N_R   0.706190 0.997270 0.054050 -0.079223
N10   N     N_R   0.706160 0.152130 0.208910 -0.071033
N11   N     N_R   0.293840 0.847870 0.791090 -0.061416
N12   N     N_R   0.443140 0.945920 0.152090 -0.044004
N13   N     N_R   0.556860 0.054080 0.847910 -0.072698
N14   N     N_R   0.556830 0.208940 0.002760 -0.049314
N15   N     N_R   0.443170 0.791060 0.997240 -0.050801
N16   N     N_R   0.556790 0.002750 0.208910 -0.059926
Ni1   Ni    Ni4+2 0.369690 0.999990 0.869700 0.238860
Ni2   Ni    Ni4+2 0.630310 0.000010 0.130300 0.224954
Ni3   Ni    Ni4+2 0.369670 0.869670 0.000000 0.277900
Ni4   Ni    Ni4+2 0.630330 0.130330 0.000000 0.217465
O1    O     O_2   0.065867 0.024720 0.803763 -0.532545
O2    O     O_3   0.355416 0.864322 0.489473 -0.631480
O3    O     O_2   0.743763 0.037146 0.381291 -0.618061
O4    O     O_2   0.226100 0.948822 0.652091 -0.635619
O5    O     O_3   0.830758 0.382719 0.185545 -0.652270
O6    O     O_3   0.212276 0.603370 0.800670 -0.668071
O7    O     O_2   0.199243 0.769855 0.039336 -0.573165
O8    O     O_2   0.868761 0.113112 0.878816 -0.539731
O9    O     O_2   0.868820 0.879844 0.112467 -0.557151
O10   O     O_2   0.593723 0.471365 0.864775 -0.587270
O11   O     O_2   0.408285 0.527146 0.186537 -0.582559
O12   O     O_2   0.093780 0.225372 0.767638 -0.534128
O13   O     O_2   0.901223 0.805386 0.281345 -0.559920
O14   O     O_3   0.632437 0.251919 0.713023 -0.622308
O15   O     O_3   0.370909 0.860302 0.310656 -0.594817
O16   O     O_3   0.625124 0.254161 0.524492 -0.616442

loop_
_geom_bond_atom_site_label_1
_geom_bond_atom_site_label_2
_ccdc_geom_bond_type
C64   H27   S    
C74   H48   S    
C47   N16   A    
C15   C19   A    
C18   C75   S    
C38   H7    S    
C33   C45   S    
C14   C18   A    
C53   N7    A    
C24   C27   A    
C49   H14   S    
C48   N2    A    
C41   C56   A    
C46   H13   S    
C64   H26   S    
C41   H10   S    
C49   N3    A    
C26   H2    S    
C14   C21   A    
C19   C21   A    
C25   H52   S    
C60   O10   D    
C39   H8    S    
C38   C42   A    
C1    N1    A    
C11   C76   A    
C61   O11   D    
C22   H50   S    
C52   O6    S    
C71   O5    S    
N1    N7    A    
C52   N6    A    
C42   C57   S    
C48   C56   A    
C17   H6    S    
C68   H36   S    
C37   C42   A    
N2    N13   A    
C2    C13   A    
C47   C69   S    
N13   Ni4   S    
C54   C74   S    
C12   C59   S    
C11   H16   S    
C51   O5    S    
C59   O9    D    
C73   H47   S    
C22   C25   A    
C24   H51   S    
C31   C33   A    
C19   C67   S    
C44   H11   S    
C66   H31   S    
C16   N10   A    
N1    Ni1   S    
C30   C33   A    
C58   O1    D    
C68   H37   S    
C3    C60   S    
N4    N15   A    
C45   C47   A    
N5    N10   A    
C9    H23   S    
C14   H45   S    
C62   H22   S    
N2    Ni1   S    
C73   O7    D    
C40   C45   A    
C59   H19   S    
C30   O15   S    
N12   Ni3   S    
C65   H29   S    
C46   C75   A    
C53   C55   A    
C27   C34   S    
C15   C20   A    
C37   C39   A    
C37   H4    S    
C53   C73   S    
C69   H38   S    
C72   O6    S    
C71   H41   S    
C74   O8    D    
C69   O3    D    
C32   C35   A    
N14   Ni4   S    
N9    Ni2   S    
C70   O4    D    
C76   H1    S    
C64   O14   S    
C48   C70   S    
N6    N11   A    
C5    C7    A    
C6    C8    A    
C64   H25   S    
C4    C61   S    
C10   C13   A    
C13   H17   S    
C68   H35   S    
C40   H9    S    
N3    Ni1   S    
C2    C4    A    
C7    C62   S    
C41   N13   A    
C63   H24   S    
N6    Ni3   S    
C23   C51   A    
C54   N8    A    
C65   O15   S    
C36   C43   A    
C66   O16   S    
C17   N11   A    
N5    Ni4   S    
C23   C28   S    
C2    H12   S    
C3    C76   A    
C9    C11   A    
N8    Ni4   S    
N3    N14   A    
C50   N4    A    
C32   O2    S    
C12   C57   A    
C60   H20   S    
N16   Ni2   S    
N15   Ni3   S    
C16   C23   A    
N7    Ni3   S    
C72   H44   S    
C62   O12   D    
C4    C6    A    
C17   C34   A    
C65   H30   S    
C43   C55   S    
C63   O13   D    
C31   O16   S    
N11   Ni1   S    
C49   C67   A    
C71   H42   S    
C72   H46   S    
C35   C56   S    
C34   C52   A    
C29   O14   S    
C8    C10   A    
C61   H21   S    
N12   N16   A    
C66   H32   S    
N8    N9    A    
C3    C5    A    
C36   H3    S    
C39   C43   A    
C46   N15   A    
C70   H39   S    
C25   C27   A    
C6    C20   S    
C29   C35   A    
C26   C28   A    
N4    Ni2   S    
C36   C38   A    
C1    C55   A    
C29   C31   A    
C50   C75   A    
C30   C32   A    
C51   N5    A    
C24   C26   A    
N10   Ni2   S    
C40   N12   A    
C72   H43   S    
C16   H5    S    
C71   H40   S    
C10   H34   S    
C18   C20   A    
C66   H33   S    
C58   H18   S    
C68   O2    S    
C8    C63   S    
C7    C9    A    
C50   H15   S    
C5    C21   S    
C44   N14   A    
C15   H49   S    
C12   N9    A    
C44   C67   A    
C22   C28   A    
C65   H28   S    
C1    C58   S    
C54   C57   A    
