data_mof_unit_62605.cif
_audit_creation_date              2012-12-10T17:48:25-0500
_audit_creation_method            fapswitch 2.2
_symmetry_space_group_name_H-M    P1
_symmetry_Int_Tables_number       1
_space_group_crystal_system       triclinic
_cell_length_a                    26.119621
_cell_length_b                    27.675181
_cell_length_c                    27.672262
_cell_angle_alpha                 89.982566
_cell_angle_beta                  89.895226
_cell_angle_gamma                 89.927366
_cell_volume                      20003.265849

loop_
_atom_site_label
_atom_site_type_symbol
_atom_type_description
_atom_site_fract_x
_atom_site_fract_y
_atom_site_fract_z
_atom_type_partial_charge
C1    C     C_R   0.391441 0.999299 0.250330 0.499959
C2    C     C_R   0.891389 0.000285 0.250296 0.514738
C3    C     C_R   0.750006 0.999965 0.620813 0.503761
C4    C     C_R   0.749974 0.499971 0.379172 0.494109
C5    C     C_R   0.749999 0.500030 0.620829 0.498275
C6    C     C_R   0.249991 0.500012 0.379187 0.495370
C7    C     C_R   0.250006 0.499966 0.620813 0.503761
C8    C     C_R   0.749974 0.999971 0.879172 0.494109
C9    C     C_R   0.749999 0.000030 0.120829 0.498274
C10   C     C_R   0.249991 0.000012 0.879187 0.495370
C11   C     C_R   0.250006 0.999966 0.120813 0.503761
C12   C     C_R   0.249974 0.499971 0.879172 0.494109
C13   C     C_R   0.108542 0.000106 0.749837 0.543945
C14   C     C_R   0.249999 0.500030 0.120829 0.498274
C15   C     C_R   0.749991 0.500012 0.879187 0.495370
C16   C     C_R   0.750006 0.499966 0.120813 0.503761
C17   C     C_R   0.249952 0.129169 0.250006 0.506071
C18   C     C_R   0.250005 0.129192 0.750022 0.503139
C19   C     C_R   0.750005 0.129192 0.250022 0.503139
C20   C     C_R   0.749952 0.129169 0.750006 0.506070
C21   C     C_R   0.749952 0.629169 0.250006 0.506071
C22   C     C_R   0.750005 0.629192 0.750022 0.503137
C23   C     C_R   0.250005 0.629192 0.250022 0.503140
C24   C     C_R   0.108488 0.000219 0.250358 0.541423
C25   C     C_R   0.249952 0.629169 0.750006 0.506070
C26   C     C_R   0.250020 0.870781 0.249997 0.491285
C27   C     C_R   0.249979 0.870801 0.750043 0.499534
C28   C     C_R   0.749979 0.870801 0.250043 0.499534
C29   C     C_R   0.750020 0.870781 0.749997 0.491285
C30   C     C_R   0.750020 0.370781 0.249997 0.491286
C31   C     C_R   0.749979 0.370801 0.750043 0.499535
C32   C     C_R   0.249979 0.370801 0.250043 0.499534
C33   C     C_R   0.250020 0.370781 0.749997 0.491285
C34   C     C_1   0.250088 0.818995 0.250019 0.014203
C35   C     C_R   0.391441 0.499299 0.750330 0.499958
C36   C     C_1   0.249929 0.819003 0.750100 0.014653
C37   C     C_1   0.749929 0.819003 0.250100 0.014653
C38   C     C_1   0.750088 0.818995 0.750019 0.014203
C39   C     C_1   0.750088 0.318995 0.250019 0.014204
C40   C     C_1   0.749929 0.319003 0.750100 0.014653
C41   C     C_1   0.249929 0.319003 0.250100 0.014654
C42   C     C_1   0.250088 0.318995 0.750019 0.014202
C43   C     C_1   0.250104 0.775470 0.250045 -0.029666
C44   C     C_1   0.249867 0.775472 0.750093 -0.030279
C45   C     C_1   0.749867 0.775472 0.250093 -0.030279
C46   C     C_R   0.391389 0.500285 0.250296 0.514738
C47   C     C_1   0.750104 0.775470 0.750046 -0.029666
C48   C     C_1   0.750104 0.275470 0.250045 -0.029665
C49   C     C_1   0.749867 0.275472 0.750093 -0.030280
C50   C     C_1   0.249867 0.275472 0.250093 -0.030279
C51   C     C_1   0.250104 0.275470 0.750046 -0.029666
C52   C     C_1   0.250075 0.724509 0.250067 -0.028891
C53   C     C_1   0.249832 0.724502 0.750052 -0.030802
C54   C     C_1   0.749832 0.724502 0.250052 -0.030802
C55   C     C_1   0.750075 0.724509 0.750067 -0.028891
C56   C     C_1   0.750075 0.224509 0.250067 -0.028891
C57   C     C_R   0.608542 0.500106 0.749837 0.543946
C58   C     C_1   0.749832 0.224501 0.750052 -0.030803
C59   C     C_1   0.249832 0.224502 0.250052 -0.030802
C60   C     C_1   0.250075 0.224509 0.750067 -0.028891
C61   C     C_1   0.250033 0.680982 0.250063 0.019321
C62   C     C_1   0.249859 0.680969 0.750018 0.014385
C63   C     C_1   0.749859 0.680969 0.250018 0.014385
C64   C     C_1   0.750033 0.680982 0.750063 0.019320
C65   C     C_1   0.750033 0.180982 0.250063 0.019321
C66   C     C_1   0.749859 0.180969 0.750018 0.014385
C67   C     C_1   0.249859 0.180969 0.250018 0.014385
C68   C     C_R   0.608488 0.500219 0.250358 0.541423
C69   C     C_1   0.250033 0.180982 0.750063 0.019320
C70   C     C_3   0.030999 0.981321 0.198522 0.110688
C71   C     C_3   0.030335 0.999752 0.693793 0.105978
C72   C     C_3   0.969587 0.987697 0.196312 0.084270
C73   C     C_3   0.969223 0.991689 0.694700 0.099099
C74   C     C_3   0.530999 0.481321 0.198522 0.110688
C75   C     C_3   0.530335 0.499756 0.693794 0.105977
C76   C     C_3   0.469587 0.487697 0.196312 0.084270
C77   C     C_3   0.469223 0.491692 0.694700 0.099097
C78   C     C_3   0.530999 0.981321 0.698522 0.110688
C79   C     C_3   0.028400 0.964232 0.290299 -0.154082
C80   C     C_3   0.530335 0.999752 0.193793 0.105978
C81   C     C_3   0.469587 0.987697 0.696312 0.084270
C82   C     C_3   0.469223 0.991688 0.194700 0.099099
C83   C     C_3   0.030999 0.481321 0.698522 0.110688
C84   C     C_3   0.030335 0.499748 0.193793 0.105979
C85   C     C_3   0.969587 0.487698 0.696312 0.084270
C86   C     C_3   0.969223 0.491685 0.194701 0.099100
C87   C     C_3   0.092828 0.913753 0.171009 -0.277892
C88   C     C_3   0.094105 0.058384 0.653758 -0.277875
C89   C     C_3   0.953325 0.928322 0.128284 -0.286087
C90   C     C_3   0.028431 0.046436 0.774774 -0.155212
C91   C     C_3   0.950124 0.021295 0.609988 -0.281326
C92   C     C_3   0.592828 0.413754 0.171008 -0.277892
C93   C     C_3   0.594105 0.558390 0.653762 -0.277879
C94   C     C_3   0.453325 0.428323 0.128284 -0.286087
C95   C     C_3   0.450124 0.521304 0.609990 -0.281327
C96   C     C_3   0.592828 0.913754 0.671008 -0.277892
C97   C     C_3   0.594105 0.058383 0.153757 -0.277875
C98   C     C_3   0.453325 0.928323 0.628283 -0.286088
C99   C     C_3   0.450124 0.021293 0.109988 -0.281325
C100  C     C_3   0.092828 0.413754 0.671008 -0.277893
C101  C     C_3   0.969409 0.959801 0.285554 -0.140616
C102  C     C_3   0.094105 0.558377 0.153753 -0.277871
C103  C     C_3   0.953324 0.428323 0.628283 -0.286087
C104  C     C_3   0.950124 0.521285 0.109987 -0.281325
C105  C     C_1   0.055532 0.007683 0.157219 0.253993
C106  C     C_1   0.054292 0.961533 0.662805 0.260428
C107  C     C_1   0.953250 0.025705 0.161271 0.198099
C108  C     C_1   0.953725 0.942695 0.677018 0.257642
C109  C     C_1   0.555532 0.507683 0.157219 0.253995
C110  C     C_1   0.554292 0.461538 0.662803 0.260427
C111  C     C_1   0.453250 0.525706 0.161272 0.198099
C112  C     C_R   0.391389 0.000285 0.750296 0.514738
C113  C     C_3   0.969382 0.047925 0.769794 -0.156931
C114  C     C_1   0.453725 0.442699 0.677015 0.257640
C115  C     C_1   0.555532 0.007683 0.657219 0.253994
C116  C     C_1   0.554292 0.961532 0.162806 0.260428
C117  C     C_1   0.453250 0.025706 0.661272 0.198099
C118  C     C_1   0.453725 0.942694 0.177019 0.257642
C119  C     C_1   0.055532 0.507684 0.657219 0.253994
C120  C     C_1   0.054292 0.461527 0.162808 0.260430
C121  C     C_1   0.953250 0.525706 0.661272 0.198099
C122  C     C_1   0.953725 0.442690 0.177022 0.257643
C123  C     C_1   0.053910 0.916285 0.294652 0.242854
C124  C     C_3   0.528400 0.464232 0.290299 -0.154082
C125  C     C_1   0.053916 0.092854 0.762547 0.220895
C126  C     C_1   0.951097 0.910243 0.273996 0.232106
C127  C     C_1   0.949701 0.090556 0.742931 0.227639
C128  C     C_1   0.553910 0.416285 0.294652 0.242854
C129  C     C_1   0.553916 0.592853 0.762553 0.220896
C130  C     C_1   0.451097 0.410243 0.273996 0.232107
C131  C     C_1   0.449701 0.590557 0.742936 0.227643
C132  C     C_1   0.553910 0.916285 0.794652 0.242854
C133  C     C_1   0.553916 0.092854 0.262546 0.220895
C134  C     C_1   0.451097 0.910243 0.773996 0.232107
C135  C     C_3   0.528431 0.546435 0.774777 -0.155212
C136  C     C_1   0.449701 0.090556 0.242929 0.227638
C137  C     C_1   0.053910 0.416284 0.794651 0.242854
C138  C     C_1   0.053916 0.592855 0.262540 0.220893
C139  C     C_1   0.951097 0.410243 0.773996 0.232106
C140  C     C_1   0.949701 0.590556 0.242924 0.227635
C141  C     C_3   0.077917 0.056784 0.346515 -0.329772
C142  C     C_3   0.068661 0.979483 0.863513 -0.302703
C143  C     C_3   0.906591 0.052963 0.343158 -0.288791
C144  C     C_3   0.955295 0.929667 0.873248 -0.289106
C145  C     C_3   0.577917 0.556784 0.346515 -0.329771
C146  C     C_3   0.469409 0.459801 0.285554 -0.140617
C147  C     C_3   0.568662 0.479476 0.863512 -0.302705
C148  C     C_3   0.406591 0.552963 0.343158 -0.288791
C149  C     C_3   0.455296 0.429661 0.873245 -0.289106
C150  C     C_3   0.577917 0.056784 0.846515 -0.329771
C151  C     C_3   0.568661 0.979484 0.363514 -0.302703
C152  C     C_3   0.406591 0.052963 0.843158 -0.288791
C153  C     C_3   0.455295 0.929669 0.373249 -0.289106
C154  C     C_3   0.077917 0.556784 0.846515 -0.329772
C155  C     C_3   0.068659 0.479490 0.363515 -0.302700
C156  C     C_3   0.906591 0.552963 0.843158 -0.288791
C157  C     C_3   0.469381 0.547924 0.769796 -0.156930
C158  C     C_3   0.955294 0.429675 0.373253 -0.289105
C159  C     C_3   0.080586 0.121123 0.216275 -0.234998
C160  C     C_3   0.089261 0.878738 0.758035 -0.258277
C161  C     C_3   0.947357 0.141783 0.269769 -0.298814
C162  C     C_3   0.893731 0.895733 0.785757 -0.247114
C163  C     C_3   0.580586 0.621123 0.216276 -0.234997
C164  C     C_3   0.589260 0.378736 0.758028 -0.258276
C165  C     C_3   0.447357 0.641783 0.269769 -0.298814
C166  C     C_3   0.393731 0.395730 0.785753 -0.247113
C167  C     C_3   0.580586 0.121123 0.716276 -0.234998
C168  C     C_3   0.528400 0.964231 0.790299 -0.154082
C169  C     C_3   0.589262 0.878739 0.258036 -0.258278
C170  C     C_3   0.447357 0.141783 0.769769 -0.298815
C171  C     C_3   0.393730 0.895733 0.285758 -0.247116
C172  C     C_3   0.080586 0.621123 0.716276 -0.234998
C173  C     C_3   0.089263 0.378740 0.258042 -0.258279
C174  C     C_3   0.947357 0.641783 0.769769 -0.298814
C175  C     C_3   0.893730 0.395736 0.285762 -0.247119
C176  C     C_3   0.528431 0.046437 0.274773 -0.155212
C177  C     C_3   0.469409 0.959801 0.785554 -0.140617
C178  C     C_3   0.469382 0.047925 0.269793 -0.156931
C179  C     C_3   0.028400 0.464231 0.790299 -0.154082
C180  C     C_R   0.608542 0.000106 0.249837 0.543946
C181  C     C_3   0.028431 0.546438 0.274770 -0.155212
C182  C     C_3   0.969409 0.459801 0.785554 -0.140617
C183  C     C_3   0.969382 0.547926 0.269790 -0.156932
C184  C     C_3   0.030417 0.054492 0.261808 0.269043
C185  C     C_3   0.031773 0.952276 0.778173 0.271101
C186  C     C_3   0.969197 0.051783 0.272136 0.262358
C187  C     C_3   0.969788 0.954945 0.785176 0.263255
C188  C     C_3   0.530417 0.554492 0.261808 0.269043
C189  C     C_3   0.531773 0.452275 0.778171 0.271102
C190  C     C_3   0.469197 0.551783 0.272136 0.262358
C191  C     C_R   0.608488 0.000219 0.750358 0.541423
C192  C     C_3   0.469789 0.454943 0.785173 0.263254
C193  C     C_3   0.530417 0.054492 0.761808 0.269043
C194  C     C_3   0.531772 0.952276 0.278174 0.271101
C195  C     C_3   0.469197 0.051783 0.772136 0.262358
C196  C     C_3   0.469788 0.954946 0.285176 0.263255
C197  C     C_3   0.030417 0.554492 0.761808 0.269043
C198  C     C_3   0.031773 0.452278 0.278177 0.271101
C199  C     C_3   0.969197 0.551783 0.772136 0.262358
C200  C     C_3   0.969788 0.454948 0.285179 0.263256
C201  C     C_3   0.050816 0.000237 0.250247 0.043949
C202  C     C_R   0.891441 0.499300 0.250330 0.499960
C203  C     C_3   0.050982 0.999744 0.749164 0.040543
C204  C     C_3   0.948941 0.000452 0.250245 0.015436
C205  C     C_3   0.949076 0.997943 0.749632 0.009675
C206  C     C_3   0.550816 0.500237 0.250247 0.043949
C207  C     C_3   0.550982 0.499744 0.749164 0.040543
C208  C     C_3   0.448941 0.500452 0.250245 0.015436
C209  C     C_3   0.449076 0.497943 0.749632 0.009676
C210  C     C_3   0.550816 0.000237 0.750247 0.043949
C211  C     C_3   0.550982 0.999744 0.249164 0.040543
C212  C     C_3   0.448941 0.000452 0.750245 0.015436
C213  C     C_R   0.891389 0.500285 0.750296 0.514738
C214  C     C_3   0.449076 0.997943 0.249632 0.009675
C215  C     C_3   0.050816 0.500237 0.750247 0.043949
C216  C     C_3   0.050982 0.499743 0.249164 0.040543
C217  C     C_3   0.948941 0.500452 0.750245 0.015436
C218  C     C_3   0.949076 0.497943 0.249632 0.009675
C219  C     C_1   0.250030 0.999947 0.069016 0.016154
C220  C     C_1   0.249965 0.000032 0.930984 0.007024
C221  C     C_1   0.750012 0.000067 0.069026 0.015581
C222  C     C_1   0.749926 0.999953 0.930978 0.009802
C223  C     C_1   0.750030 0.499947 0.069016 0.016154
C224  C     C_R   0.108542 0.500106 0.249837 0.543945
C225  C     C_1   0.749965 0.500032 0.930984 0.007024
C226  C     C_1   0.250012 0.500067 0.069026 0.015580
C227  C     C_1   0.249926 0.499953 0.930978 0.009802
C228  C     C_1   0.750030 0.999947 0.569016 0.016154
C229  C     C_1   0.749965 0.000032 0.430984 0.007023
C230  C     C_1   0.250012 0.000067 0.569026 0.015581
C231  C     C_1   0.249926 0.999953 0.430978 0.009802
C232  C     C_1   0.250030 0.499947 0.569016 0.016154
C233  C     C_1   0.249965 0.500032 0.430984 0.007023
C234  C     C_1   0.750012 0.500067 0.569026 0.015582
C235  C     C_R   0.108488 0.500219 0.750358 0.541423
C236  C     C_1   0.749926 0.499953 0.430978 0.009801
C237  C     C_1   0.250014 0.999969 0.025484 -0.032998
C238  C     C_1   0.249980 0.000011 0.974516 -0.036750
C239  C     C_1   0.749981 0.000043 0.025490 -0.031634
C240  C     C_1   0.749937 0.999986 0.974515 -0.034602
C241  C     C_1   0.750014 0.499969 0.025484 -0.032998
C242  C     C_1   0.749980 0.500011 0.974516 -0.036750
C243  C     C_1   0.249981 0.500043 0.025490 -0.031634
C244  C     C_1   0.249937 0.499986 0.974515 -0.034602
C245  C     C_1   0.750014 0.999969 0.525484 -0.032998
C246  C     C_R   0.891441 0.999299 0.750330 0.499959
C247  C     C_1   0.749980 0.000011 0.474516 -0.036750
C248  C     C_1   0.249980 0.000042 0.525490 -0.031634
C249  C     C_1   0.249937 0.999986 0.474515 -0.034602
C250  C     C_1   0.250014 0.499969 0.525484 -0.032998
C251  C     C_1   0.249980 0.500011 0.474516 -0.036750
C252  C     C_1   0.749981 0.500043 0.525490 -0.031633
C253  C     C_1   0.749937 0.499986 0.474515 -0.034602
C254  C     C_R   0.249974 0.999971 0.379172 0.494109
C255  C     C_R   0.249999 0.000030 0.620829 0.498274
C256  C     C_R   0.749991 0.000012 0.379187 0.495370
H1    H     H_    0.034954 0.979815 0.326153 0.118406
H2    H     H_    0.535676 0.044557 0.313490 0.120828
H3    H     H_    0.547155 0.544218 0.371038 0.141513
H4    H     H_    0.554091 0.410280 0.839100 0.250023
H5    H     H_    0.598278 0.505524 0.852528 0.186899
H6    H     H_    0.584810 0.460119 0.895214 0.122120
H7    H     H_    0.533936 0.498359 0.876421 0.164670
H8    H     H_    0.478111 0.580670 0.342755 0.260578
H9    H     H_    0.404248 0.572714 0.378097 0.108268
H10   H     H_    0.394141 0.515629 0.351076 0.171364
H11   H     H_    0.379487 0.570693 0.317896 0.173245
H12   H     H_    0.426293 0.490159 0.840793 0.249459
H13   H     H_    0.453558 0.965451 0.822275 0.142369
H14   H     H_    0.415093 0.419464 0.881436 0.126494
H15   H     H_    0.472057 0.444103 0.907070 0.142697
H16   H     H_    0.476203 0.396477 0.862870 0.147887
H17   H     H_    0.547705 0.114064 0.807592 0.245237
H18   H     H_    0.599858 0.084648 0.866575 0.128784
H19   H     H_    0.605264 0.027470 0.839158 0.177074
H20   H     H_    0.547155 0.044218 0.871038 0.141513
H21   H     H_    0.554091 0.910286 0.339106 0.250023
H22   H     H_    0.598277 0.005532 0.352529 0.186901
H23   H     H_    0.584807 0.960129 0.395218 0.122120
H24   H     H_    0.454104 0.054282 0.306677 0.127139
H25   H     H_    0.533933 0.998368 0.376421 0.164670
H26   H     H_    0.478111 0.080670 0.842756 0.260578
H27   H     H_    0.404248 0.072714 0.878097 0.108268
H28   H     H_    0.394141 0.015629 0.851076 0.171365
H29   H     H_    0.379487 0.070692 0.817896 0.173245
H30   H     H_    0.426293 0.990166 0.340793 0.249463
H31   H     H_    0.415092 0.919471 0.381440 0.126497
H32   H     H_    0.472054 0.944114 0.407074 0.142697
H33   H     H_    0.476203 0.896485 0.362877 0.147888
H34   H     H_    0.047705 0.614064 0.807592 0.245237
H35   H     H_    0.034954 0.479815 0.826152 0.118406
H36   H     H_    0.099858 0.584647 0.866576 0.128785
H37   H     H_    0.105265 0.527470 0.839158 0.177075
H38   H     H_    0.047155 0.544217 0.871038 0.141513
H39   H     H_    0.054092 0.410291 0.339111 0.250023
H40   H     H_    0.098276 0.505537 0.352531 0.186902
H41   H     H_    0.084805 0.460137 0.395221 0.122121
H42   H     H_    0.033932 0.498375 0.376421 0.164670
H43   H     H_    0.978111 0.580669 0.842756 0.260578
H44   H     H_    0.904248 0.572713 0.878097 0.108268
H45   H     H_    0.894141 0.515629 0.851076 0.171365
H46   H     H_    0.035677 0.544561 0.313487 0.120829
H47   H     H_    0.879487 0.570692 0.817896 0.173245
H48   H     H_    0.926293 0.490171 0.340794 0.249466
H49   H     H_    0.915091 0.419477 0.381443 0.126498
H50   H     H_    0.972052 0.444122 0.407077 0.142697
H51   H     H_    0.976204 0.396491 0.362883 0.147888
H52   H     H_    0.013383 0.088535 0.192179 0.254552
H53   H     H_    0.094895 0.123609 0.178557 0.169323
H54   H     H_    0.113572 0.112303 0.239802 0.202513
H55   H     H_    0.065295 0.156981 0.226824 0.106353
H56   H     H_    0.021533 0.896863 0.722086 0.262630
H57   H     H_    0.953558 0.465451 0.822275 0.142369
H58   H     H_    0.103870 0.863208 0.723674 0.172799
H59   H     H_    0.076941 0.848603 0.781822 0.107923
H60   H     H_    0.121163 0.898603 0.775407 0.185003
H61   H     H_    0.932868 0.093134 0.214560 0.274254
H62   H     H_    0.920756 0.166531 0.250573 0.144790
H63   H     H_    0.986623 0.155392 0.264200 0.144645
H64   H     H_    0.937162 0.143496 0.308580 0.144908
H65   H     H_    0.969149 0.878018 0.781438 0.252402
H66   H     H_    0.873533 0.883929 0.752663 0.200860
H67   H     H_    0.872889 0.926075 0.802921 0.148626
H68   H     H_    0.954104 0.554285 0.306674 0.127139
H69   H     H_    0.892614 0.865025 0.811667 0.094337
H70   H     H_    0.513384 0.588535 0.192180 0.254553
H71   H     H_    0.594894 0.623610 0.178558 0.169322
H72   H     H_    0.613572 0.612302 0.239802 0.202513
H73   H     H_    0.565295 0.656981 0.226825 0.106352
H74   H     H_    0.521533 0.396865 0.722080 0.262630
H75   H     H_    0.603868 0.363208 0.723667 0.172798
H76   H     H_    0.576938 0.348600 0.781814 0.107921
H77   H     H_    0.621162 0.398599 0.775402 0.185006
H78   H     H_    0.432868 0.593135 0.214561 0.274254
H79   H     H_    0.022016 0.902872 0.206259 0.300469
H80   H     H_    0.420756 0.666531 0.250574 0.144789
H81   H     H_    0.486623 0.655392 0.264200 0.144645
H82   H     H_    0.437161 0.643496 0.308581 0.144907
H83   H     H_    0.469149 0.378016 0.781431 0.252402
H84   H     H_    0.373533 0.383926 0.752659 0.200860
H85   H     H_    0.372889 0.426072 0.802918 0.148627
H86   H     H_    0.392615 0.365023 0.811663 0.094336
H87   H     H_    0.513383 0.088536 0.692180 0.254552
H88   H     H_    0.594894 0.123610 0.678558 0.169322
H89   H     H_    0.613572 0.112303 0.739802 0.202513
H90   H     H_    0.102460 0.876899 0.184054 0.153313
H91   H     H_    0.565295 0.156981 0.726825 0.106351
H92   H     H_    0.521533 0.896862 0.222088 0.262630
H93   H     H_    0.603870 0.863209 0.223675 0.172799
H94   H     H_    0.576941 0.848603 0.281824 0.107923
H95   H     H_    0.621163 0.898603 0.275408 0.185002
H96   H     H_    0.432868 0.093135 0.714561 0.274254
H97   H     H_    0.420756 0.166531 0.750574 0.144788
H98   H     H_    0.486623 0.155392 0.764201 0.144645
H99   H     H_    0.437161 0.143496 0.808581 0.144908
H100  H     H_    0.469149 0.878019 0.281440 0.252403
H101  H     H_    0.125185 0.937905 0.180086 0.158752
H102  H     H_    0.373533 0.883929 0.252664 0.200860
H103  H     H_    0.372889 0.926076 0.302922 0.148626
H104  H     H_    0.392614 0.865026 0.311669 0.094337
H105  H     H_    0.013383 0.588536 0.692180 0.254552
H106  H     H_    0.094894 0.623610 0.678558 0.169322
H107  H     H_    0.113572 0.612302 0.739802 0.202513
H108  H     H_    0.065295 0.656981 0.726826 0.106352
H109  H     H_    0.021533 0.396860 0.222094 0.262631
H110  H     H_    0.103871 0.363209 0.223682 0.172800
H111  H     H_    0.076944 0.348606 0.281832 0.107925
H112  H     H_    0.035676 0.044556 0.813491 0.120828
H113  H     H_    0.088184 0.912446 0.131174 0.142382
H114  H     H_    0.121164 0.398607 0.275413 0.184999
H115  H     H_    0.932868 0.593135 0.714561 0.274255
H116  H     H_    0.920756 0.666531 0.750574 0.144789
H117  H     H_    0.986623 0.655392 0.764201 0.144645
H118  H     H_    0.937161 0.643496 0.808581 0.144908
H119  H     H_    0.969149 0.378020 0.281447 0.252404
H120  H     H_    0.873533 0.383931 0.252668 0.200861
H121  H     H_    0.872889 0.426078 0.302925 0.148626
H122  H     H_    0.892612 0.365029 0.311673 0.094339
H123  H     H_    0.020408 0.075786 0.677605 0.298730
H124  H     H_    0.091981 0.089469 0.628469 0.139044
H125  H     H_    0.112691 0.028254 0.634006 0.168387
H126  H     H_    0.118351 0.069334 0.684627 0.157540
H127  H     H_    0.907970 0.937157 0.188345 0.261806
H128  H     H_    0.947153 0.888784 0.125061 0.151075
H129  H     H_    0.992516 0.936695 0.115433 0.176555
H130  H     H_    0.925396 0.947075 0.104523 0.149724
H131  H     H_    0.907437 0.037469 0.670453 0.267769
H132  H     H_    0.953558 0.965451 0.322275 0.142369
H133  H     H_    0.941798 0.056346 0.592127 0.147021
H134  H     H_    0.922734 0.993937 0.596160 0.154186
H135  H     H_    0.989543 0.010221 0.600037 0.182108
H136  H     H_    0.522016 0.402872 0.206259 0.300469
H137  H     H_    0.602459 0.376899 0.184053 0.153312
H138  H     H_    0.625185 0.437905 0.180086 0.158753
H139  H     H_    0.588184 0.412447 0.131174 0.142383
H140  H     H_    0.520408 0.575790 0.677610 0.298730
H141  H     H_    0.591981 0.589474 0.628473 0.139046
H142  H     H_    0.612693 0.528261 0.634011 0.168385
H143  H     H_    0.954104 0.054282 0.806678 0.127138
H144  H     H_    0.618350 0.569341 0.684632 0.157541
H145  H     H_    0.407970 0.437157 0.188345 0.261805
H146  H     H_    0.447153 0.388784 0.125061 0.151075
H147  H     H_    0.492516 0.436696 0.115433 0.176555
H148  H     H_    0.425396 0.447075 0.104523 0.149725
H149  H     H_    0.407436 0.537474 0.670456 0.267767
H150  H     H_    0.441798 0.556355 0.592130 0.147021
H151  H     H_    0.422734 0.493946 0.596160 0.154184
H152  H     H_    0.489543 0.510231 0.600038 0.182108
H153  H     H_    0.522015 0.902872 0.706258 0.300469
H154  H     H_    0.534954 0.479815 0.326152 0.118407
H155  H     H_    0.602460 0.876900 0.684054 0.153313
H156  H     H_    0.625185 0.937906 0.680085 0.158752
H157  H     H_    0.588184 0.912446 0.631174 0.142382
H158  H     H_    0.520408 0.075785 0.177604 0.298730
H159  H     H_    0.591981 0.089467 0.128467 0.139044
H160  H     H_    0.612692 0.028252 0.134006 0.168388
H161  H     H_    0.618351 0.069334 0.184626 0.157540
H162  H     H_    0.407970 0.937157 0.688345 0.261806
H163  H     H_    0.447153 0.888785 0.625061 0.151074
H164  H     H_    0.492516 0.936696 0.615432 0.176555
H165  H     H_    0.535676 0.544552 0.813494 0.120828
H166  H     H_    0.425395 0.947076 0.604523 0.149725
H167  H     H_    0.407437 0.037468 0.170453 0.267769
H168  H     H_    0.441798 0.056343 0.092126 0.147020
H169  H     H_    0.422734 0.993935 0.096160 0.154186
H170  H     H_    0.489542 0.010219 0.100037 0.182107
H171  H     H_    0.022016 0.402872 0.706258 0.300469
H172  H     H_    0.102459 0.376899 0.684052 0.153312
H173  H     H_    0.125186 0.437905 0.680086 0.158753
H174  H     H_    0.088184 0.412448 0.631173 0.142383
H175  H     H_    0.020408 0.575780 0.177599 0.298730
H176  H     H_    0.453558 0.465451 0.322275 0.142369
H177  H     H_    0.091981 0.589460 0.128462 0.139043
H178  H     H_    0.112691 0.528246 0.134003 0.168391
H179  H     H_    0.118351 0.569329 0.184622 0.157538
H180  H     H_    0.907970 0.437157 0.688344 0.261805
H181  H     H_    0.947153 0.388785 0.625060 0.151075
H182  H     H_    0.992516 0.436696 0.615432 0.176554
H183  H     H_    0.925396 0.447076 0.604523 0.149724
H184  H     H_    0.907437 0.537465 0.170451 0.267771
H185  H     H_    0.941798 0.556334 0.092122 0.147020
H186  H     H_    0.922733 0.493926 0.096161 0.154188
H187  H     H_    0.454104 0.554278 0.806681 0.127138
H188  H     H_    0.989542 0.510210 0.100036 0.182107
H189  H     H_    0.047705 0.114065 0.307591 0.245236
H190  H     H_    0.099858 0.084648 0.366575 0.128784
H191  H     H_    0.105265 0.027471 0.339158 0.177074
H192  H     H_    0.047155 0.044218 0.371038 0.141513
H193  H     H_    0.054091 0.910285 0.839105 0.250023
H194  H     H_    0.098277 0.005530 0.852529 0.186901
H195  H     H_    0.084807 0.960127 0.895217 0.122120
H196  H     H_    0.033934 0.998366 0.876421 0.164670
H197  H     H_    0.978111 0.080670 0.342755 0.260578
H198  H     H_    0.534954 0.979815 0.826152 0.118406
H199  H     H_    0.904248 0.072714 0.378097 0.108268
H200  H     H_    0.894141 0.015630 0.351076 0.171365
H201  H     H_    0.879488 0.070693 0.317896 0.173245
H202  H     H_    0.926293 0.990165 0.840793 0.249462
H203  H     H_    0.915092 0.919470 0.881439 0.126496
H204  H     H_    0.972055 0.944112 0.907073 0.142697
H205  H     H_    0.976203 0.896483 0.862875 0.147888
H206  H     H_    0.547705 0.614065 0.307592 0.245237
H207  H     H_    0.599858 0.584648 0.366575 0.128784
H208  H     H_    0.605265 0.527471 0.339158 0.177074
N1    N     N_2   0.045283 0.929873 0.193237 -0.521627
N2    N     N_2   0.542595 0.046097 0.169810 -0.521171
N3    N     N_2   0.445472 0.942890 0.678319 -0.509683
N4    N     N_2   0.444097 0.026689 0.161991 -0.510233
N5    N     N_2   0.045283 0.429874 0.693236 -0.521627
N6    N     N_2   0.042595 0.546093 0.169808 -0.521171
N7    N     N_2   0.945472 0.442890 0.678318 -0.509682
N8    N     N_2   0.944097 0.526684 0.161989 -0.510233
N9    N     N_1   0.074481 0.027748 0.125122 -0.287140
N10   N     N_1   0.072704 0.932176 0.638507 -0.285005
N11   N     N_1   0.940467 0.054203 0.133072 -0.301728
N12   N     N_2   0.042595 0.046098 0.669811 -0.521171
N13   N     N_1   0.941441 0.905106 0.662799 -0.285240
N14   N     N_1   0.574481 0.527748 0.125122 -0.287140
N15   N     N_1   0.572704 0.432183 0.638503 -0.285004
N16   N     N_1   0.440467 0.554203 0.133072 -0.301727
N17   N     N_1   0.441441 0.405111 0.662794 -0.285238
N18   N     N_1   0.574481 0.027749 0.625122 -0.287140
N19   N     N_1   0.572703 0.932174 0.138508 -0.285005
N20   N     N_1   0.440467 0.054204 0.633072 -0.301728
N21   N     N_1   0.441441 0.905105 0.162801 -0.285240
N22   N     N_1   0.074481 0.527749 0.625122 -0.287141
N23   N     N_2   0.945472 0.942889 0.178319 -0.509683
N24   N     N_1   0.072703 0.432168 0.138512 -0.285006
N25   N     N_1   0.940467 0.554204 0.633072 -0.301728
N26   N     N_1   0.941441 0.405100 0.162806 -0.285242
N27   N     N_1   0.073702 0.879000 0.298201 -0.251669
N28   N     N_1   0.073693 0.129149 0.753421 -0.271002
N29   N     N_1   0.936766 0.871635 0.265357 -0.262587
N30   N     N_1   0.934273 0.123906 0.722286 -0.275189
N31   N     N_1   0.573702 0.379000 0.298200 -0.251668
N32   N     N_1   0.573692 0.629149 0.753430 -0.270999
N33   N     N_1   0.436766 0.371635 0.265357 -0.262587
N34   N     N_2   0.944097 0.026691 0.661991 -0.510233
N35   N     N_1   0.434273 0.623907 0.722293 -0.275187
N36   N     N_1   0.573702 0.879000 0.798200 -0.251668
N37   N     N_1   0.573693 0.129149 0.253419 -0.271003
N38   N     N_1   0.436766 0.871635 0.765357 -0.262587
N39   N     N_1   0.434273 0.123905 0.222284 -0.275190
N40   N     N_1   0.073702 0.379000 0.798200 -0.251669
N41   N     N_1   0.073693 0.629149 0.253412 -0.271006
N42   N     N_1   0.936766 0.371635 0.765356 -0.262587
N43   N     N_1   0.934273 0.623904 0.222278 -0.275192
N44   N     N_2   0.057558 0.078319 0.302568 -0.513584
N45   N     N_2   0.545283 0.429873 0.193237 -0.521627
N46   N     N_2   0.057684 0.944756 0.825468 -0.490366
N47   N     N_2   0.959047 0.053591 0.324967 -0.518861
N48   N     N_2   0.956580 0.966867 0.835903 -0.506176
N49   N     N_2   0.557558 0.578319 0.302568 -0.513584
N50   N     N_2   0.557684 0.444751 0.825464 -0.490367
N51   N     N_2   0.459047 0.553591 0.324967 -0.518860
N52   N     N_2   0.456580 0.466863 0.835902 -0.506176
N53   N     N_2   0.557558 0.078318 0.802568 -0.513585
N54   N     N_2   0.557683 0.944757 0.325469 -0.490366
N55   N     N_2   0.459047 0.053591 0.824967 -0.518861
N56   N     N_2   0.542595 0.546103 0.669814 -0.521171
N57   N     N_2   0.456579 0.966869 0.335904 -0.506176
N58   N     N_2   0.057558 0.578318 0.802569 -0.513585
N59   N     N_2   0.057683 0.444761 0.325472 -0.490365
N60   N     N_2   0.959047 0.553591 0.824968 -0.518861
N61   N     N_2   0.956579 0.466873 0.335906 -0.506177
N62   N     N_2   0.040253 0.084909 0.218793 -0.503730
N63   N     N_2   0.045835 0.910082 0.747947 -0.526838
N64   N     N_2   0.941777 0.093247 0.250484 -0.488217
N65   N     N_2   0.946497 0.907474 0.773419 -0.499214
N66   N     N_2   0.540253 0.584909 0.218793 -0.503730
N67   N     N_2   0.445472 0.442890 0.178319 -0.509682
N68   N     N_2   0.545835 0.410083 0.747942 -0.526835
N69   N     N_2   0.441776 0.593247 0.250484 -0.488218
N70   N     N_2   0.446497 0.407473 0.773414 -0.499213
N71   N     N_2   0.540253 0.084909 0.718793 -0.503730
N72   N     N_2   0.545835 0.910082 0.247948 -0.526839
N73   N     N_2   0.441777 0.093247 0.750484 -0.488218
N74   N     N_2   0.446497 0.907474 0.273420 -0.499215
N75   N     N_2   0.040253 0.584909 0.718793 -0.503730
N76   N     N_2   0.045835 0.410082 0.247954 -0.526841
N77   N     N_2   0.941777 0.593247 0.750484 -0.488218
N78   N     N_2   0.444097 0.526696 0.661993 -0.510233
N79   N     N_2   0.946497 0.407476 0.273425 -0.499216
N80   N     N_2   0.545283 0.929873 0.693237 -0.521627
O1    O     O_3   0.250000 0.999990 0.250000 -0.442222
O2    O     O_R   0.366860 0.972110 0.777870 -0.556696
O3    O     O_R   0.133150 0.027840 0.222150 -0.530289
O4    O     O_R   0.366850 0.527840 0.777850 -0.557997
O5    O     O_R   0.366850 0.527840 0.222150 -0.529621
O6    O     O_R   0.633150 0.527840 0.777850 -0.557167
O7    O     O_R   0.633150 0.527840 0.222150 -0.530289
O8    O     O_R   0.633140 0.972110 0.222130 -0.530266
O9    O     O_R   0.633140 0.972110 0.777870 -0.549852
O10   O     O_R   0.866860 0.472110 0.222130 -0.535154
O11   O     O_R   0.866860 0.472110 0.777870 -0.556696
O12   O     O_R   0.133140 0.472110 0.222130 -0.530269
O13   O     O_R   0.133140 0.472110 0.777870 -0.549852
O14   O     O_R   0.866860 0.972110 0.722130 -0.535152
O15   O     O_R   0.866860 0.972110 0.277870 -0.556696
O16   O     O_R   0.133140 0.972110 0.722130 -0.530266
O17   O     O_3   0.250000 0.999990 0.750000 -0.443143
O18   O     O_R   0.133140 0.972110 0.277870 -0.549852
O19   O     O_R   0.366860 0.472110 0.722130 -0.535150
O20   O     O_R   0.366860 0.472110 0.277870 -0.556696
O21   O     O_R   0.633140 0.472110 0.722130 -0.530263
O22   O     O_R   0.633140 0.472110 0.277870 -0.549852
O23   O     O_R   0.280630 0.027850 0.356260 -0.539297
O24   O     O_R   0.280630 0.027850 0.643740 -0.527071
O25   O     O_R   0.719370 0.027850 0.356260 -0.541392
O26   O     O_R   0.719370 0.027850 0.643740 -0.525986
O27   O     O_R   0.780630 0.527850 0.356260 -0.539298
O28   O     O_3   0.750000 0.999990 0.250000 -0.443143
O29   O     O_R   0.780630 0.527850 0.643740 -0.527072
O30   O     O_R   0.219370 0.527850 0.356260 -0.541392
O31   O     O_R   0.219370 0.527850 0.643740 -0.525986
O32   O     O_R   0.780630 0.027850 0.856260 -0.539297
O33   O     O_R   0.780630 0.027850 0.143740 -0.527071
O34   O     O_R   0.219370 0.027850 0.856260 -0.541392
O35   O     O_R   0.219370 0.027850 0.143740 -0.525986
O36   O     O_R   0.280630 0.527850 0.856260 -0.539296
O37   O     O_R   0.280630 0.527850 0.143740 -0.527070
O38   O     O_R   0.719370 0.527850 0.856260 -0.541391
O39   O     O_3   0.750000 0.999990 0.750000 -0.442222
O40   O     O_R   0.719370 0.527850 0.143740 -0.525985
O41   O     O_R   0.280630 0.106260 0.277850 -0.520434
O42   O     O_R   0.280630 0.106260 0.722150 -0.535974
O43   O     O_R   0.719370 0.106260 0.277850 -0.525762
O44   O     O_R   0.719370 0.106260 0.722150 -0.554670
O45   O     O_R   0.780630 0.606260 0.277850 -0.520434
O46   O     O_R   0.780630 0.606260 0.722150 -0.535975
O47   O     O_R   0.219370 0.606260 0.277850 -0.525762
O48   O     O_R   0.219370 0.606260 0.722150 -0.554670
O49   O     O_R   0.780630 0.106260 0.777850 -0.520434
O50   O     O_3   0.750000 0.499990 0.250000 -0.442222
O51   O     O_R   0.780630 0.106260 0.222150 -0.535974
O52   O     O_R   0.219370 0.106260 0.777850 -0.525762
O53   O     O_R   0.219370 0.106260 0.222150 -0.554670
O54   O     O_R   0.280630 0.606260 0.777850 -0.520433
O55   O     O_R   0.280630 0.606260 0.222150 -0.535974
O56   O     O_R   0.719370 0.606260 0.777850 -0.525761
O57   O     O_R   0.719370 0.606260 0.222150 -0.554669
O58   O     O_R   0.280650 0.893700 0.222130 -0.551983
O59   O     O_R   0.280650 0.893700 0.777870 -0.521319
O60   O     O_R   0.719350 0.893700 0.222130 -0.547129
O61   O     O_3   0.750000 0.499990 0.750000 -0.443143
O62   O     O_R   0.719350 0.893700 0.777870 -0.520825
O63   O     O_R   0.780650 0.393700 0.222130 -0.551982
O64   O     O_R   0.780650 0.393700 0.777870 -0.521319
O65   O     O_R   0.219350 0.393700 0.222130 -0.547128
O66   O     O_R   0.219350 0.393700 0.777870 -0.520825
O67   O     O_R   0.780650 0.893700 0.722130 -0.551984
O68   O     O_R   0.780650 0.893700 0.277870 -0.521319
O69   O     O_R   0.219350 0.893700 0.722130 -0.547130
O70   O     O_R   0.219350 0.893700 0.277870 -0.520825
O71   O     O_R   0.280650 0.393700 0.722130 -0.551986
O72   O     O_3   0.250000 0.499990 0.250000 -0.443143
O73   O     O_R   0.280650 0.393700 0.277870 -0.521319
O74   O     O_R   0.719350 0.393700 0.722130 -0.547131
O75   O     O_R   0.719350 0.393700 0.277870 -0.520826
O76   O     O_R   0.219370 0.972130 0.356260 -0.538861
O77   O     O_R   0.219370 0.972130 0.643740 -0.533100
O78   O     O_R   0.780630 0.972130 0.356260 -0.542008
O79   O     O_R   0.780630 0.972130 0.643740 -0.533592
O80   O     O_R   0.719370 0.472130 0.356260 -0.538861
O81   O     O_R   0.719370 0.472130 0.643740 -0.533098
O82   O     O_R   0.280630 0.472130 0.356260 -0.542008
O83   O     O_3   0.250000 0.499990 0.750000 -0.442222
O84   O     O_R   0.280630 0.472130 0.643740 -0.533590
O85   O     O_R   0.719370 0.972130 0.856260 -0.538861
O86   O     O_R   0.719370 0.972130 0.143740 -0.533100
O87   O     O_R   0.280630 0.972130 0.856260 -0.542008
O88   O     O_R   0.280630 0.972130 0.143740 -0.533592
O89   O     O_R   0.219370 0.472130 0.856260 -0.538861
O90   O     O_R   0.219370 0.472130 0.143740 -0.533102
O91   O     O_R   0.780630 0.472130 0.856260 -0.542008
O92   O     O_R   0.780630 0.472130 0.143740 -0.533593
O93   O     O_R   0.366850 0.027840 0.277850 -0.557998
O94   O     O_R   0.366860 0.972110 0.222130 -0.535153
O95   O     O_R   0.366850 0.027840 0.722150 -0.529620
O96   O     O_R   0.633150 0.027840 0.277850 -0.557165
O97   O     O_R   0.633150 0.027840 0.722150 -0.530289
O98   O     O_R   0.866850 0.527840 0.277850 -0.557999
O99   O     O_R   0.866850 0.527840 0.722150 -0.529621
O100  O     O_R   0.133150 0.527840 0.277850 -0.557165
O101  O     O_R   0.133150 0.527840 0.722150 -0.530289
O102  O     O_R   0.866850 0.027840 0.777850 -0.557998
O103  O     O_R   0.866850 0.027840 0.222150 -0.529620
O104  O     O_R   0.133150 0.027840 0.777850 -0.557166
Zn1   Zn    Zn3+2 0.206230 0.960180 0.289800 0.939147
Zn2   Zn    Zn3+2 0.706230 0.960180 0.210200 0.938187
Zn3   Zn    Zn3+2 0.293770 0.960180 0.789800 0.936606
Zn4   Zn    Zn3+2 0.293770 0.960180 0.210200 0.932944
Zn5   Zn    Zn3+2 0.206230 0.460180 0.789800 0.939147
Zn6   Zn    Zn3+2 0.206230 0.460180 0.210200 0.938186
Zn7   Zn    Zn3+2 0.793770 0.460180 0.789800 0.936606
Zn8   Zn    Zn3+2 0.793770 0.460180 0.210200 0.932944
Zn9   Zn    Zn3+2 0.293770 0.039800 0.289800 0.937183
Zn10  Zn    Zn3+2 0.293770 0.039800 0.710200 0.948996
Zn11  Zn    Zn3+2 0.706230 0.039800 0.289800 0.933848
Zn12  Zn    Zn3+2 0.206230 0.960180 0.710200 0.938187
Zn13  Zn    Zn3+2 0.706230 0.039800 0.710200 0.937751
Zn14  Zn    Zn3+2 0.793770 0.539800 0.289800 0.937182
Zn15  Zn    Zn3+2 0.793770 0.539800 0.710200 0.948996
Zn16  Zn    Zn3+2 0.206230 0.539800 0.289800 0.933847
Zn17  Zn    Zn3+2 0.206230 0.539800 0.710200 0.937751
Zn18  Zn    Zn3+2 0.793770 0.039800 0.789800 0.937183
Zn19  Zn    Zn3+2 0.793770 0.039800 0.210200 0.948997
Zn20  Zn    Zn3+2 0.206230 0.039800 0.789800 0.933848
Zn21  Zn    Zn3+2 0.206230 0.039800 0.210200 0.937751
Zn22  Zn    Zn3+2 0.293770 0.539800 0.789800 0.937184
Zn23  Zn    Zn3+2 0.793770 0.960180 0.289800 0.936606
Zn24  Zn    Zn3+2 0.293770 0.539800 0.210200 0.948997
Zn25  Zn    Zn3+2 0.706230 0.539800 0.789800 0.933849
Zn26  Zn    Zn3+2 0.706230 0.539800 0.210200 0.937752
Zn27  Zn    Zn3+2 0.793770 0.960180 0.710200 0.932944
Zn28  Zn    Zn3+2 0.706230 0.460180 0.289800 0.939147
Zn29  Zn    Zn3+2 0.706230 0.460180 0.710200 0.938187
Zn30  Zn    Zn3+2 0.293770 0.460180 0.289800 0.936606
Zn31  Zn    Zn3+2 0.293770 0.460180 0.710200 0.932944
Zn32  Zn    Zn3+2 0.706230 0.960180 0.789800 0.939148

loop_
_geom_bond_atom_site_label_1
_geom_bond_atom_site_label_2
_ccdc_geom_bond_type
C31   O64   A    
C195  N55   S    
O83   Zn5   S    
O69   Zn12  S    
C88   H125  S    
C30   O75   A    
C130  C146  S    
C200  C218  S    
C41   C50   T    
O11   Zn7   S    
C78   C115  S    
C198  C216  S    
C91   H133  S    
C173  H111  S    
C235  O101  A    
C170  H99   S    
C213  O99   A    
C12   O36   A    
C98   H166  S    
C15   O91   A    
C161  H64   S    
C50   C59   S    
C20   C66   S    
C143  H201  S    
C84   C86   S    
C97   H161  S    
C52   C61   T    
C151  H25   S    
C170  H97   S    
C139  N42   T    
C95   H151  S    
C54   C63   T    
O9    Zn32  S    
C103  N7    S    
C145  H207  S    
O37   Zn24  S    
C93   H141  S    
C20   O44   A    
C33   O66   A    
C83   C119  S    
C197  C199  S    
C75   N56   S    
C112  O95   A    
C75   C207  S    
C44   C53   S    
C12   O89   A    
C80   C116  S    
C189  C192  S    
O1    Zn1   S    
C79   C201  S    
O8    Zn2   S    
C243  C244  S    
C110  N15   T    
C85   C121  S    
C236  C253  T    
C142  N46   S    
C152  H27   S    
C195  N73   S    
C28   O68   A    
C4    O80   A    
C198  N59   S    
C125  N28   T    
C20   O49   A    
O83   Zn17  S    
O13   Zn5   S    
C108  N13   T    
C220  C238  T    
C91   H134  S    
C188  N66   S    
C166  H86   S    
C11   O88   A    
C132  N36   T    
C7    C232  S    
C181  C183  S    
C17   C67   S    
C140  C183  S    
C256  O25   A    
O89   Zn5   S    
O31   Zn17  S    
C230  C255  S    
C71   C73   S    
H109  N76   S    
C185  N63   S    
C12   C227  S    
H26   N55   S    
C150  N53   S    
O43   Zn11  S    
C187  N48   S    
C126  N29   T    
C173  H114  S    
H131  N34   S    
C109  N14   T    
C13   C203  S    
C7    O84   A    
H92   N72   S    
O3    Zn21  S    
C190  N69   S    
C103  H182  S    
C137  C179  S    
C77   N78   S    
C98   H163  S    
C5    O29   A    
C28   O60   A    
C99   H170  S    
H87   N71   S    
C143  H200  S    
C144  N48   S    
C174  H118  S    
O30   Zn16  S    
O59   Zn3   S    
C167  H91   S    
C46   O5    A    
C255  O77   A    
C32   O73   A    
O100  Zn16  S    
C165  H80   S    
O61   Zn15  S    
C82   C118  S    
C147  H7    S    
O38   Zn25  S    
C227  C244  T    
C177  C212  S    
H119  N79   S    
O27   Zn14  S    
C30   C39   S    
C70   N1    S    
C215  C235  S    
C154  H38   S    
C119  N22   T    
C92   H138  S    
H34   N58   S    
C150  H18   S    
C150  H20   S    
C70   C105  S    
C13   O16   A    
O58   Zn4   S    
C142  H195  S    
O96   Zn11  S    
C164  H75   S    
C171  N74   S    
C2    O103  A    
C155  H40   S    
O72   Zn16  S    
C19   O43   A    
C180  O96   A    
O28   Zn19  S    
H43   N60   S    
C159  H54   S    
O64   Zn7   S    
C102  H179  S    
C87   N1    S    
C162  H69   S    
C219  C237  T    
O39   Zn13  S    
C223  C241  T    
C4    O27   A    
C78   N80   S    
C84   N6    S    
O17   Zn10  S    
C181  C216  S    
C25   C62   S    
C134  C177  S    
O65   Zn6   S    
C49   C58   S    
O95   Zn10  S    
C145  N49   S    
C97   H160  S    
C170  N73   S    
C71   C106  S    
H100  N74   S    
C1    C214  S    
C198  C200  S    
C166  H84   S    
C174  N77   S    
C3    C228  S    
C89   H130  S    
C76   C208  S    
C76   N67   S    
O28   Zn2   S    
C252  C253  S    
H158  N2    S    
C153  N57   S    
H123  N12   S    
C245  C247  S    
O71   Zn31  S    
C14   O90   A    
C81   C117  S    
C145  H3    S    
C25   O48   A    
O19   Zn31  S    
C16   O40   A    
C91   N34   S    
C135  H165  S    
O18   Zn1   S    
C169  N72   S    
C21   O57   A    
C32   O65   A    
C46   C208  S    
C155  H42   S    
C213  O11   A    
C74   C76   S    
C221  C239  T    
C123  N27   T    
C33   C42   S    
C187  N65   S    
C152  N55   S    
C31   O74   A    
C106  N10   T    
H115  N77   S    
C149  H14   S    
C121  N25   T    
O76   Zn1   S    
O104  Zn20  S    
C43   C52   S    
C185  C187  S    
O51   Zn19  S    
O97   Zn13  S    
O85   Zn32  S    
C40   C49   T    
O32   Zn18  S    
O2    Zn3   S    
O55   Zn24  S    
C188  C190  S    
C241  C242  S    
C86   C218  S    
C154  H36   S    
C94   H147  S    
C231  C254  S    
C169  H94   S    
C160  H59   S    
C59   C67   T    
C129  C135  S    
C167  H89   S    
H202  N48   S    
C182  H57   S    
C29   C38   S    
O98   Zn14  S    
C32   C41   S    
O84   Zn31  S    
C147  H5    S    
C78   C210  S    
O61   Zn7   S    
O4    Zn22  S    
C162  H66   S    
C18   C69   S    
C57   O21   A    
C183  H68   S    
O61   Zn29  S    
C131  N35   T    
C237  C238  S    
C94   H148  S    
C4    C236  S    
H153  N80   S    
C190  N51   S    
O46   Zn15  S    
O82   Zn30  S    
C164  H77   S    
C24   C201  S    
C175  H121  S    
C74   N45   S    
C29   O67   A    
O83   Zn22  S    
H65   N65   S    
C79   H1    S    
C192  N52   S    
O79   Zn27  S    
C246  O14   A    
C80   C82   S    
C224  O12   A    
C87   H90   S    
C165  N69   S    
C100  H173  S    
C173  N76   S    
C102  H177  S    
C171  H104  S    
C235  O13   A    
C154  N58   S    
C124  C146  S    
O17   Zn12  S    
C192  N70   S    
O7    Zn26  S    
C89   H128  S    
C113  C205  S    
C193  N71   S    
C91   H135  S    
C30   O63   A    
C124  H154  S    
C196  C214  S    
C246  O102  A    
C90   H112  S    
C224  O100  A    
C138  N41   T    
C187  C205  S    
H127  N23   S    
C158  H50   S    
O35   Zn21  S    
C27   O59   A    
C104  H185  S    
O54   Zn22  S    
O50   Zn14  S    
C200  N79   S    
C189  N50   S    
C101  C126  S    
O67   Zn27  S    
C184  N44   S    
H48   N61   S    
O39   Zn32  S    
O17   Zn3   S    
O66   Zn5   S    
C68   C206  S    
C130  N33   T    
C103  H183  S    
C172  H107  S    
C96   H155  S    
H140  N56   S    
C231  C249  T    
C11   C219  S    
C8    C222  S    
C135  C207  S    
C197  N58   S    
C73   C205  S    
C173  H110  S    
C75   C110  S    
C88   H126  S    
C184  C201  S    
C6    C233  S    
C34   C43   T    
C149  H16   S    
C177  H13   S    
C188  N49   S    
C26   O58   A    
C72   C204  S    
C161  H63   S    
O22   Zn28  S    
C92   N45   S    
C202  C218  S    
C85   N7    S    
C195  C212  S    
O33   Zn19  S    
C180  O8    A    
C35   O19   A    
C176  H2    S    
C193  C210  S    
C140  N43   T    
C134  N38   T    
C28   C37   S    
C76   C111  S    
C92   H137  S    
O16   Zn12  S    
C175  H120  S    
C83   N5    S    
C163  H72   S    
C99   N4    S    
C161  N64   S    
H17   N53   S    
C200  N61   S    
O101  Zn17  S    
C165  H82   S    
C97   N2    S    
C229  C247  T    
C88   N12   S    
C186  N47   S    
O75   Zn28  S    
H197  N47   S    
C115  N18   T    
C179  C215  S    
O40   Zn26  S    
C79   C101  S    
C51   C60   S    
H12   N52   S    
O83   Zn31  S    
C152  H28   S    
O47   Zn16  S    
O77   Zn12  S    
C149  N52   S    
C9    O86   A    
C172  H106  S    
O99   Zn15  S    
C239  C240  S    
C199  C217  S    
O28   Zn23  S    
C174  H116  S    
C5    C234  S    
O60   Zn2   S    
C35   C209  S    
C171  H102  S    
C157  C209  S    
C188  C206  S    
O39   Zn27  S    
C135  C157  S    
O5    Zn24  S    
H145  N67   S    
C151  H22   S    
C14   C226  S    
C129  N32   T    
O81   Zn29  S    
C29   O62   A    
H39   N59   S    
O23   Zn9   S    
C148  N51   S    
C256  O78   A    
C168  C177  S    
C144  H203  S    
C46   O20   A    
C31   C40   S    
C48   C56   S    
C148  H10   S    
C75   C77   S    
C6    O82   A    
C10   O87   A    
C103  H181  S    
C164  N68   S    
O6    Zn25  S    
C141  H190  S    
C153  H33   S    
C86   C122  S    
C98   H164  S    
C99   H169  S    
C95   N78   S    
C143  H199  S    
H61   N64   S    
C160  H58   S    
C124  C128  S    
C179  C182  S    
C184  N62   S    
C147  N50   S    
C170  H98   S    
O63   Zn8   S    
C18   O42   A    
C23   O55   A    
C17   O41   A    
O53   Zn21  S    
O72   Zn24  S    
O36   Zn22  S    
C11   O35   A    
C8    O85   A    
C111  N16   T    
C10   O34   A    
C24   O18   A    
O80   Zn28  S    
C86   N8    S    
C178  C214  S    
C24   O3    A    
C101  H132  S    
C168  C210  S    
H136  N45   S    
C150  H19   S    
H78   N69   S    
C127  N30   T    
C146  C208  S    
C205  C246  S    
O1    Zn21  S    
O34   Zn20  S    
C142  H196  S    
C152  H29   S    
O15   Zn23  S    
C95   H152  S    
C164  H76   S    
C250  C251  S    
C92   H139  S    
C27   O69   A    
C145  H208  S    
C169  H93   S    
C93   H142  S    
C163  N66   S    
C71   C203  S    
H175  N6    S    
C72   N23   S    
C100  H172  S    
O61   Zn25  S    
C84   C120  S    
C120  N24   T    
C197  N75   S    
C1    O94   A    
C128  N31   T    
O72   Zn30  S    
C158  N61   S    
C167  H88   S    
C8    O32   A    
C97   H159  S    
O21   Zn29  S    
C83   C85   S    
C15   C225  S    
C196  N74   S    
C172  H108  S    
O10   Zn8   S    
C162  N65   S    
C17   O53   A    
C156  H45   S    
C191  O9    A    
C166  H85   S    
C77   C114  S    
C112  C212  S    
O57   Zn26  S    
C229  C256  S    
C89   H129  S    
C248  C249  S    
C233  C251  T    
C90   C203  S    
C141  N44   S    
C15   O38   A    
O41   Zn9   S    
C57   O6    A    
C122  N26   T    
C116  N19   T    
C144  H204  S    
O42   Zn10  S    
H180  N7    S    
C73   C108  S    
C146  H176  S    
O45   Zn14  S    
C83   C215  S    
C27   C36   S    
C254  O76   A    
C155  H41   S    
C176  C211  S    
O87   Zn3   S    
C185  C203  S    
H8    N51   S    
C225  C242  T    
O52   Zn20  S    
C78   C81   S    
C254  O23   A    
C141  H192  S    
O50   Zn28  S    
C189  C207  S    
C222  C240  T    
C25   O54   A    
H105  N75   S    
C90   C125  S    
C184  C186  S    
C19   C65   S    
C202  O98   A    
O24   Zn10  S    
C192  C209  S    
C21   C63   S    
C160  H60   S    
C22   C64   S    
C9    C221  S    
C23   C61   S    
C81   C212  S    
C104  N8    S    
O12   Zn6   S    
C131  C157  S    
C21   O45   A    
C185  N46   S    
C137  N40   T    
C163  H73   S    
C16   C223  S    
C143  N47   S    
C23   O47   A    
O86   Zn2   S    
H56   N63   S    
C26   O70   A    
C71   N12   S    
C56   C65   T    
C136  N39   T    
C5    O81   A    
C39   C48   T    
C162  H67   S    
C148  H9    S    
C19   O51   A    
C154  H37   S    
O29   Zn15  S    
H70   N66   S    
C167  N71   S    
H149  N78   S    
O17   Zn20  S    
C35   O4    A    
C156  N60   S    
H83   N70   S    
C74   C109  S    
C216  C224  S    
C196  N57   S    
C10   C220  S    
O48   Zn17  S    
C95   H150  S    
C89   N23   S    
C148  H11   S    
O94   Zn4   S    
C169  H95   S    
C93   H144  S    
H189  N44   S    
C107  N11   T    
C60   C69   T    
C81   N3    S    
C189  N68   S    
H167  N4    S    
C99   H168  S    
C105  N9    T    
C191  O97   A    
C100  H174  S    
C102  H178  S    
C171  H103  S    
H184  N8    S    
H162  N3    S    
O102  Zn18  S    
O1    Zn4   S    
O56   Zn25  S    
C136  C178  S    
C33   O71   A    
O103  Zn19  S    
O73   Zn30  S    
C80   N2    S    
C144  H205  S    
C90   C113  S    
H74   N68   S    
C138  C181  S    
C85   C217  S    
C151  H23   S    
C159  H55   S    
C194  C211  S    
C194  N54   S    
C58   C66   T    
C157  H187  S    
C3    O79   A    
C160  N63   S    
C141  H191  S    
C181  H46   S    
C18   O52   A    
C158  H51   S    
C156  H47   S    
C179  H35   S    
C199  N60   S    
C198  N76   S    
O28   Zn11  S    
C22   O56   A    
C104  H186  S    
C98   N3    S    
C82   N4    S    
C142  H194  S    
O26   Zn13  S    
C77   C209  S    
C42   C51   T    
O20   Zn30  S    
C70   C201  S    
C82   C214  S    
C114  N17   T    
C255  O24   A    
C96   H156  S    
C199  N77   S    
C96   N80   S    
C26   C34   S    
H52   N62   S    
C87   H113  S    
C186  N64   S    
C2    C204  S    
C149  H15   S    
O50   Zn8   S    
C234  C252  T    
C213  C217  S    
C228  C245  T    
O50   Zn26  S    
C193  C195  S    
O39   Zn18  S    
C79   C123  S    
C166  N70   S    
C155  N59   S    
O49   Zn18  S    
C133  N37   T    
C161  H62   S    
O70   Zn1   S    
O74   Zn29  S    
C94   H146  S    
C180  C211  S    
C117  N20   T    
C194  N72   S    
C112  O2    A    
C53   C62   T    
C72   C107  S    
C88   H124  S    
C7    O31   A    
C55   C64   T    
C153  H32   S    
C194  C196  S    
C163  H71   S    
H30   N57   S    
C175  N79   S    
C147  H6    S    
C139  C182  S    
C165  H81   S    
C38   C47   T    
O1    Zn9   S    
C182  C217  S    
C80   C211  S    
O88   Zn4   S    
C190  C208  S    
H206  N49   S    
C45   C54   S    
C183  C218  S    
O14   Zn27  S    
C168  H198  S    
C14   O37   A    
C232  C250  T    
O90   Zn6   S    
C118  N21   T    
O91   Zn7   S    
C68   O7    A    
C186  C204  S    
C230  C248  T    
C47   C55   S    
C74   C206  S    
H79   N1    S    
C1    O93   A    
C175  H122  S    
H4    N50   S    
C151  N54   S    
C124  C206  S    
C87   H101  S    
C172  N75   S    
C156  H44   S    
O62   Zn32  S    
C73   N34   S    
C132  C168  S    
O72   Zn6   S    
C101  C204  S    
C197  C215  S    
C22   O46   A    
C113  C127  S    
C2    O15   A    
C57   C207  S    
H96   N73   S    
C93   N56   S    
H193  N46   S    
C6    O30   A    
C159  N62   S    
O25   Zn11  S    
C96   H157  S    
C16   O92   A    
O93   Zn9   S    
C159  H53   S    
C174  H117  S    
O68   Zn23  S    
C68   O22   A    
O44   Zn13  S    
C153  H31   S    
C176  C178  S    
C13   O104  A    
C158  H49   S    
C113  H143  S    
C104  H188  S    
C133  C176  S    
C9    O33   A    
C100  N5    S    
C202  O10   A    
C36   C44   T    
C191  C210  S    
C226  C243  T    
H171  N5    S    
C3    O26   A    
C178  H24   S    
H21   N54   S    
C94   N67   S    
O92   Zn8   S    
C70   C72   S    
C37   C45   T    
C193  N53   S    
O78   Zn23  S    
C84   C216  S    
C102  N6    S    
