data_mof_unit_15725.cif
_audit_creation_date              2013-03-05T15:55:32-0500
_audit_creation_method            fapswitch 2.2
_symmetry_space_group_name_H-M    P1
_symmetry_Int_Tables_number       1
_space_group_crystal_system       triclinic
_cell_length_a                    19.851856
_cell_length_b                    7.350154
_cell_length_c                    14.566907
_cell_angle_alpha                 90.680991
_cell_angle_beta                  103.15853
_cell_angle_gamma                 90.59345
_cell_volume                      2069.37833597

loop_
_atom_site_label
_atom_site_type_symbol
_atom_site_description
_atom_site_fract_x
_atom_site_fract_y
_atom_site_fract_z
_atom_type_partial_charge
O1    O     O_R   0.449560 0.506810 0.599700 -0.616200
O2    O     O_R   0.550440 0.006810 0.400300 -0.607965
O3    O     O_R   0.587960 0.180060 0.595760 -0.603582
O4    O     O_R   0.412040 0.680060 0.404240 -0.590860
C1    C     C_R   0.616469 0.346130 0.613431 0.961815
C2    C     C_R   0.384266 0.843523 0.385986 0.991030
O5    O     O_R   0.452380 0.177430 0.611700 -0.560200
O6    O     O_R   0.547620 0.677430 0.388300 -0.577888
O7    O     O_R   0.413900 0.001890 0.416350 -0.619668
O8    O     O_R   0.586100 0.501890 0.583650 -0.606711
C3    C     C_R   0.434376 0.345328 0.631947 0.958906
C4    C     C_R   0.566478 0.844376 0.368852 0.972208
O9    O     O_3   0.487530 0.337490 0.435890 -0.312734
O10   O     O_3   0.512470 0.837490 0.564110 -0.315819
V1    V     V_3+5 0.502310 0.064660 0.511890 1.158706
V2    V     V_3+5 0.497690 0.564660 0.488110 1.160210
C5    C     C_R   0.603849 0.842684 0.126317 0.084280
C6    C     C_R   0.396342 0.340132 0.872850 0.072945
C7    C     C_R   0.605209 0.845857 0.294943 -0.245465
C8    C     C_R   0.395758 0.351859 0.705702 -0.248971
C9    C     C_R   0.934862 0.901762 0.304770 0.041822
C10   C     C_R   0.067362 0.443735 0.698640 0.047453
C11   C     C_R   0.900069 0.902447 0.379590 -0.012857
C12   C     C_R   0.106963 0.504216 0.635513 -0.035476
C13   C     C_R   0.828004 0.885371 0.359396 -0.104586
C14   C     C_R   0.177721 0.471093 0.653653 -0.096581
C15   C     C_R   0.788580 0.848272 0.267895 0.057392
C16   C     C_R   0.212535 0.384035 0.735674 0.069531
C17   C     C_R   0.822894 0.857342 0.192198 -0.043134
C18   C     C_R   0.176399 0.360882 0.808799 0.000029
C19   C     C_R   0.714442 0.824974 0.247780 0.097446
C20   C     C_R   0.285597 0.352253 0.753015 0.098357
C21   C     C_R   0.677135 0.817220 0.152270 -0.064578
C22   C     C_R   0.322485 0.321757 0.846542 -0.037360
C23   C     C_R   0.715950 0.782361 0.085323 -0.071283
C24   C     C_R   0.283467 0.264267 0.910284 -0.135098
C25   C     C_R   0.781495 0.863162 0.099731 0.144284
C26   C     C_R   0.216946 0.334155 0.901017 0.161493
C27   C     C_R   0.675952 0.804577 0.317676 -0.178110
C28   C     C_R   0.322967 0.342527 0.680988 -0.153394
C29   C     C_R   0.569017 0.866952 0.200917 0.001381
C30   C     C_R   0.432698 0.353080 0.800197 0.001227
C31   C     C_R   0.896392 0.871754 0.210804 -0.164048
C32   C     C_R   0.102403 0.376992 0.788005 -0.126474
H1    H     H_    0.803101 0.910899 0.416558 0.160666
H2    H     H_    0.206338 0.526449 0.605304 0.157986
C33   C     C_R   0.238568 0.960094 0.176416 -0.136086
C34   C     C_R   0.782422 0.512991 0.788616 -0.035966
H3    H     H_    0.232415 0.030776 0.112288 0.162386
H4    H     H_    0.800087 0.633020 0.831564 0.157842
C35   C     C_R   0.301891 0.975167 0.243987 0.191167
C36   C     C_R   0.717550 0.518482 0.725684 0.180260
C37   C     C_R   0.314727 0.852554 0.319598 -0.230131
C38   C     C_R   0.689177 0.358389 0.674571 -0.208124
C39   C     C_R   0.259473 0.746234 0.335356 -0.142777
C40   C     C_R   0.732829 0.206285 0.680013 -0.165770
H5    H     H_    0.268566 0.658948 0.396295 0.156742
H6    H     H_    0.714487 0.087940 0.636045 0.158347
C41   C     C_R   0.192158 0.757791 0.276459 0.009627
C42   C     C_R   0.799997 0.204638 0.740271 -0.054792
C43   C     C_R   0.181771 0.859228 0.191896 -0.266863
C44   C     C_R   0.823151 0.356382 0.801202 -0.283562
O11   O     O_R   0.913920 0.203370 0.916260 -0.618350
O12   O     O_R   0.086080 0.703370 0.083740 -0.605109
O13   O     O_R   0.047620 0.535540 0.888290 -0.604428
O14   O     O_R   0.952380 0.035540 0.111710 -0.607375
C45   C     C_R   0.063206 0.369286 0.863162 0.846206
C46   C     C_R   0.933108 0.869996 0.132514 0.915869
O15   O     O_R   0.912040 0.532780 0.904220 -0.575259
O16   O     O_R   0.087960 0.032780 0.095780 -0.598927
O17   O     O_R   0.949550 0.708160 0.099720 -0.578149
O18   O     O_R   0.050450 0.208160 0.900280 -0.592799
C47   C     C_R   0.888278 0.362635 0.878312 0.924585
C48   C     C_R   0.113567 0.865108 0.119399 0.919441
O19   O     O_3   0.012480 0.375300 0.064060 -0.328034
O20   O     O_3   0.987520 0.875300 0.935940 -0.292859
V3    V     V_3+5 0.997690 0.648180 0.988110 1.177704
V4    V     V_3+5 0.002310 0.148180 0.011890 1.146568
C49   C     C_2   0.494316 0.904294 0.185055 0.400142
H7    H     H_    0.474086 0.028343 0.153945 0.002669
O21   O     O_2   0.454842 0.796554 0.209213 -0.640607
C50   C     C_2   0.509090 0.351785 0.818709 0.411438
H8    H     H_    0.539660 0.465827 0.851409 -0.011474
O22   O     O_2   0.538839 0.224074 0.792886 -0.630465
C51   C     C_3   0.350405 0.138897 0.249583 -0.352796
C52   C     C_3   0.347864 0.255765 0.163921 -0.459266
C53   C     C_3   0.372971 0.448809 0.194635 -0.701628
H9    H     H_    0.340931 0.508969 0.239950 0.252774
H10   H     H_    0.427384 0.446631 0.235669 0.288282
H11   H     H_    0.368670 0.537436 0.132948 0.245494
H12   H     H_    0.382092 0.192823 0.125053 0.201970
H13   H     H_    0.298057 0.259461 0.114395 0.246333
H14   H     H_    0.341645 0.225286 0.308971 0.207952
H15   H     H_    0.404680 0.093633 0.267425 0.222369
C54   C     C_3   0.680189 0.696936 0.720506 -0.371862
C55   C     C_3   0.621537 0.683566 0.771848 -0.379341
C56   C     C_3   0.581825 0.859352 0.766663 -0.688191
H16   H     H_    0.599286 0.958935 0.720649 0.289181
H17   H     H_    0.525970 0.833069 0.737709 0.264734
H18   H     H_    0.589301 0.919342 0.838098 0.256215
H19   H     H_    0.585080 0.574460 0.740204 0.230253
H20   H     H_    0.642702 0.648093 0.846584 0.196835
H21   H     H_    0.715592 0.808483 0.754626 0.189237
H22   H     H_    0.662275 0.739921 0.646314 0.210468
C57   C     C_2   0.135058 0.655831 0.302946 0.451984
H23   H     H_    0.085557 0.636860 0.253865 0.022793
O23   O     O_2   0.143111 0.587839 0.380436 -0.594867
C58   C     C_2   0.845855 0.048703 0.734051 0.516127
H24   H     H_    0.900759 0.057231 0.765343 0.058067
O24   O     O_2   0.823230 0.909546 0.690831 -0.582015
C59   C     C_2   0.706902 0.604261 0.036099 0.424075
H25   H     H_    0.661924 0.518782 0.035257 0.020843
O25   O     O_2   0.751562 0.548876 0.997988 -0.624640
C60   C     C_2   0.294186 0.074477 0.943644 0.480438
H26   H     H_    0.344428 0.012802 0.954165 0.019066
O26   O     O_2   0.245572 0.979464 0.953411 -0.611753
C61   C     C_3   0.568728 0.861989 0.020507 -0.438855
C62   C     C_3   0.488867 0.857219 0.990360 -0.287591
C63   C     C_3   0.459410 0.837032 0.884839 -0.924208
H27   H     H_    0.469426 0.962415 0.848536 0.302314
H28   H     H_    0.481300 0.718090 0.856275 0.255667
H29   H     H_    0.402569 0.815079 0.870685 0.255577
H30   H     H_    0.467058 0.745698 0.025034 0.229092
H31   H     H_    0.469475 0.986741 0.009761 0.197954
H32   H     H_    0.587551 0.991034 0.996760 0.191759
H33   H     H_    0.587265 0.754036 0.979629 0.176302
C64   C     C_3   0.430361 0.358669 0.978184 -0.426447
C65   C     C_3   0.509202 0.381138 0.014623 -0.330960
C66   C     C_3   0.531600 0.406834 0.121345 -0.877319
H34   H     H_    0.507387 0.528674 0.143684 0.294943
H35   H     H_    0.517380 0.289917 0.159308 0.254080
H36   H     H_    0.588628 0.425245 0.142656 0.248986
H37   H     H_    0.536334 0.262158 0.994159 0.214189
H38   H     H_    0.526664 0.504800 0.986170 0.217101
H39   H     H_    0.405059 0.473700 0.005665 0.206025
H40   H     H_    0.417396 0.234654 0.009084 0.167707
C67   C     C_2   0.704418 0.710370 0.408101 0.552322
H41   H     H_    0.687428 0.746294 0.471618 -0.020018
O27   O     O_2   0.745313 0.586372 0.411245 -0.587073
C68   C     C_2   0.288767 0.288230 0.582307 0.520035
H42   H     H_    0.307774 0.339990 0.523311 -0.019790
O28   O     O_2   0.240865 0.178305 0.566663 -0.571180
C69   C     C_3   0.012640 0.933182 0.325164 -0.440468
C70   C     C_3   0.033871 0.131090 0.352633 -0.293817
C71   C     C_3   0.112474 0.148796 0.384722 -0.717220
H43   H     H_    0.134085 0.036233 0.432114 0.309040
H44   H     H_    0.136399 0.147387 0.322789 0.237348
H45   H     H_    0.126299 0.277371 0.425042 0.285066
H46   H     H_    0.015432 0.220371 0.291156 0.227943
H47   H     H_    0.010325 0.180049 0.410116 0.176393
H48   H     H_    0.037420 0.838569 0.380693 0.226662
H49   H     H_    0.034187 0.900635 0.263720 0.161135
C72   C     C_3   0.988984 0.469863 0.673389 -0.414024
C73   C     C_3   0.953362 0.328575 0.599534 -0.376472
C74   C     C_3   0.879920 0.384617 0.552549 -0.683195
H50   H     H_    0.849401 0.411070 0.606230 0.260785
H51   H     H_    0.881398 0.509638 0.510892 0.283152
H52   H     H_    0.853922 0.274163 0.504225 0.245884
H53   H     H_    0.982804 0.309811 0.544062 0.192187
H54   H     H_    0.951748 0.196100 0.634803 0.236845
H55   H     H_    0.964795 0.457505 0.734408 0.179731
H56   H     H_    0.977320 0.610367 0.647910 0.229874
C75   C     C_2   0.937596 0.916498 0.480486 0.386290
H57   H     H_    0.992498 0.945341 0.500792 0.076913
O29   O     O_2   0.907353 0.891873 0.543580 -0.574500
C76   C     C_2   0.077118 0.619982 0.554506 0.556796
H58   H     H_    0.024930 0.597151 0.513246 -0.010841
O30   O     O_2   0.110673 0.748348 0.535386 -0.570097
C77   C     C_3   0.782254 0.037346 0.045430 -0.398359
C78   C     C_3   0.753171 0.010608 0.938583 -0.267049
C79   C     C_3   0.702563 0.159596 0.899254 -0.844291
H59   H     H_    0.730282 0.289722 0.902563 0.307959
H60   H     H_    0.678396 0.130070 0.824785 0.266114
H61   H     H_    0.661396 0.172185 0.938967 0.253614
H62   H     H_    0.796430 0.009684 0.902146 0.201042
H63   H     H_    0.725672 0.878979 0.920812 0.217062
H64   H     H_    0.751245 0.138247 0.075222 0.205996
H65   H     H_    0.834128 0.100059 0.056596 0.203064
C80   C     C_3   0.208696 0.457853 0.981973 -0.526547
C81   C     C_3   0.169274 0.361919 0.046782 -0.173672
C82   C     C_3   0.191973 0.407586 0.151427 -0.899790
H66   H     H_    0.225198 0.530349 0.162443 0.277709
H67   H     H_    0.145393 0.424370 0.179771 0.256342
H68   H     H_    0.219376 0.297692 0.193905 0.254016
H69   H     H_    0.117008 0.410296 0.028001 0.258812
H70   H     H_    0.166133 0.214854 0.032689 0.221199
H71   H     H_    0.260232 0.506342 0.022260 0.215481
H72   H     H_    0.181649 0.584447 0.954342 0.226939

loop_
_geom_bond_atom_site_label_1
_geom_bond_atom_site_label_2
_geom_bond_distance
_ccdc_geom_bond_type
O14   C46   1.330657 A    
C53   H9    1.107183 S    
C27   C67   1.491557 S    
C39   C41   1.418151 A    
C74   H51   1.110995 S    
C77   C78   1.541324 S    
C37   C39   1.402755 A    
O15   V3    2.025666 S    
C75   H57   1.080415 S    
O1    C3    1.338126 A    
C79   H59   1.093547 S    
C24   C60   1.484120 S    
C65   C66   1.525382 S    
C56   H18   1.103036 S    
C2    O7    1.323540 A    
C60   H26   1.079447 S    
O3    V1    2.025546 S    
C33   H3    1.057517 S    
C78   H63   1.104458 S    
C82   H66   1.100468 S    
C54   H22   1.108949 S    
O5    C3    1.336468 A    
C57   O23   1.217541 D    
C41   C57   1.477762 S    
C23   C25   1.395194 A    
C64   H39   1.104408 S    
C34   H4    1.083188 S    
C55   H20   1.109265 S    
C52   H12   1.082471 S    
C6    C30   1.413770 A    
C25   C77   1.514628 S    
C8    C28   1.408171 A    
C82   H68   1.094974 S    
O16   V4    2.052399 S    
C78   C79   1.520668 S    
C1    O8    1.330185 A    
C69   C70   1.533123 S    
C58   H24   1.082310 S    
C18   C26   1.417150 A    
C36   C54   1.507746 S    
C42   C44   1.422373 A    
C45   O18   1.352920 A    
O12   V3    2.010723 S    
C62   C63   1.519947 S    
O18   V4    2.113444 S    
C56   H17   1.106979 S    
C9    C31   1.420872 A    
C51   H14   1.113344 S    
C10   C32   1.424480 A    
C54   C55   1.523340 S    
C19   C27   1.413658 A    
C31   C46   1.486738 S    
C54   H21   1.110195 S    
C30   C50   1.478786 S    
O16   C48   1.356121 A    
C70   H47   1.106182 S    
C19   C21   1.419694 A    
C44   C47   1.507229 S    
O15   C47   1.350714 A    
C61   H33   1.101907 S    
C42   C58   1.485712 S    
C5    C61   1.549165 S    
C66   H36   1.110044 S    
O5    V1    2.104263 S    
O2    C4    1.340874 A    
O6    V2    2.109781 S    
C55   H19   1.098500 S    
C17   C31   1.424648 A    
C74   H52   1.110550 S    
C76   O30   1.220339 D    
C18   C32   1.437161 A    
C5    C21   1.432295 A    
C77   H64   1.113887 S    
C71   H44   1.111116 S    
C36   C38   1.425049 A    
C56   H16   1.103352 S    
C11   C75   1.490676 S    
C78   H62   1.107615 S    
C63   H28   1.099007 S    
C68   H42   1.085409 S    
O14   V4    2.109520 S    
C79   H61   1.107557 S    
C38   C40   1.413526 A    
C3    C8    1.455654 S    
C41   C43   1.423088 A    
O13   V3    2.104005 S    
C15   C19   1.441726 A    
C1    C38   1.514865 S    
C16   C20   1.436561 A    
C64   H40   1.075808 S    
C9    C69   1.519131 S    
O4    C2    1.331475 A    
C82   H67   1.102604 S    
C49   O21   1.218344 D    
C52   C53   1.526631 S    
C33   C35   1.411585 A    
C80   H72   1.112183 S    
O11   C47   1.354495 A    
O13   C45   1.331069 A    
C51   C52   1.514997 S    
C40   C42   1.419960 A    
C72   H55   1.106471 S    
C35   C37   1.410959 A    
C20   C22   1.413868 A    
O4    V2    2.052281 S    
C12   C76   1.477679 S    
C73   H54   1.109875 S    
C70   H46   1.111892 S    
C65   H38   1.089019 S    
C6    C64   1.533083 S    
C67   O27   1.221163 D    
C51   H15   1.105064 S    
C60   O26   1.220753 D    
O6    C4    1.331599 A    
C55   C56   1.514240 S    
C59   O25   1.219076 D    
O1    V2    2.109784 S    
C62   H31   1.088630 S    
O20   V3    1.836399 S    
O2    V1    2.105982 S    
C6    C22   1.433084 A    
C73   C74   1.525964 S    
C80   C81   1.530259 S    
C7    C27   1.404818 A    
C73   H53   1.107992 S    
C69   H49   1.101203 S    
C50   O22   1.214772 D    
C39   H5    1.084055 S    
C76   H58   1.083153 S    
C10   C12   1.411702 A    
C53   H11   1.104199 S    
C13   C15   1.405508 A    
C2    C37   1.496978 S    
C24   C26   1.400174 A    
C13   H1    1.076380 S    
C77   H65   1.100698 S    
O17   V3    2.109509 S    
C71   H45   1.105192 S    
C23   C59   1.474526 S    
C81   C82   1.520307 S    
C33   C43   1.405063 A    
C66   H34   1.100973 S    
C57   H23   1.082225 S    
C63   H29   1.109654 S    
C26   C80   1.519776 S    
C59   H25   1.084153 S    
C75   O29   1.221009 D    
C71   H43   1.109626 S    
C12   C14   1.393487 A    
C70   C71   1.527279 S    
O3    C1    1.337317 A    
C29   C49   1.477098 S    
C8    C30   1.404489 A    
C63   H27   1.106421 S    
C58   O24   1.220943 D    
C68   O28   1.220689 D    
C43   C48   1.517118 S    
C79   H60   1.099681 S    
C67   H41   1.085214 S    
C14   C16   1.402149 A    
C72   H56   1.110325 S    
C81   H70   1.096351 S    
C9    C11   1.416925 A    
O7    V1    2.021387 S    
C16   C18   1.424061 A    
O8    V2    2.037170 S    
C61   C62   1.545649 S    
C15   C17   1.423780 A    
C46   O17   1.347300 A    
C28   C68   1.490960 S    
C4    C7    1.458567 S    
C69   H48   1.104165 S    
C21   C23   1.396683 A    
C40   H6    1.083267 S    
C22   C24   1.403805 A    
C62   H30   1.102947 S    
C20   C28   1.417748 A    
O19   V4    1.816064 S    
C5    C29   1.425099 A    
C81   H69   1.076364 S    
C14   H2    1.080975 S    
C49   H7    1.064205 S    
C7    C29   1.405534 A    
C34   C36   1.401766 A    
C11   C13   1.397404 A    
C80   H71   1.110061 S    
C50   H8    1.070596 S    
O9    V2    1.816677 S    
C17   C25   1.410553 A    
C74   H50   1.109459 S    
C53   H10   1.109507 S    
O12   C48   1.350429 A    
O10   V1    1.837022 S    
C32   C45   1.481802 S    
C52   H13   1.084031 S    
C35   C51   1.523278 S    
C34   C44   1.403283 A    
C72   C73   1.532259 S    
C65   H37   1.104715 S    
C61   H32   1.103752 S    
C10   C72   1.529840 S    
C64   C65   1.540464 S    
C66   H35   1.096053 S    
O11   V4    2.024692 S    
