data_mof_unit_7520.cif
_audit_creation_date              2012-10-26T18:28:21-0400
_audit_creation_method            fapswitch 2.2
_symmetry_space_group_name_H-M    P1
_symmetry_Int_Tables_number       1
_space_group_crystal_system       triclinic
_cell_length_a                    27.812447
_cell_length_b                    11.05347
_cell_length_c                    9.895799
_cell_angle_alpha                 111.626976
_cell_angle_beta                  97.860965
_cell_angle_gamma                 92.268309
_cell_volume                      2788.06106314

loop_
_atom_site_label
_atom_site_type_symbol
_atom_type_description
_atom_site_fract_x
_atom_site_fract_y
_atom_site_fract_z
_atom_type_partial_charge
C1    C     C_R   0.496440 0.253815 0.439591 0.577205
C2    C     C_R   0.870417 0.394204 0.494812 0.017171
C3    C     C_R   0.354819 0.500456 0.504741 -0.028816
C4    C     C_R   0.645217 0.500096 0.495776 -0.027940
C5    C     C_R   0.972933 0.397049 0.512077 0.026908
C6    C     C_R   0.027298 0.610070 0.490227 0.028341
C7    C     C_R   0.976331 0.612988 0.493010 -0.020609
C8    C     C_R   0.024606 0.401664 0.527169 -0.021036
C9    C     C_R   0.949142 0.504858 0.499711 0.029874
C10   C     C_R   0.051414 0.505697 0.511064 0.030003
C11   C     C_R   0.943988 0.286864 0.506769 -0.127323
C12   C     C_R   0.503544 0.746183 0.560410 0.577256
C13   C     C_R   0.055117 0.707734 0.465833 -0.126388
C14   C     C_R   0.893845 0.285921 0.498847 -0.087559
C15   C     C_R   0.105010 0.705940 0.468240 -0.088170
C16   C     C_R   0.407592 0.500021 0.501363 0.559802
C17   C     C_R   0.592409 0.499986 0.498670 0.560307
C18   C     C_R   0.050496 0.306239 0.560450 -0.107441
C19   C     C_R   0.951632 0.721426 0.490456 -0.107713
C20   C     C_2   0.494503 0.113272 0.403289 0.208733
C21   C     C_2   0.505441 0.886723 0.596713 0.208835
C22   C     C_2   0.500540 0.069395 0.513252 -0.085800
C23   C     C_R   0.102780 0.505317 0.515336 -0.068139
C24   C     C_2   0.499211 0.930581 0.486753 -0.085723
C25   C     C_2   0.504587 0.510865 0.080827 0.342729
C26   C     C_2   0.495360 0.489275 0.919204 0.342636
C27   C     C_R   0.178496 0.406325 0.538968 0.406081
C28   C     C_R   0.822443 0.608188 0.485188 0.406823
C29   C     C_R   0.179639 0.604923 0.495962 0.441861
C30   C     C_R   0.819943 0.394178 0.490770 0.441003
C31   C     C_R   0.287110 0.523553 0.640419 -0.092203
C32   C     C_R   0.713476 0.487611 0.363870 -0.093184
C33   C     C_R   0.336998 0.521956 0.637059 -0.122866
C34   C     C_R   0.897707 0.504281 0.494174 -0.068056
C35   C     C_R   0.663488 0.487523 0.366185 -0.122736
C36   C     C_R   0.321796 0.479911 0.375673 -0.115271
C37   C     C_R   0.677856 0.512764 0.622974 -0.116194
C38   C     C_R   0.271614 0.479211 0.378094 0.316210
C39   C     C_R   0.728113 0.514764 0.621618 0.315906
C40   C     C_R   0.254291 0.503173 0.511739 0.235760
C41   C     C_R   0.745856 0.500297 0.490781 0.239492
C42   C     C_3   0.228102 0.328239 0.168981 -0.024456
C43   C     C_3   0.190550 0.309406 0.034008 -0.309576
C44   C     C_3   0.769488 0.655028 0.841384 -0.017070
C45   C     C_R   0.127679 0.404400 0.540920 0.028778
C46   C     C_3   0.807130 0.665777 0.973204 -0.323259
C47   C     C_R   0.873539 0.613151 0.488113 0.026927
C48   C     C_R   0.100798 0.306339 0.567286 0.250194
C49   C     C_R   0.901491 0.722561 0.487433 0.249162
C50   C     C_R   0.129257 0.606275 0.493633 0.017496
Cl1   Cl    Cl    0.515723 0.992405 0.784906 -0.493360
Cl2   Cl    Cl    0.484462 0.007614 0.215095 -0.493978
Cl3   Cl    Cl    0.447529 0.370871 0.805336 -0.580827
Cl4   Cl    Cl    0.552310 0.629586 0.194766 -0.583949
Cl5   Cl    Cl    0.127024 0.180562 0.613120 -0.554998
Cl6   Cl    Cl    0.877056 0.866635 0.483266 -0.541267
Cu1   Cu    Cu3+1 0.508480 0.521810 0.644910 1.095083
Cu2   Cu    Cu3+1 0.491520 0.478190 0.355090 1.095740
H1    H     H_    0.334671 0.464242 0.272600 0.154910
H2    H     H_    0.124523 0.783285 0.448895 0.196153
H3    H     H_    0.958796 0.197718 0.504685 0.134018
H4    H     H_    0.039373 0.785853 0.440581 0.128128
H5    H     H_    0.032661 0.231130 0.586369 0.149089
H6    H     H_    0.970578 0.809857 0.494600 0.148536
H7    H     H_    0.492909 0.861357 0.373470 0.211370
H8    H     H_    0.506698 0.138605 0.626536 0.211353
H9    H     H_    0.212178 0.278613 0.234747 0.165273
H10   H     H_    0.261127 0.281428 0.131003 0.146745
H11   H     H_    0.205472 0.356288 0.964695 0.202975
H12   H     H_    0.664611 0.520973 0.723665 0.152824
H13   H     H_    0.181175 0.203413 0.967780 0.155811
H14   H     H_    0.156912 0.353908 0.068555 0.172185
H15   H     H_    0.735770 0.694501 0.882462 0.145239
H16   H     H_    0.784531 0.715605 0.785491 0.170063
H17   H     H_    0.841444 0.628404 0.935729 0.170479
H18   H     H_    0.815044 0.769643 0.049689 0.148922
H19   H     H_    0.793038 0.607854 0.032859 0.185205
H20   H     H_    0.548935 0.623150 0.930443 0.248793
H21   H     H_    0.451143 0.376619 0.069489 0.248961
H22   H     H_    0.639220 0.477377 0.266468 0.191006
H23   H     H_    0.361566 0.538317 0.738283 0.189350
H24   H     H_    0.727141 0.477352 0.263234 0.148709
H25   H     H_    0.273863 0.541265 0.743341 0.153985
H26   H     H_    0.873450 0.199197 0.496030 0.205964
N1    N     N_R   0.202966 0.505267 0.516478 -0.399296
N2    N     N_R   0.797256 0.500437 0.487593 -0.397999
N3    N     N_2   0.478780 0.445430 0.137360 -0.312169
N4    N     N_2   0.521220 0.554570 0.862640 -0.312702
O1    O     O_R   0.504520 0.332330 0.577400 -0.486298
O2    O     O_2   0.797787 0.709733 0.481535 -0.413395
O3    O     O_2   0.793570 0.288755 0.490270 -0.435128
O4    O     O_2   0.205290 0.702578 0.477834 -0.435726
O5    O     O_3   0.239604 0.463276 0.251719 -0.528376
O6    O     O_3   0.759869 0.522588 0.745445 -0.529014
O7    O     O_R   0.495480 0.667670 0.422600 -0.485925
O8    O     O_R   0.490210 0.295500 0.332650 -0.446986
O9    O     O_R   0.509790 0.704500 0.667350 -0.446979
O10   O     O_R   0.437420 0.518430 0.622370 -0.449079
O11   O     O_R   0.562580 0.481570 0.377630 -0.448858
O12   O     O_R   0.423110 0.481600 0.377610 -0.516266
O13   O     O_R   0.576890 0.518400 0.622390 -0.516562
O14   O     O_2   0.203478 0.309685 0.556429 -0.415693

loop_
_geom_bond_atom_site_label_1
_geom_bond_atom_site_label_2
_ccdc_geom_bond_type
C48   Cl5   S    
C28   C47   A    
C43   H14   S    
C23   C45   A    
C42   O5    S    
C15   H2    S    
C14   H26   S    
C36   H1    S    
C16   O10   A    
Cu2   N3    S    
H21   N3    S    
C47   C49   A    
C41   N2    S    
Cu1   O1    S    
C5    C11   A    
C11   C14   A    
C18   H5    S    
C3    C33   A    
C35   H22   S    
C25   N3    D    
C31   H25   S    
C31   C40   A    
C15   C50   A    
C27   N1    A    
C17   O13   A    
C22   H8    S    
Cu2   O8    S    
C13   H4    S    
C43   H13   S    
C32   C41   A    
C31   C33   A    
C12   O7    A    
C30   N2    A    
C29   N1    A    
C27   C45   A    
C4    C35   A    
C43   H11   S    
C37   H12   S    
C42   H10   S    
C46   H18   S    
C46   H17   S    
C44   C46   S    
C29   C50   A    
C37   C39   A    
C32   C35   A    
Cu2   O12   S    
C25   Cl4   S    
C39   C41   A    
C16   O12   A    
C23   C50   A    
C25   C26   S    
C12   C21   S    
C8    C18   A    
C40   N1    S    
Cu2   O7    S    
C39   O6    S    
C5    C9    A    
C5    C8    A    
C19   C49   A    
C19   H6    S    
Cu1   O9    S    
C44   H16   S    
C17   O11   A    
C12   O9    A    
C24   H7    S    
C4    C17   S    
C26   N4    D    
C20   C22   D    
C7    C19   A    
C13   C15   A    
C28   N2    A    
C9    C34   A    
C22   C24   S    
C42   C43   S    
C26   Cl3   S    
C21   Cl1   S    
Cu1   O13   S    
C45   C48   A    
H20   N4    S    
C7    C9    A    
C1    C20   S    
C1    O1    A    
Cu2   O11   S    
C30   O3    S    
C11   H3    S    
C18   C48   A    
C6    C10   A    
C46   H19   S    
C6    C7    A    
C10   C23   A    
C49   Cl6   S    
C32   H24   S    
C27   O14   S    
Cu1   N4    S    
C2    C30   A    
C36   C38   A    
C20   Cl2   S    
C6    C13   A    
C38   C40   A    
C2    C34   A    
Cu1   Cu2   S    
C42   H9    S    
C3    C36   A    
C1    O8    A    
Cu1   O10   S    
C38   O5    S    
C44   H15   S    
C2    C14   A    
C44   O6    S    
C4    C37   A    
C8    C10   A    
C21   C24   D    
C28   O2    S    
C34   C47   A    
C33   H23   S    
C29   O4    S    
C3    C16   S    
