data_mof_unit_34614.cif
_audit_creation_date              2012-12-11T15:39:22-0500
_audit_creation_method            fapswitch 2.2
_symmetry_space_group_name_H-M    P1
_symmetry_Int_Tables_number       1
_space_group_crystal_system       triclinic
_cell_length_a                    17.302002
_cell_length_b                    24.276552
_cell_length_c                    14.947589
_cell_angle_alpha                 89.963636
_cell_angle_beta                  125.636872
_cell_angle_gamma                 89.947968
_cell_volume                      5102.67637765

loop_
_atom_site_label
_atom_site_type_symbol
_atom_type_description
_atom_site_fract_x
_atom_site_fract_y
_atom_site_fract_z
_atom_type_partial_charge
C1    C     C_R   0.350952 0.348145 0.909075 -0.141578
C2    C     C_R   0.689356 0.373943 0.093745 -0.129864
C3    C     C_R   0.852742 0.847641 0.909098 -0.140231
C4    C     C_R   0.190506 0.875859 0.092582 -0.125514
C5    C     C_R   0.381065 0.683736 0.000828 0.046238
C6    C     C_R   0.685970 0.641865 0.002704 0.042000
C7    C     C_R   0.885133 0.184653 0.000871 0.052874
C8    C     C_R   0.188690 0.136930 0.000905 0.040804
C9    C     C_R   0.569833 0.499930 0.368244 0.044277
C10   C     C_R   0.519042 0.499984 0.692236 0.044812
C11   C     C_R   0.950349 0.000041 0.275709 0.040607
C12   C     C_R   0.934553 0.000068 0.632292 0.049661
C13   C     C_R   0.173970 0.500986 0.723250 0.071909
C14   C     C_R   0.802151 0.500734 0.368540 0.082412
C15   C     C_R   0.674125 0.001009 0.723591 0.072599
C16   C     C_R   0.302448 0.000733 0.368265 0.081730
C17   C     C_R   0.020874 0.552516 0.624340 0.168851
C18   C     C_R   0.926814 0.552247 0.534774 0.163439
C19   C     C_R   0.521219 0.052598 0.623970 0.167316
C20   C     C_R   0.427309 0.052295 0.534132 0.162792
C21   C     C_R   0.071025 0.502860 0.667418 0.032520
C22   C     C_R   0.880872 0.502416 0.485368 0.030351
C23   C     C_R   0.571226 0.002940 0.667539 0.032936
C24   C     C_R   0.381384 0.002437 0.484943 0.031685
C25   C     C_R   0.017940 0.453861 0.637572 -0.197232
C26   C     C_R   0.922675 0.453581 0.545971 -0.201848
C27   C     C_R   0.518124 0.953958 0.637684 -0.199091
C28   C     C_R   0.423036 0.953637 0.545749 -0.203487
C29   C     C_3   0.938443 0.603083 0.486956 -0.526934
C30   C     C_3   0.041293 0.603294 0.584264 -0.523892
C31   C     C_3   0.439214 0.102932 0.486083 -0.525258
C32   C     C_3   0.541946 0.103178 0.583675 -0.524104
C33   C     C_R   0.290442 0.768220 0.901665 -0.172695
C34   C     C_R   0.840900 0.689580 0.103438 -0.170175
C35   C     C_R   0.794900 0.269175 0.903288 -0.173999
C36   C     C_R   0.342261 0.186469 0.101250 -0.167976
C37   C     C_R   0.744325 0.313102 0.903969 -0.167679
C38   C     C_R   0.388814 0.232776 0.101263 -0.170749
C39   C     C_R   0.243532 0.814375 0.901753 -0.168917
C40   C     C_R   0.891418 0.733384 0.102855 -0.171480
C41   C     C_R   0.760279 0.329264 0.003488 0.146447
C42   C     C_R   0.356068 0.259004 0.001437 0.142676
C43   C     C_R   0.262351 0.833220 0.001257 0.144034
C44   C     C_R   0.860894 0.758191 0.002514 0.142543
C45   C     C_R   0.441845 0.651322 0.092077 -0.121412
C46   C     C_R   0.595322 0.630303 0.910273 -0.122174
C47   C     C_R   0.944868 0.152144 0.091760 -0.139042
C48   C     C_R   0.098382 0.124101 0.908408 -0.125246
C49   C     C_R   0.841290 0.310423 0.103208 -0.169668
C50   C     C_R   0.289813 0.232182 0.901922 -0.172579
C51   C     C_R   0.342767 0.813669 0.100988 -0.167710
C52   C     C_R   0.794267 0.731210 0.903522 -0.173928
C53   C     C_R   0.389844 0.767555 0.101012 -0.171822
C54   C     C_R   0.744174 0.687072 0.904203 -0.167989
C55   C     C_R   0.892366 0.266875 0.102625 -0.172416
C56   C     C_R   0.243333 0.185867 0.902019 -0.169253
C57   C     C_R   0.357129 0.741411 0.001227 0.142944
C58   C     C_R   0.760192 0.670692 0.003685 0.146095
C59   C     C_R   0.861923 0.242185 0.002318 0.142656
C60   C     C_R   0.262179 0.166858 0.001487 0.143662
C61   C     C_R   0.585736 0.549864 0.607919 -0.170258
C62   C     C_R   0.605428 0.549812 0.530907 -0.170542
C63   C     C_R   0.893750 0.049998 0.465185 -0.173826
C64   C     C_R   0.895918 0.049969 0.374082 -0.168457
C65   C     C_R   0.602326 0.499908 0.482076 0.140355
C66   C     C_R   0.564861 0.499949 0.636498 0.150421
C67   C     C_R   0.907562 0.000096 0.335976 0.144435
C68   C     C_R   0.902176 0.000113 0.517542 0.142698
C69   C     C_R   0.605461 0.450004 0.531044 -0.169067
C70   C     C_R   0.585808 0.449997 0.608086 -0.170118
C71   C     C_R   0.895788 0.950261 0.374088 -0.168452
C72   C     C_R   0.893595 0.950246 0.465175 -0.173001
C73   C     C_R   0.550829 0.454080 0.303913 -0.122720
C74   C     C_R   0.495752 0.454160 0.726362 -0.131693
C75   C     C_R   0.980905 0.953895 0.249240 -0.126140
C76   C     C_R   0.950556 0.954322 0.696084 -0.140370
C77   C     C_R   0.232360 0.546455 0.753332 -0.145045
C78   C     C_R   0.753103 0.545954 0.304283 -0.158343
C79   C     C_R   0.732486 0.046477 0.753655 -0.145988
C80   C     C_R   0.253242 0.045963 0.304146 -0.159355
C81   C     C_R   0.550754 0.545818 0.303820 -0.122787
C82   C     C_R   0.495834 0.545824 0.726445 -0.131987
C83   C     C_R   0.980921 0.046131 0.249198 -0.126325
C84   C     C_R   0.950586 0.045749 0.696111 -0.140791
C85   C     C_R   0.230406 0.454380 0.748769 -0.123129
C86   C     C_R   0.755366 0.454657 0.304921 -0.136316
C87   C     C_R   0.730476 0.954377 0.748982 -0.123938
C88   C     C_R   0.255501 0.954645 0.304783 -0.137727
C89   C     C_R   0.351987 0.652267 0.909117 -0.146101
C90   C     C_R   0.689374 0.625932 0.093867 -0.129868
C91   C     C_R   0.853701 0.152726 0.909125 -0.144681
C92   C     C_R   0.190491 0.124066 0.092720 -0.125485
C93   C     C_R   0.441463 0.348775 0.092226 -0.122122
C94   C     C_R   0.595225 0.369560 0.910205 -0.122469
C95   C     C_R   0.944521 0.847920 0.091907 -0.139890
C96   C     C_R   0.098318 0.875826 0.908304 -0.125385
C97   C     C_R   0.380032 0.316632 0.000924 0.044525
C98   C     C_R   0.685919 0.357965 0.002597 0.041803
C99   C     C_R   0.884149 0.815667 0.000968 0.051080
C100  C     C_R   0.188693 0.862996 0.000763 0.040640
H1    H     H_    0.313389 0.334139 0.825017 0.085654
H2    H     H_    0.747657 0.369919 0.179434 0.093414
H3    H     H_    0.814788 0.833811 0.824868 0.084263
H4    H     H_    0.248621 0.870861 0.178119 0.093197
H5    H     H_    0.929432 0.595678 0.407926 0.200916
H6    H     H_    0.059872 0.639139 0.639622 0.191617
H7    H     H_    0.430416 0.095270 0.407239 0.200252
H8    H     H_    0.560415 0.139168 0.638684 0.191360
H9    H     H_    0.687110 0.330241 0.825812 0.104826
H10   H     H_    0.443905 0.250374 0.179815 0.106481
H11   H     H_    0.186195 0.831074 0.823242 0.108057
H12   H     H_    0.946949 0.750899 0.181242 0.106567
H13   H     H_    0.859898 0.324827 0.181846 0.107616
H14   H     H_    0.266810 0.249305 0.823285 0.105943
H15   H     H_    0.363580 0.829779 0.179479 0.107857
H16   H     H_    0.773495 0.747080 0.824831 0.105597
H17   H     H_    0.445257 0.749964 0.179567 0.105592
H18   H     H_    0.687219 0.669919 0.826058 0.104607
H19   H     H_    0.948204 0.249366 0.181020 0.105682
H20   H     H_    0.186280 0.169132 0.823525 0.107717
H21   H     H_    0.579217 0.589135 0.637008 0.102982
H22   H     H_    0.610973 0.589086 0.501005 0.104551
H23   H     H_    0.894608 0.089325 0.499541 0.105531
H24   H     H_    0.898234 0.089255 0.341703 0.107534
H25   H     H_    0.611016 0.410719 0.501236 0.104738
H26   H     H_    0.579371 0.410738 0.637328 0.103218
H27   H     H_    0.898005 0.910971 0.341713 0.107952
H28   H     H_    0.894298 0.910916 0.499494 0.105911
H29   H     H_    0.487242 0.664219 0.177042 0.082452
H30   H     H_    0.565212 0.643510 0.827627 0.082801
H31   H     H_    0.992338 0.165407 0.176262 0.083369
H32   H     H_    0.071055 0.129215 0.823111 0.092614
H33   H     H_    0.567781 0.411647 0.330235 0.081989
H34   H     H_    0.489944 0.412482 0.699000 0.083169
H35   H     H_    0.970871 0.911148 0.259545 0.092805
H36   H     H_    0.932223 0.912168 0.668558 0.083969
H37   H     H_    0.214065 0.589053 0.750614 0.111365
H38   H     H_    0.758236 0.587606 0.332515 0.099012
H39   H     H_    0.714322 0.089089 0.751214 0.111205
H40   H     H_    0.258638 0.087663 0.332302 0.101759
H41   H     H_    0.567657 0.588222 0.330046 0.081649
H42   H     H_    0.490109 0.587535 0.699145 0.082943
H43   H     H_    0.970908 0.088896 0.259443 0.092509
H44   H     H_    0.932281 0.087951 0.668586 0.083717
H45   H     H_    0.208670 0.411815 0.737301 0.093543
H46   H     H_    0.765380 0.412670 0.333792 0.081648
H47   H     H_    0.708797 0.911798 0.737644 0.093250
H48   H     H_    0.265733 0.912625 0.333560 0.084530
H49   H     H_    0.315178 0.666529 0.825221 0.085974
H50   H     H_    0.747606 0.629903 0.179603 0.092437
H51   H     H_    0.816423 0.166794 0.825033 0.084535
H52   H     H_    0.248527 0.129011 0.178304 0.092192
H53   H     H_    0.486884 0.335725 0.177169 0.083166
H54   H     H_    0.565061 0.356353 0.827597 0.083000
H55   H     H_    0.992002 0.834492 0.176383 0.084134
H56   H     H_    0.070933 0.870726 0.823010 0.092771
N1    N     N_R   0.394180 0.396910 0.943210 -0.038543
N2    N     N_R   0.605820 0.396910 0.056790 -0.040219
N3    N     N_R   0.894180 0.896910 0.943210 -0.037531
N4    N     N_R   0.105820 0.896910 0.056790 -0.040042
N5    N     N_R   0.450950 0.603070 0.056740 -0.038526
N6    N     N_R   0.549050 0.603070 0.943260 -0.038346
N7    N     N_R   0.950950 0.103070 0.056740 -0.037012
N8    N     N_R   0.049050 0.103070 0.943260 -0.039727
N9    N     N_R   0.525650 0.471570 0.206150 -0.038730
N10   N     N_R   0.474350 0.471570 0.793850 -0.037690
N11   N     N_R   0.025650 0.971570 0.206150 -0.039882
N12   N     N_R   0.974350 0.971570 0.793850 -0.037121
N13   N     N_R   0.319480 0.528420 0.793810 -0.042273
N14   N     N_R   0.680520 0.528420 0.206190 -0.036850
N15   N     N_R   0.819480 0.028420 0.793810 -0.040590
N16   N     N_R   0.180520 0.028420 0.206190 -0.037960
N17   N     N_R   0.525640 0.528390 0.206120 -0.038564
N18   N     N_R   0.474360 0.528390 0.793880 -0.037611
N19   N     N_R   0.025640 0.028390 0.206120 -0.039766
N20   N     N_R   0.974360 0.028390 0.793880 -0.036963
N21   N     N_R   0.319490 0.471590 0.793840 -0.042315
N22   N     N_R   0.680510 0.471590 0.206160 -0.037428
N23   N     N_R   0.819490 0.971590 0.793840 -0.040661
N24   N     N_R   0.180510 0.971590 0.206160 -0.038464
N25   N     N_R   0.394130 0.603080 0.943110 -0.038384
N26   N     N_R   0.605870 0.603080 0.056890 -0.039653
N27   N     N_R   0.894130 0.103080 0.943110 -0.037414
N28   N     N_R   0.105870 0.103080 0.056890 -0.039486
N29   N     N_R   0.450990 0.396900 0.056840 -0.038992
N30   N     N_R   0.549010 0.396900 0.943160 -0.038600
N31   N     N_R   0.950990 0.896900 0.056840 -0.037449
N32   N     N_R   0.049010 0.896900 0.943160 -0.040033
Ni1   Ni    Ni4+2 0.434860 0.434850 0.869700 0.212757
Ni2   Ni    Ni4+2 0.565140 0.434850 0.130300 0.207514
Ni3   Ni    Ni4+2 0.934860 0.934850 0.869700 0.210072
Ni4   Ni    Ni4+2 0.065140 0.934850 0.130300 0.210075
Ni5   Ni    Ni4+2 0.565130 0.565140 0.130240 0.206769
Ni6   Ni    Ni4+2 0.434870 0.565140 0.869760 0.211564
Ni7   Ni    Ni4+2 0.065130 0.065140 0.130240 0.209178
Ni8   Ni    Ni4+2 0.934870 0.065140 0.869760 0.208926
H57   H     H_    0.897707 0.638604 0.486723 0.188597
H58   H     H_    0.089840 0.595855 0.559492 0.200632
H59   H     H_    0.398451 0.138572 0.485386 0.189492
H60   H     H_    0.590718 0.095510 0.559297 0.200518
H61   H     H_    0.267334 0.751135 0.823022 0.106320
H62   H     H_    0.859615 0.675010 0.182080 0.107726
H63   H     H_    0.774116 0.253397 0.824590 0.105955
H64   H     H_    0.363149 0.170244 0.179756 0.107606
H65   H     H_    0.052020 0.414829 0.674599 0.127048
H66   H     H_    0.887058 0.414328 0.515840 0.123303
H67   H     H_    0.552131 0.914949 0.675002 0.127349
H68   H     H_    0.387425 0.914378 0.515673 0.124777

loop_
_geom_bond_atom_site_label_1
_geom_bond_atom_site_label_2
_ccdc_geom_bond_type
N2    N30   A    
C79   H39   S    
C45   H29   S    
C77   H37   S    
C83   N19   A    
C93   N29   A    
C33   H61   S    
C96   N32   A    
C49   H13   S    
C19   C20   A    
C86   N22   A    
C90   H50   S    
C71   H27   S    
C31   H59   S    
C76   H36   S    
C95   N31   A    
N29   Ni2   S    
C40   H12   S    
C55   H19   S    
N11   Ni4   S    
C12   C68   S    
C33   C39   A    
N12   Ni3   S    
C87   H47   S    
C72   H28   S    
N32   Ni3   S    
C34   C40   A    
C61   H21   S    
C35   C37   A    
N1    N29   A    
C38   C42   A    
C55   C59   A    
C69   C70   A    
N2    Ni2   S    
N22   Ni2   S    
C44   C99   S    
C53   H17   S    
C94   N30   A    
N16   N24   A    
C94   C98   A    
C95   C99   A    
N3    N31   A    
C2    H2    S    
C86   H46   S    
C78   N14   A    
C96   H56   S    
C12   C84   A    
C35   C59   A    
C7    C59   S    
C45   N5    A    
C61   C66   A    
C15   C79   A    
C82   N18   A    
C11   C67   S    
N23   Ni3   S    
C92   H52   S    
C8    C92   A    
C23   C27   A    
C38   H10   S    
C50   C56   A    
C40   C44   A    
C37   H9    S    
C68   C72   A    
C47   N7    A    
C70   H26   S    
C95   H55   S    
C15   C23   S    
C69   H25   S    
C16   C24   S    
C30   H6    S    
C3    N3    A    
C17   C30   S    
C56   H20   S    
N15   N23   A    
C26   H66   S    
C9    C73   A    
C25   H65   S    
C19   C32   S    
C78   H38   S    
C41   C49   A    
C52   C54   A    
C88   N24   A    
C9    C65   S    
C52   H16   S    
C13   C77   A    
N10   N18   A    
N21   Ni1   S    
C63   C64   A    
N7    N27   A    
C64   C67   A    
C90   N26   A    
C43   C100  S    
C14   C86   A    
C74   N10   A    
C73   N9    A    
N24   Ni4   S    
C42   C97   S    
C1    C97   A    
C74   H34   S    
N26   Ni5   S    
C53   C57   A    
C39   C43   A    
C11   C83   A    
C25   C26   A    
C80   H40   S    
C5    C45   A    
C10   C82   A    
C51   H15   S    
C56   C60   A    
C47   H31   S    
C16   C80   A    
C89   N25   A    
C19   C23   A    
C8    C48   A    
C29   C30   S    
N8    N28   A    
N19   Ni7   S    
N3    Ni3   S    
C63   H23   S    
C31   C32   S    
N7    Ni7   S    
C94   H54   S    
C7    C91   A    
C81   H41   S    
N6    Ni6   S    
C17   C18   A    
C88   H48   S    
N5    Ni5   S    
C1    N1    A    
C18   C29   S    
N20   Ni8   S    
C34   C58   A    
N25   Ni6   S    
N4    Ni4   S    
N31   Ni4   S    
C42   C50   A    
C85   N21   A    
C30   H58   S    
C73   H33   S    
N18   Ni6   S    
N17   Ni5   S    
C29   H57   S    
N13   N21   A    
C12   C76   A    
C92   N28   A    
C28   H68   S    
C64   H24   S    
C80   N16   A    
N4    N32   A    
N27   Ni8   S    
C54   H18   S    
C93   C97   A    
C62   H22   S    
N11   N19   A    
C54   C58   A    
C3    H3    S    
N12   N20   A    
C21   C25   A    
C63   C68   A    
C33   C57   A    
C6    C46   A    
C62   C65   A    
C91   N27   A    
C18   C22   A    
C31   H7    S    
C32   H8    S    
C24   C28   A    
C85   H45   S    
N15   Ni8   S    
C36   C60   A    
C49   C55   A    
C4    N4    A    
C44   C52   A    
C46   H30   S    
N14   Ni5   S    
C79   N15   A    
N8    Ni8   S    
C4    H4    S    
N6    N26   A    
N13   Ni6   S    
C48   N8    A    
C8    C60   S    
N28   Ni7   S    
C7    C47   A    
C29   H5    S    
C4    C100  A    
C5    C57   S    
N10   Ni1   S    
C14   C22   S    
N30   Ni1   S    
C93   H53   S    
N16   Ni7   S    
C10   C66   S    
C71   C72   A    
C32   H60   S    
C11   C75   A    
C13   C21   S    
C36   C38   A    
C91   H51   S    
C39   H11   S    
C10   C74   A    
C35   H63   S    
C66   C70   A    
C75   H35   S    
C1    H1    S    
C43   C51   A    
C65   C69   A    
C96   C100  A    
C89   H49   S    
C81   N17   A    
C76   N12   A    
C67   C71   A    
C6    C58   S    
C14   C78   A    
C37   C41   A    
C61   C62   A    
N1    Ni1   S    
N9    Ni2   S    
C51   C53   A    
C87   N23   A    
C82   H42   S    
C3    C99   A    
C34   H62   S    
C6    C90   A    
C2    N2    A    
C2    C98   A    
C27   H67   S    
C77   N13   A    
C22   C26   A    
C15   C87   A    
C13   C85   A    
C27   C28   A    
C16   C88   A    
C84   H44   S    
C41   C98   S    
C48   H32   S    
C83   H43   S    
C75   N11   A    
C36   H64   S    
C50   H14   S    
C84   N20   A    
N9    N17   A    
C46   N6    A    
C20   C24   A    
N5    N25   A    
C5    C89   A    
C9    C81   A    
N14   N22   A    
C20   C31   S    
C17   C21   A    
