data_mof_unit_32985.cif
_audit_creation_date              2012-12-11T14:04:18-0500
_audit_creation_method            fapswitch 2.2
_symmetry_space_group_name_H-M    P1
_symmetry_Int_Tables_number       1
_space_group_crystal_system       triclinic
_cell_length_a                    19.375323
_cell_length_b                    10.862111
_cell_length_c                    19.054801
_cell_angle_alpha                 90.678858
_cell_angle_beta                  90.216085
_cell_angle_gamma                 89.71225
_cell_volume                      4009.85484453

loop_
_atom_site_label
_atom_site_type_symbol
_atom_type_description
_atom_site_fract_x
_atom_site_fract_y
_atom_site_fract_z
_atom_type_partial_charge
C1    C     C_R   0.238026 0.469453 0.646050 0.533919
C2    C     C_R   0.041785 0.664253 0.565053 -0.030350
C3    C     C_3   0.431373 0.771233 0.038633 -0.349474
C4    C     C_3   0.436002 0.682536 0.100553 -0.462824
C5    C     C_3   0.468586 0.916553 0.907375 -0.180094
C6    C     C_3   0.539760 0.849850 0.915720 -0.256182
C7    C     C_3   0.544688 0.736584 0.868053 -0.440499
C8    C     C_3   0.332423 0.761730 0.541992 -0.228990
C9    C     C_3   0.343688 0.699275 0.469419 -0.307916
C10   C     C_3   0.388374 0.583946 0.471033 -0.451104
C11   C     C_3   0.682483 0.070242 0.398727 -0.256741
C12   C     C_3   0.633848 0.004811 0.346070 -0.274531
C13   C     C_R   0.493051 0.160654 0.427585 -0.044148
C14   C     C_3   0.650012 0.035437 0.269746 -0.415695
C15   C     C_3   0.844715 0.276411 0.546240 -0.235627
C16   C     C_3   0.846644 0.198453 0.478036 -0.302754
C17   C     C_3   0.886201 0.077032 0.484445 -0.447819
C18   C     C_3   0.177692 0.560305 0.397630 -0.254883
C19   C     C_3   0.129651 0.487535 0.347553 -0.274601
C20   C     C_3   0.143056 0.514127 0.270121 -0.407437
C21   C     C_3   0.075054 0.858002 0.334751 -0.227041
C22   C     C_3   0.037320 0.960309 0.293855 -0.260131
C23   C     C_3   0.050776 0.951408 0.215050 -0.415647
C24   C     C_R   0.534804 0.162441 0.566423 -0.027329
C25   C     C_3   0.010495 0.959334 0.624322 -0.220564
C26   C     C_3   0.004171 0.101433 0.628061 -0.352358
C27   C     C_3   0.957907 0.143353 0.688427 -0.451375
C28   C     C_3   0.571945 0.366338 0.343473 -0.229995
C29   C     C_3   0.534555 0.466143 0.300511 -0.268520
C30   C     C_3   0.551855 0.456132 0.222710 -0.412683
C31   C     C_3   0.490428 0.438816 0.634197 -0.229606
C32   C     C_3   0.447880 0.558298 0.634620 -0.351561
C33   C     C_3   0.433413 0.602124 0.709656 -0.409843
C34   C     C_R   0.058888 0.866139 0.412710 0.006284
C35   C     C_R   0.047159 0.902035 0.559261 0.059008
C36   C     C_R   0.550128 0.371411 0.419799 0.011636
C37   C     C_R   0.523229 0.399323 0.564102 0.046948
C38   C     C_R   0.088422 0.967792 0.446874 -0.152929
C39   C     C_R   0.083861 0.983681 0.518335 -0.125700
C40   C     C_R   0.572577 0.475736 0.457375 -0.147484
C41   C     C_R   0.761772 0.469959 0.353619 0.535616
C42   C     C_R   0.558085 0.490057 0.527928 -0.129478
C43   C     C_R   0.034190 0.780612 0.529039 -0.011489
C44   C     C_R   0.027935 0.771278 0.454356 -0.013149
C45   C     C_R   0.521104 0.278051 0.532100 -0.005943
C46   C     C_R   0.519659 0.271756 0.457735 -0.010714
C47   C     C_R   0.036017 0.552118 0.527038 0.002329
C48   C     C_R   0.996824 0.551666 0.467033 -0.003260
C49   C     C_R   0.533348 0.050931 0.527274 0.001115
C50   C     C_R   0.495342 0.049273 0.466695 -0.002467
C51   C     C_R   0.067850 0.439559 0.546496 -0.081433
C52   C     C_R   0.738136 0.969016 0.646256 0.538543
C53   C     C_R   0.970542 0.434711 0.444725 -0.094387
C54   C     C_R   0.568156 0.940611 0.545746 -0.081862
C55   C     C_R   0.471220 0.931693 0.443554 -0.086144
C56   C     C_R   0.058030 0.331769 0.508793 -0.135345
C57   C     C_R   0.006741 0.327687 0.459059 -0.148370
C58   C     C_R   0.560589 0.832632 0.507384 -0.132078
C59   C     C_R   0.508741 0.825923 0.458091 -0.142337
C60   C     C_2   0.238731 0.899078 0.928087 -0.110201
C61   C     C_2   0.746268 0.917734 0.080829 -0.113085
C62   C     C_2   0.751785 0.423739 0.918894 -0.111142
C63   C     C_R   0.261476 0.968884 0.352936 0.532630
C64   C     C_2   0.246306 0.418845 0.081034 -0.110739
C65   C     C_2   0.247396 0.900053 0.084041 -0.113425
C66   C     C_2   0.744287 0.937055 0.925634 -0.105226
C67   C     C_2   0.753640 0.434380 0.074619 -0.103279
C68   C     C_2   0.244260 0.437117 0.925648 -0.106676
C69   C     C_R   0.226803 0.874781 0.648381 0.543981
C70   C     C_R   0.774868 0.871689 0.352413 0.551528
C71   C     C_R   0.726551 0.374179 0.648009 0.544018
C72   C     C_R   0.275308 0.370959 0.352599 0.555321
C73   C     C_2   0.191079 0.928886 0.046777 -0.159232
C74   C     C_2   0.294278 0.885327 0.537465 -0.032735
C75   C     C_2   0.769593 0.022610 0.970611 -0.149002
C76   C     C_2   0.726261 0.519443 0.031462 -0.149374
C77   C     C_2   0.270582 0.521901 0.970436 -0.148310
C78   C     C_2   0.184679 0.901552 0.972194 -0.155647
C79   C     C_2   0.780095 0.002744 0.045505 -0.171612
C80   C     C_2   0.711087 0.495347 0.958004 -0.165370
C81   C     C_2   0.281509 0.501404 0.045138 -0.170344
C82   C     C_2   0.989128 0.648179 0.917932 -0.116079
C83   C     C_2   0.939458 0.638305 0.064239 -0.124426
C84   C     C_2   0.489183 0.147746 0.917805 -0.116569
C85   C     C_2   0.718901 0.982495 0.448703 -0.028698
C86   C     C_2   0.440792 0.138156 0.064371 -0.123550
C87   C     C_2   0.946168 0.530651 0.024590 -0.022694
C88   C     C_2   0.965659 0.539484 0.947721 0.000831
C89   C     C_2   0.447977 0.030237 0.025046 -0.028334
C90   C     C_2   0.467037 0.038599 0.948183 -0.002392
C91   C     C_R   0.060764 0.652005 0.638492 0.558671
C92   C     C_R   0.964978 0.654672 0.357412 0.536913
C93   C     C_R   0.557952 0.151980 0.638236 0.552183
C94   C     C_R   0.463837 0.154358 0.357714 0.538305
C95   C     C_R   0.237395 0.471407 0.852456 0.553540
C96   C     C_2   0.798059 0.389995 0.538896 -0.034078
C97   C     C_R   0.762238 0.469735 0.147761 0.538579
C98   C     C_R   0.737434 0.971278 0.852420 0.553743
C99   C     C_R   0.261016 0.964244 0.149944 0.543520
C100  C     C_R   0.224979 0.869266 0.854874 0.553467
C101  C     C_R   0.772480 0.872853 0.147437 0.531532
C102  C     C_R   0.727170 0.374106 0.852530 0.556567
C103  C     C_R   0.272500 0.372961 0.147449 0.533908
C104  C     C_R   0.028046 0.650698 0.850785 0.554983
C105  C     C_R   0.934756 0.644337 0.142289 0.573791
C106  C     C_R   0.528045 0.150620 0.850725 0.555090
C107  C     C_2   0.217558 0.478612 0.448327 -0.026130
C108  C     C_R   0.435034 0.144345 0.142229 0.575566
C109  C     C_2   0.252511 0.936243 0.586398 -0.096388
C110  C     C_2   0.761775 0.895294 0.424916 -0.066166
C111  C     C_2   0.750751 0.433874 0.584770 -0.097820
C112  C     C_2   0.262820 0.395238 0.424930 -0.059837
C113  C     C_2   0.252177 0.916339 0.420795 -0.126807
C114  C     C_2   0.742591 0.930289 0.573978 -0.127440
C115  C     C_2   0.753186 0.419909 0.422570 -0.128442
C116  C     C_2   0.242705 0.430224 0.573787 -0.135646
C117  C     C_2   0.295667 0.950515 0.471594 -0.145461
C118  C     C_R   0.996075 0.661902 0.426846 -0.041832
C119  C     C_2   0.718730 0.008932 0.525020 -0.151546
C120  C     C_2   0.798692 0.452773 0.472047 -0.148144
C121  C     C_2   0.217099 0.506541 0.524430 -0.157714
C122  C     C_3   0.949091 0.403566 0.063074 -0.223185
C123  C     C_3   0.925924 0.273425 0.037820 -0.346686
C124  C     C_3   0.935630 0.181491 0.097676 -0.465024
C125  C     C_3   0.965249 0.418402 0.905897 -0.180414
C126  C     C_3   0.034912 0.346594 0.914029 -0.260377
C127  C     C_3   0.037264 0.233025 0.866324 -0.444324
C128  C     C_3   0.450362 0.903536 0.064056 -0.225209
Cr1   Cr    Cr6+3 0.113970 0.508630 0.747920 0.980901
Cr2   Cr    Cr6+3 0.887700 0.820070 0.250200 0.969935
Cr3   Cr    Cr6+3 0.612300 0.320070 0.749800 0.984469
Cr4   Cr    Cr6+3 0.387700 0.320070 0.250200 0.970777
Cr5   Cr    Cr6+3 0.886030 0.508630 0.252080 0.967040
Cr6   Cr    Cr6+3 0.613970 0.008630 0.747920 0.982862
Cr7   Cr    Cr6+3 0.386030 0.008630 0.252080 0.966993
Cr8   Cr    Cr6+3 0.269200 0.666740 0.749850 0.966813
Cr9   Cr    Cr6+3 0.730800 0.666740 0.250150 0.972930
Cr10  Cr    Cr6+3 0.769200 0.166740 0.749850 0.978637
Cr11  Cr    Cr6+3 0.230800 0.166740 0.250150 0.972917
Cr12  Cr    Cr6+3 0.112300 0.820070 0.749800 0.980773
H1    H     H_    0.333121 0.023381 0.464316 0.127743
H2    H     H_    0.724730 0.848994 0.942747 0.081152
H3    H     H_    0.215156 0.614392 0.366716 0.130165
H4    H     H_    0.060634 0.855167 0.197482 0.176126
H5    H     H_    0.005692 0.988162 0.185792 0.134985
H6    H     H_    0.096023 0.007751 0.201814 0.168137
H7    H     H_    0.980971 0.956921 0.303335 0.200116
H8    H     H_    0.054452 0.052459 0.312684 0.129288
H9    H     H_    0.131270 0.869148 0.327494 0.141376
H10   H     H_    0.066028 0.766200 0.311643 0.151639
H11   H     H_    0.904595 0.111527 0.679162 0.194134
H12   H     H_    0.976843 0.105411 0.738815 0.136214
H13   H     H_    0.769031 0.343624 0.056423 0.082358
H14   H     H_    0.957523 0.245477 0.692161 0.145680
H15   H     H_    0.055899 0.142541 0.637480 0.155688
H16   H     H_    0.983888 0.140453 0.579438 0.175203
H17   H     H_    0.958590 0.917218 0.629323 0.148732
H18   H     H_    0.040516 0.945516 0.672602 0.218227
H19   H     H_    0.556594 0.358839 0.205011 0.180365
H20   H     H_    0.511055 0.501988 0.191350 0.128534
H21   H     H_    0.601183 0.502945 0.213048 0.183020
H22   H     H_    0.477883 0.460115 0.307157 0.200618
H23   H     H_    0.549658 0.559302 0.319577 0.129180
H24   H     H_    0.223982 0.349721 0.942986 0.086103
H25   H     H_    0.628011 0.382167 0.340644 0.145315
H26   H     H_    0.566662 0.274083 0.319469 0.150064
H27   H     H_    0.406213 0.529734 0.739366 0.183481
H28   H     H_    0.482526 0.624322 0.736914 0.112011
H29   H     H_    0.400814 0.686470 0.708732 0.170089
H30   H     H_    0.475151 0.633786 0.607859 0.153919
H31   H     H_    0.398019 0.540806 0.608691 0.195119
H32   H     H_    0.455432 0.365401 0.653014 0.167463
H33   H     H_    0.533087 0.456404 0.672090 0.200758
H34   H     H_    0.291576 0.907918 0.946535 0.087266
H35   H     H_    0.702716 0.869852 0.057286 0.097158
H36   H     H_    0.800262 0.389370 0.939692 0.092090
H37   H     H_    0.201649 0.373498 0.058011 0.104735
H38   H     H_    0.934896 0.726955 0.039558 0.082685
H39   H     H_    0.989117 0.734796 0.946256 0.073542
H40   H     H_    0.436355 0.226774 0.039699 0.083462
H41   H     H_    0.698561 0.098131 0.541986 0.119741
H42   H     H_    0.488025 0.234955 0.945451 0.079943
H43   H     H_    0.212928 0.847039 0.428982 0.091060
H44   H     H_    0.758405 0.836374 0.562878 0.077947
H45   H     H_    0.712048 0.355168 0.432989 0.085406
H46   H     H_    0.261055 0.337678 0.562959 0.077900
H47   H     H_    0.227884 0.024206 0.575096 0.092404
H48   H     H_    0.794729 0.842421 0.459352 0.074513
H49   H     H_    0.721140 0.515353 0.570167 0.100861
H50   H     H_    0.297372 0.345639 0.459335 0.071375
H51   H     H_    0.115550 0.037332 0.417834 0.147376
H52   H     H_    0.837091 0.523186 0.462989 0.129234
H53   H     H_    0.107436 0.063449 0.541718 0.104125
H54   H     H_    0.600397 0.548528 0.431546 0.131111
H55   H     H_    0.573096 0.573289 0.554886 0.104623
H56   H     H_    0.926028 0.422786 0.411893 0.166496
H57   H     H_    0.103433 0.433268 0.587960 0.175068
H58   H     H_    0.427007 0.919829 0.410452 0.163602
H59   H     H_    0.603998 0.936610 0.587039 0.175167
H60   H     H_    0.088294 0.251772 0.520507 0.099320
H61   H     H_    0.995530 0.243284 0.430999 0.105817
H62   H     H_    0.593465 0.754869 0.517839 0.100688
H63   H     H_    0.194768 0.594317 0.540874 0.114453
H64   H     H_    0.498560 0.740840 0.430136 0.104781
H65   H     H_    0.149009 0.981627 0.070004 0.147697
H66   H     H_    0.787594 0.110564 0.951264 0.148449
H67   H     H_    0.709495 0.608775 0.051546 0.151726
H68   H     H_    0.289378 0.609268 0.951025 0.152741
H69   H     H_    0.987742 0.190850 0.121620 0.141821
H70   H     H_    0.896096 0.197051 0.138966 0.159105
H71   H     H_    0.931876 0.085666 0.077203 0.148590
H72   H     H_    0.871198 0.274053 0.021080 0.139325
H73   H     H_    0.955402 0.232139 0.994738 0.175651
H74   H     H_    0.132269 0.891676 0.952381 0.153038
H75   H     H_    0.001499 0.395246 0.086616 0.163318
H76   H     H_    0.910246 0.411793 0.103840 0.221090
H77   H     H_    0.992448 0.172441 0.876285 0.137453
H78   H     H_    0.036654 0.261711 0.810603 0.157543
H79   H     H_    0.085531 0.180317 0.876212 0.149376
H80   H     H_    0.080419 0.403480 0.902976 0.212562
H81   H     H_    0.045828 0.320445 0.968820 0.134160
H82   H     H_    0.920058 0.363348 0.919859 0.113151
H83   H     H_    0.951237 0.432772 0.850070 0.164001
H84   H     H_    0.485511 0.694938 0.129301 0.143957
H85   H     H_    0.818746 0.057511 0.071746 0.147813
H86   H     H_    0.392628 0.698889 0.137535 0.157977
H87   H     H_    0.434859 0.585732 0.081273 0.150593
H88   H     H_    0.378900 0.767671 0.015749 0.138866
H89   H     H_    0.465944 0.729939 0.999684 0.176177
H90   H     H_    0.501709 0.897612 0.090138 0.169238
H91   H     H_    0.409196 0.911791 0.102560 0.216984
H92   H     H_    0.502275 0.671383 0.879247 0.136786
H93   H     H_    0.541742 0.765025 0.812361 0.156490
H94   H     H_    0.594890 0.689424 0.876585 0.137451
H95   H     H_    0.583831 0.910078 0.904732 0.213532
H96   H     H_    0.663858 0.534592 0.936904 0.145686
H97   H     H_    0.551713 0.825408 0.970535 0.128784
H98   H     H_    0.424601 0.858854 0.921654 0.113977
H99   H     H_    0.453814 0.928698 0.851565 0.162259
H100  H     H_    0.439006 0.605116 0.494379 0.156500
H101  H     H_    0.363322 0.510421 0.500986 0.161770
H102  H     H_    0.397346 0.549912 0.416736 0.172383
H103  H     H_    0.293233 0.676150 0.446712 0.168533
H104  H     H_    0.367960 0.761648 0.432154 0.166899
H105  H     H_    0.382990 0.778123 0.567928 0.156520
H106  H     H_    0.302906 0.696030 0.573348 0.193811
H107  H     H_    0.321911 0.553167 0.070557 0.148835
H108  H     H_    0.643694 0.135651 0.260836 0.131428
H109  H     H_    0.703684 0.008913 0.256386 0.176269
H110  H     H_    0.614154 0.984908 0.234232 0.158566
H111  H     H_    0.632689 0.903769 0.353281 0.190687
H112  H     H_    0.581121 0.035214 0.355906 0.180017
H113  H     H_    0.652218 0.139455 0.429231 0.124908
H114  H     H_    0.722384 0.122944 0.370173 0.135176
H115  H     H_    0.942246 0.090991 0.481900 0.144734
H116  H     H_    0.872472 0.027669 0.533024 0.171915
H117  H     H_    0.875021 0.018230 0.438373 0.176592
H118  H     H_    0.286775 0.841113 0.062160 0.092399
H119  H     H_    0.793160 0.179123 0.462615 0.172983
H120  H     H_    0.869129 0.250032 0.434167 0.162333
H121  H     H_    0.897640 0.307984 0.559255 0.159094
H122  H     H_    0.828151 0.214921 0.588159 0.201391
H123  H     H_    0.132001 0.612118 0.258684 0.131311
H124  H     H_    0.197502 0.494802 0.256271 0.176154
H125  H     H_    0.109088 0.455746 0.236661 0.155309
H126  H     H_    0.131021 0.387181 0.357189 0.189367
H127  H     H_    0.076509 0.513833 0.357932 0.185531
H128  H     H_    0.146722 0.628894 0.427609 0.129911
O1    O     O_R   0.043230 0.549300 0.667990 -0.523541
O2    O     O_R   0.832470 0.905110 0.169660 -0.528607
O3    O     O_R   0.667530 0.405110 0.830340 -0.516464
O4    O     O_R   0.332470 0.405110 0.169660 -0.529044
O5    O     O_R   0.054010 0.748440 0.822860 -0.497055
O6    O     O_R   0.945990 0.748440 0.177140 -0.503356
O7    O     O_R   0.554010 0.248440 0.822860 -0.491561
O8    O     O_R   0.445990 0.248440 0.177140 -0.502347
O9    O     O_3   0.165160 0.665150 0.749190 -0.257331
O10   O     O_3   0.834840 0.665150 0.250810 -0.257955
O11   O     O_3   0.665160 0.165150 0.749190 -0.254892
O12   O     O_R   0.956770 0.549300 0.332010 -0.547970
O13   O     O_3   0.334840 0.165150 0.250810 -0.257321
O14   O     O_R   0.178620 0.457600 0.674100 -0.532282
O15   O     O_R   0.821380 0.457600 0.325900 -0.511714
O16   O     O_R   0.678620 0.957600 0.674100 -0.531663
O17   O     O_R   0.321380 0.957600 0.325900 -0.513557
O18   O     O_R   0.284680 0.542100 0.669460 -0.535438
O19   O     O_R   0.715320 0.542100 0.330540 -0.524771
O20   O     O_R   0.784680 0.042100 0.669460 -0.536218
O21   O     O_R   0.215320 0.042100 0.330540 -0.528939
O22   O     O_R   0.262860 0.790390 0.676650 -0.512452
O23   O     O_R   0.543230 0.049300 0.667990 -0.524969
O24   O     O_R   0.737140 0.790390 0.323350 -0.499738
O25   O     O_R   0.762860 0.290390 0.676650 -0.513034
O26   O     O_R   0.237140 0.290390 0.323350 -0.502818
O27   O     O_R   0.167460 0.907030 0.670940 -0.542938
O28   O     O_R   0.832540 0.907030 0.329060 -0.542288
O29   O     O_R   0.667460 0.407030 0.670940 -0.539094
O30   O     O_R   0.332540 0.407030 0.329060 -0.542758
O31   O     O_R   0.053950 0.750220 0.675100 -0.529397
O32   O     O_R   0.946050 0.750220 0.324900 -0.499096
O33   O     O_R   0.553950 0.250220 0.675100 -0.529692
O34   O     O_R   0.456770 0.049300 0.332010 -0.546827
O35   O     O_R   0.446050 0.250220 0.324900 -0.499813
O36   O     O_R   0.043300 0.547370 0.827390 -0.527822
O37   O     O_R   0.956700 0.547370 0.172610 -0.544965
O38   O     O_R   0.543300 0.047370 0.827390 -0.529268
O39   O     O_R   0.456700 0.047370 0.172610 -0.544548
O40   O     O_R   0.178690 0.455820 0.821860 -0.509702
O41   O     O_R   0.821310 0.455820 0.178140 -0.537194
O42   O     O_R   0.678690 0.955820 0.821860 -0.512118
O43   O     O_R   0.321310 0.955820 0.178140 -0.539851
O44   O     O_R   0.284750 0.540170 0.828860 -0.521745
O45   O     O_R   0.262920 0.788600 0.824420 -0.504858
O46   O     O_R   0.715250 0.540170 0.171140 -0.530922
O47   O     O_R   0.784750 0.040170 0.828860 -0.512640
O48   O     O_R   0.215250 0.040170 0.171140 -0.527158
O49   O     O_R   0.737080 0.788600 0.175580 -0.511949
O50   O     O_R   0.762920 0.288600 0.824420 -0.507229
O51   O     O_R   0.237080 0.288600 0.175580 -0.506300
O52   O     O_R   0.167530 0.905110 0.830340 -0.519845

loop_
_geom_bond_atom_site_label_1
_geom_bond_atom_site_label_2
_ccdc_geom_bond_type
C64   C103  S    
C72   C112  S    
C126  C127  S    
C55   C59   A    
C60   H34   S    
C107  C112  D    
C29   H23   S    
C19   C20   S    
C61   H35   S    
C78   H74   S    
C100  O45   A    
C125  H82   S    
C105  O6    A    
C99   O48   A    
C5    C6    S    
Cr2   O2    S    
C31   H32   S    
Cr9   O19   S    
Cr4   O8    S    
Cr2   O28   S    
C122  H75   S    
C37   C42   A    
C81   H107  S    
C51   H57   S    
C98   O42   A    
Cr7   O17   S    
C28   H26   S    
Cr8   O44   S    
Cr4   O13   S    
C104  O36   A    
C21   C22   S    
C48   C53   A    
C94   O34   A    
C1    O18   A    
C96   C111  D    
C126  H80   S    
Cr11  O51   S    
C7    H92   S    
C68   H24   S    
Cr12  O52   S    
C68   C95   S    
C102  O3    A    
Cr11  O13   S    
Cr6   O23   S    
C65   C99   S    
C85   C110  D    
C15   C96   S    
Cr5   O15   S    
C31   C37   S    
Cr2   O32   S    
C70   O24   A    
C43   C44   A    
C52   O16   A    
C8    C74   S    
Cr6   O42   S    
C19   H126  S    
C14   H110  S    
C22   H8    S    
C8    H105  S    
C111  H49   S    
Cr8   O45   S    
C33   H28   S    
Cr6   O11   S    
C37   C45   A    
Cr11  O21   S    
C68   C77   D    
C83   H38   S    
C86   C108  S    
C106  O7    A    
C60   C100  S    
Cr4   O4    S    
C87   C122  S    
C6    C7    S    
C124  H71   S    
C2    C47   A    
C13   C94   S    
C84   H42   S    
C20   H124  S    
C64   H37   S    
C42   H55   S    
C63   O17   A    
C63   C113  S    
C58   H62   S    
C124  H69   S    
C53   H56   S    
C82   C104  S    
C22   C23   S    
C41   O19   A    
C75   C79   S    
C3    H88   S    
C127  H78   S    
C56   H60   S    
Cr1   O36   S    
C27   H12   S    
C80   H96   S    
C123  C124  S    
C14   H109  S    
C56   C57   A    
C39   H53   S    
C110  H48   S    
C88   C125  S    
C12   H111  S    
Cr4   O30   S    
C62   C80   D    
C18   H3    S    
C38   C39   A    
C16   H120  S    
C11   H114  S    
C71   O25   A    
C4    H87   S    
C85   C119  S    
C92   C118  S    
C70   C110  S    
C11   H113  S    
C59   H64   S    
C106  O38   A    
Cr4   O35   S    
C36   C46   A    
C21   H9    S    
C35   C43   A    
C9    C10   S    
C114  C119  D    
C27   H14   S    
C40   C42   A    
C7    H94   S    
C26   H15   S    
C10   H101  S    
C84   C90   D    
C41   C115  S    
Cr9   O49   S    
C30   H19   S    
C23   H6    S    
C121  H63   S    
C3    C128  S    
C25   C26   S    
Cr6   O16   S    
C54   H59   S    
Cr12  O5    S    
C92   O12   A    
Cr9   O24   S    
C61   C101  S    
C71   O29   A    
C29   C30   S    
C15   H121  S    
C31   C32   S    
C44   C118  A    
C116  C121  D    
C123  H72   S    
Cr10  O50   S    
C113  C117  D    
C97   O46   A    
C17   H117  S    
C3    C4    S    
C9    H103  S    
Cr7   O34   S    
C19   H127  S    
C73   H65   S    
C29   H22   S    
Cr3   O33   S    
C76   C80   S    
C52   O20   A    
Cr11  O26   S    
C52   C114  S    
C66   C98   S    
Cr8   O22   S    
C24   C93   S    
Cr6   O38   S    
C113  H43   S    
C124  H70   S    
C61   C79   D    
C114  H44   S    
C122  H76   S    
C2    C91   S    
C64   C81   D    
C112  H50   S    
C13   C50   A    
C49   C50   A    
C57   H61   S    
C25   H18   S    
C62   C102  S    
C83   C87   D    
C87   C88   S    
C17   H116  S    
C94   O35   A    
C33   H29   S    
C3    H89   S    
Cr12  O27   S    
Cr10  O47   S    
C126  H81   S    
C127  H79   S    
C45   C46   A    
C97   O41   A    
C26   C27   S    
C28   C29   S    
C54   C58   A    
C115  H45   S    
C69   O22   A    
C18   C19   S    
C119  H41   S    
C26   H16   S    
C16   C17   S    
C10   H102  S    
C82   H39   S    
C84   C106  S    
C98   O47   A    
C4    H86   S    
Cr2   O6    S    
Cr3   O11   S    
C8    H106  S    
C33   H27   S    
Cr10  O25   S    
Cr5   O41   S    
Cr12  O31   S    
C101  O49   A    
C125  H83   S    
C6    H97   S    
C103  O51   A    
Cr9   O46   S    
C5    H98   S    
C53   C57   A    
C47   C51   A    
C21   C34   S    
C91   O1    A    
C58   C59   A    
C116  H46   S    
C109  H47   S    
Cr5   O10   S    
C117  H1    S    
C91   O31   A    
C60   C78   D    
C28   H25   S    
C25   C35   S    
C32   H31   S    
C128  H91   S    
C123  H73   S    
C125  C126  S    
C23   H4    S    
C107  C121  S    
C95   O40   A    
C127  H77   S    
C27   H11   S    
C5    H99   S    
Cr12  O9    S    
C108  O8    A    
C86   C89   D    
C72   O30   A    
C66   H2    S    
C12   H112  S    
C67   H13   S    
C32   C33   S    
C65   H118  S    
C13   C46   A    
C66   C75   D    
Cr1   O40   S    
C67   C97   S    
C83   C105  S    
Cr3   O3    S    
C22   H7    S    
C28   C36   S    
C77   C81   S    
Cr3   O29   S    
C30   H21   S    
C89   C90   S    
C104  O5    A    
C49   C54   A    
C89   C128  S    
C6    H95   S    
C7    H93   S    
C10   H100  S    
Cr10  O11   S    
C99   O43   A    
Cr7   O13   S    
Cr8   O18   S    
C74   C109  D    
Cr7   O39   S    
C40   H54   S    
C30   H20   S    
C23   H5    S    
Cr5   O12   S    
C92   O32   A    
C24   C45   A    
C93   O33   A    
C11   C85   S    
C120  H52   S    
C20   H123  S    
C1    O14   A    
C75   H66   S    
C82   C88   D    
C55   H58   S    
C15   C16   S    
Cr10  O20   S    
C65   C73   D    
C51   C56   A    
C18   C107  S    
C69   C109  S    
C108  O39   A    
C8    C9    S    
C71   C111  S    
C73   C78   S    
C69   O27   A    
Cr1   O9    S    
C1    C116  S    
C70   O28   A    
C5    C90   S    
C76   H67   S    
C62   H36   S    
Cr1   O14   S    
C14   H108  S    
Cr9   O10   S    
C93   O23   A    
C36   C40   A    
C34   C44   A    
C77   H68   S    
C16   H119  S    
C48   C118  A    
C4    H84   S    
Cr2   O10   S    
Cr3   O7    S    
C47   C48   A    
C2    C43   A    
C86   H40   S    
C21   H10   S    
Cr5   O37   S    
C100  O52   A    
C102  O50   A    
C12   C14   S    
C38   H51   S    
C25   H17   S    
C31   H33   S    
C24   C49   A    
C74   C117  S    
C32   H30   S    
C17   H115  S    
C128  H90   S    
C34   C38   A    
C96   C120  S    
Cr7   O43   S    
C41   O15   A    
C20   H125  S    
C11   C12   S    
C101  O2    A    
C50   C55   A    
C103  O4    A    
Cr8   O9    S    
C15   H122  S    
C18   H128  S    
C35   C39   A    
C95   O44   A    
Cr1   O1    S    
Cr11  O48   S    
C115  C120  D    
C63   O21   A    
C67   C76   D    
C122  C123  S    
C9    H104  S    
C72   O26   A    
C79   H85   S    
C105  O37   A    
