data_mof_unit_35917.cif
_audit_creation_date              2012-12-10T18:59:18-0500
_audit_creation_method            fapswitch 2.2
_symmetry_space_group_name_H-M    P1
_symmetry_Int_Tables_number       1
_space_group_crystal_system       triclinic
_cell_length_a                    9.824133
_cell_length_b                    10.612337
_cell_length_c                    16.753821
_cell_angle_alpha                 89.12092
_cell_angle_beta                  95.393901
_cell_angle_gamma                 89.823868
_cell_volume                      1738.74627258

loop_
_atom_site_label
_atom_site_type_symbol
_atom_type_description
_atom_site_fract_x
_atom_site_fract_y
_atom_site_fract_z
_atom_type_partial_charge
C1    C     C_R   0.500365 0.260283 0.502753 1.085577
C2    C     C_R   0.077289 0.401718 0.533512 0.761817
C3    C     C_R   0.518818 0.513008 0.653280 1.034311
C4    C     C_R   0.481184 0.485171 0.346963 1.043560
C5    C     C_R   0.531780 0.539680 0.740041 -0.348906
C6    C     C_R   0.468084 0.447629 0.261623 -0.331894
C7    C     C_R   0.413192 0.569077 0.779410 0.285925
C8    C     C_R   0.585747 0.405606 0.224780 0.182746
C9    C     C_R   0.418825 0.554499 0.862463 0.587154
C10   C     C_R   0.579022 0.400928 0.141357 0.566924
C11   C     C_R   0.542266 0.522281 0.906767 0.090058
C12   C     C_R   0.499605 0.739731 0.497355 1.105823
C13   C     C_R   0.456322 0.427498 0.095013 0.107918
C14   C     C_R   0.662542 0.519216 0.869956 -0.312057
C15   C     C_R   0.336789 0.443551 0.131101 -0.268869
C16   C     C_R   0.660584 0.531430 0.787092 0.305564
C17   C     C_R   0.339012 0.451461 0.214015 0.374259
C18   C     C_R   0.480721 0.070411 0.428333 0.570110
C19   C     C_R   0.518964 0.929641 0.571771 0.568501
C20   C     C_R   0.480933 0.940431 0.424709 0.200966
C21   C     C_R   0.515922 0.059590 0.575510 0.274691
C22   C     C_R   0.499885 0.872134 0.497314 -0.442055
C23   C     C_R   0.499670 0.127908 0.502817 -0.428239
C24   C     C_R   0.066615 0.598495 0.466905 -0.219879
C25   C     C_R   0.933423 0.401531 0.533134 -0.151542
C26   C     C_R   0.922839 0.598634 0.466938 0.762851
F1    F     F_    0.692123 0.372303 0.104221 -0.578835
F2    F     F_    0.304742 0.573215 0.900893 -0.566234
F3    F     F_    0.460765 0.142263 0.360317 -0.586043
F4    F     F_    0.540850 0.857818 0.639700 -0.570515
F5    F     F_    0.849953 0.696878 0.432491 -0.617055
F6    F     F_    0.150353 0.303949 0.568508 -0.573305
H1    H     H_    0.758218 0.505189 0.906742 0.249758
H2    H     H_    0.681502 0.249189 0.735138 0.394781
H3    H     H_    0.242001 0.455229 0.093197 0.238280
H4    H     H_    0.116820 0.677037 0.440276 0.225648
H5    H     H_    0.883216 0.322963 0.559743 0.224895
H6    H     H_    0.831273 0.533871 0.258839 0.376075
H7    H     H_    0.203131 0.746354 0.622949 0.376339
H8    H     H_    0.920431 0.668677 0.839592 0.383118
H9    H     H_    0.025678 0.512063 0.154508 0.370398
H10   H     H_    0.673144 0.827440 0.321491 0.401725
N1    N     N_2   0.550016 0.501843 0.990043 -0.045815
N2    N     N_2   0.450533 0.441952 0.011313 -0.026431
N3    N     N_R   0.857210 0.499970 0.500020 -0.162053
N4    N     N_R   0.142790 0.500030 0.499980 -0.176107
O1    O     O_R   0.614620 0.316750 0.500010 -0.604820
O2    O     O_2   0.820235 0.267595 0.228308 -0.104794
O3    O     O_3   0.838810 0.476444 0.306213 -0.475780
O4    O     O_2   0.166258 0.528689 0.702099 -0.207238
O5    O     O_2   0.189223 0.715827 0.785767 -0.154412
O6    O     O_3   0.293803 0.724027 0.650547 -0.506387
O7    O     O_2   0.861991 0.427030 0.711774 -0.220174
O8    O     O_2   0.817809 0.652228 0.686657 -0.236157
O9    O     O_3   0.942740 0.582229 0.823342 -0.427444
O10   O     O_2   0.168407 0.360862 0.317701 -0.183425
O11   O     O_2   0.152936 0.586645 0.285163 -0.260772
O12   O     O_R   0.385380 0.683250 0.499990 -0.621717
O13   O     O_3   0.050900 0.428891 0.179329 -0.455671
O14   O     O_2   0.332428 0.785054 0.328059 -0.237086
O15   O     O_2   0.444752 0.956831 0.261601 -0.148760
O16   O     O_3   0.593952 0.769836 0.320964 -0.530191
O17   O     O_2   0.411003 0.224525 0.673062 -0.251503
O18   O     O_2   0.529205 0.041647 0.737982 -0.154692
O19   O     O_3   0.675671 0.217340 0.679666 -0.533876
O20   O     O_R   0.385290 0.316780 0.500000 -0.549825
O21   O     O_R   0.614710 0.683220 0.500000 -0.549925
O22   O     O_R   0.627460 0.498830 0.616130 -0.570821
O23   O     O_R   0.372540 0.501170 0.383870 -0.563957
O24   O     O_R   0.398130 0.498850 0.616130 -0.546570
O25   O     O_R   0.601870 0.501150 0.383870 -0.541526
O26   O     O_2   0.711168 0.278194 0.352210 -0.232944
S1    S     S_3+6 0.741186 0.351838 0.278765 0.170977
S2    S     S_3+6 0.259912 0.634277 0.729650 0.170000
S3    S     S_3+6 0.822385 0.548092 0.748771 0.124257
S4    S     S_3+6 0.176169 0.458305 0.252221 0.126376
S5    S     S_3+6 0.459036 0.864200 0.330691 0.117629
S6    S     S_3+6 0.529376 0.135367 0.669786 0.113090
Zn1   Zn    Zn3+2 0.653130 0.499980 0.500000 1.157318
Zn2   Zn    Zn3+2 0.346870 0.500020 0.500000 1.146882

loop_
_geom_bond_atom_site_label_1
_geom_bond_atom_site_label_2
_ccdc_geom_bond_type
C10   F1    S    
O10   S4    D    
C16   S3    S    
O16   S5    S    
C3    O22   A    
O5    S2    D    
O1    Zn1   S    
O3    S1    S    
C14   H1    S    
O25   Zn1   S    
H6    O3    S    
C2    N4    A    
C24   H4    S    
C20   S5    S    
O11   S4    D    
C19   C21   A    
C24   C26   A    
O6    S2    S    
O4    S2    D    
C11   C14   A    
C12   C22   S    
C2    F6    S    
C5    C16   A    
C26   N3    A    
C25   H5    S    
O15   S5    D    
C21   S6    S    
C17   S4    S    
C11   N1    S    
H10   O16   S    
O12   Zn2   S    
C12   O12   A    
O22   Zn1   S    
H7    O6    S    
C26   F5    S    
O7    S3    D    
H2    O19   S    
C15   H3    S    
C4    O23   A    
C7    S2    S    
C12   O21   A    
O14   S5    D    
O24   Zn2   S    
C18   C23   A    
C3    O24   A    
O21   Zn1   S    
H9    O13   S    
C4    C6    S    
C5    C7    A    
C1    O1    A    
C6    C8    A    
N1    N2    D    
H8    O9    S    
C19   C22   A    
C1    O20   A    
N3    Zn1   S    
C18   F3    S    
C9    C11   A    
C20   C22   A    
C1    C23   S    
C13   C15   A    
C14   C16   A    
C25   N3    A    
C7    C9    A    
C6    C17   A    
O19   S6    S    
O18   S6    D    
O2    S1    D    
O26   S1    D    
C3    C5    S    
C10   C13   A    
C15   C17   A    
O20   Zn2   S    
C24   N4    A    
C21   C23   A    
O9    S3    S    
N4    Zn2   S    
C8    S1    S    
C2    C25   A    
C18   C20   A    
C4    O25   A    
O8    S3    D    
C8    C10   A    
O23   Zn2   S    
C19   F4    S    
O13   S4    S    
C13   N2    S    
C9    F2    S    
O17   S6    D    
