data_mof_unit_63988.cif
_audit_creation_date              2013-03-05T16:24:12-0500
_audit_creation_method            fapswitch 2.2
_symmetry_space_group_name_H-M    P1
_symmetry_Int_Tables_number       1
_space_group_crystal_system       triclinic
_cell_length_a                    28.667849
_cell_length_b                    18.362148
_cell_length_c                    21.759191
_cell_angle_alpha                 90.039402
_cell_angle_beta                  140.143525
_cell_angle_gamma                 89.98599
_cell_volume                      7340.55460849

loop_
_atom_site_label
_atom_site_type_symbol
_atom_site_description
_atom_site_fract_x
_atom_site_fract_y
_atom_site_fract_z
_atom_type_partial_charge
O1    O     O_R   0.894200 0.438770 0.894190 -0.592229
O2    O     O_R   0.105800 0.561230 0.105810 -0.589294
O3    O     O_R   0.105800 0.438770 0.105810 -0.539504
O4    O     O_R   0.894200 0.561230 0.894190 -0.533745
O5    O     O_R   0.394200 0.938770 0.894190 -0.532868
O6    O     O_R   0.605800 0.061230 0.105810 -0.532886
O7    O     O_R   0.605800 0.938770 0.105810 -0.592455
O8    O     O_R   0.394200 0.061230 0.894190 -0.592210
C1    C     C_R   0.860138 0.499961 0.861605 0.885419
C2    C     C_R   0.139874 0.500035 0.138682 0.891332
C3    C     C_R   0.360139 0.000016 0.861609 0.887712
C4    C     C_R   0.639861 0.999984 0.138391 0.887555
O9    O     O_R   0.999990 0.438770 0.909810 -0.590543
O10   O     O_R   0.000010 0.561230 0.090190 -0.586913
O11   O     O_R   0.000010 0.438770 0.090190 -0.581565
O12   O     O_R   0.999990 0.561230 0.909810 -0.574950
O13   O     O_R   0.499990 0.938770 0.909810 -0.574675
O14   O     O_R   0.500010 0.061230 0.090190 -0.574608
O15   O     O_R   0.500010 0.938770 0.090190 -0.591098
O16   O     O_R   0.499990 0.061230 0.909810 -0.590927
C5    C     C_R   0.994221 0.500229 0.875123 0.825430
C6    C     C_R   0.004451 0.499884 0.123566 0.827080
C7    C     C_R   0.494236 0.999725 0.875137 0.825353
C8    C     C_R   0.505763 0.000274 0.124863 0.825289
Cu1   Cu    Cu3+1 0.000000 0.427490 0.000000 1.060142
Cu2   Cu    Cu3+1 1.000000 0.572510 0.000000 1.063269
Cu3   Cu    Cu3+1 0.500000 0.927490 0.000000 1.060206
Cu4   Cu    Cu3+1 0.500000 0.072510 0.000000 1.060646
H1    H     H_    0.056199 0.404741 0.863396 0.163364
H2    H     H_    0.940995 0.594581 0.134178 0.161433
H3    H     H_    0.556307 0.095172 0.863613 0.163030
H4    H     H_    0.443693 0.904827 0.136387 0.163116
C9    C     C_R   0.899348 0.606111 0.704410 0.240804
C10   C     C_R   0.099582 0.395679 0.292191 0.241418
C11   C     C_R   0.399401 0.893698 0.704351 0.240597
C12   C     C_R   0.600599 0.106300 0.295649 0.240782
C13   C     C_R   0.874008 0.666510 0.644296 0.309269
C14   C     C_R   0.121871 0.332470 0.347075 0.310289
C15   C     C_R   0.374021 0.833304 0.644116 0.308684
C16   C     C_R   0.625977 0.166696 0.355881 0.309200
C17   C     C_R   0.898003 0.676392 0.608424 -0.239328
C18   C     C_R   0.102373 0.323801 0.388847 -0.237883
C19   C     C_R   0.397953 0.823483 0.608146 -0.238952
C20   C     C_R   0.602045 0.176517 0.391850 -0.239164
H5    H     H_    0.879397 0.722578 0.562959 0.199137
H6    H     H_    0.119886 0.276115 0.431824 0.196688
H7    H     H_    0.379313 0.777302 0.562583 0.199554
H8    H     H_    0.620684 0.222699 0.437411 0.199234
C21   C     C_R   0.940273 0.623761 0.622843 -0.228116
C22   C     C_R   0.062865 0.377264 0.379074 -0.226743
C23   C     C_R   0.440210 0.876161 0.622611 -0.228121
C24   C     C_R   0.559789 0.123839 0.377387 -0.227965
H9    H     H_    0.954165 0.631974 0.589068 0.158086
H10   H     H_    0.051172 0.369025 0.415484 0.159739
H11   H     H_    0.454057 0.867990 0.588768 0.158179
H12   H     H_    0.545942 0.132011 0.411230 0.158205
C25   C     C_R   0.964138 0.561958 0.679561 0.062679
C26   C     C_R   0.036837 0.438639 0.320823 0.060360
C27   C     C_R   0.464127 0.937953 0.679468 0.062584
C28   C     C_R   0.535873 0.062046 0.320531 0.062685
C29   C     C_R   0.950837 0.556700 0.730113 -0.046262
C30   C     C_R   0.048599 0.444237 0.268561 -0.038747
C31   C     C_R   0.450872 0.943166 0.730084 -0.046438
C32   C     C_R   0.549128 0.056833 0.269916 -0.046377
C33   C     C_R   0.988269 0.500958 0.801657 -0.053041
C34   C     C_R   0.010249 0.499485 0.196743 -0.043518
C35   C     C_R   0.488330 0.998924 0.801716 -0.052887
C36   C     C_R   0.511670 0.001075 0.198283 -0.053034
C37   C     C_R   0.027985 0.447537 0.810229 -0.182636
C38   C     C_R   0.970050 0.552186 0.187991 -0.185400
C39   C     C_R   0.528068 0.052366 0.810372 -0.182693
C40   C     C_R   0.471933 0.947633 0.189629 -0.182866
H13   H     H_    0.061810 0.405401 0.757547 0.151019
H14   H     H_    0.936255 0.593264 0.241066 0.151727
H15   H     H_    0.561885 0.094547 0.757739 0.150768
H16   H     H_    0.438116 0.905451 0.242262 0.150949
C41   C     C_R   0.033015 0.448783 0.751887 -0.183884
C42   C     C_R   0.965664 0.550539 0.247036 -0.181714
C43   C     C_R   0.533072 0.051148 0.752005 -0.184160
C44   C     C_R   0.466928 0.948851 0.247996 -0.183848
C45   C     C_R   0.001157 0.505229 0.686596 -0.042424
C46   C     C_R   0.999013 0.494580 0.313498 -0.043827
C47   C     C_R   0.501158 0.994714 0.686588 -0.042213
C48   C     C_R   0.498842 0.005286 0.313412 -0.042245
C49   C     C_1   0.782574 0.499911 0.784245 -0.082107
C50   C     C_1   0.217428 0.500085 0.216008 -0.080769
C51   C     C_1   0.282574 0.000024 0.784247 -0.082607
C52   C     C_1   0.717426 0.999976 0.215753 -0.082718
C53   C     C_1   0.717276 0.499944 0.718531 -0.123448
C54   C     C_1   0.282724 0.500053 0.281578 -0.124617
C55   C     C_1   0.217276 0.000002 0.718532 -0.123561
C56   C     C_1   0.782724 0.999998 0.281469 -0.123388
O17   O     O_R   0.061240 0.605830 0.561270 -0.564619
O18   O     O_R   0.938760 0.394170 0.438730 -0.565165
O19   O     O_R   0.938760 0.605830 0.438730 -0.587407
O20   O     O_R   0.061240 0.394170 0.561270 -0.587798
O21   O     O_R   0.561240 0.105830 0.561270 -0.587373
O22   O     O_R   0.438760 0.894170 0.438730 -0.587255
O23   O     O_R   0.438760 0.105830 0.438730 -0.564549
O24   O     O_R   0.561240 0.894170 0.561270 -0.564963
C57   C     C_R   0.000010 0.639917 0.499974 0.823010
C58   C     C_R   0.999990 0.360082 0.500003 0.822197
C59   C     C_R   0.500015 0.139917 0.500026 0.821833
C60   C     C_R   0.499985 0.860082 0.499974 0.821895
O25   O     O_R   0.061260 0.500000 0.651450 -0.587350
O26   O     O_R   0.938740 0.500000 0.348550 -0.587507
O27   O     O_R   0.561260 1.000000 0.651450 -0.587312
O28   O     O_R   0.438740 1.000000 0.348550 -0.587074
O29   O     O_R   0.938780 0.500000 0.528960 -0.565675
O30   O     O_R   0.061220 0.500000 0.471040 -0.565504
O31   O     O_R   0.438780 1.000000 0.528960 -0.565493
O32   O     O_R   0.561220 0.000000 0.471040 -0.565668
C61   C     C_R   0.000571 0.500414 0.619396 0.777187
C62   C     C_R   0.999477 0.498998 0.380636 0.777130
C63   C     C_R   0.500571 0.999562 0.619394 0.776757
C64   C     C_R   0.499429 0.000438 0.380606 0.776958
Cu5   Cu    Cu3+1 0.072520 0.500000 0.572540 1.013189
Cu6   Cu    Cu3+1 0.927480 0.500000 0.427460 1.012215
Cu7   Cu    Cu3+1 0.572520 0.000000 0.572540 1.013064
Cu8   Cu    Cu3+1 0.427480 1.000000 0.427460 1.014428
O33   O     O_R   0.500010 0.605810 0.447830 -0.571326
O34   O     O_R   0.499990 0.394190 0.552170 -0.573193
O35   O     O_R   0.499990 0.605810 0.552170 -0.581643
O36   O     O_R   0.500010 0.394190 0.447830 -0.581359
O37   O     O_R   0.000010 0.105810 0.447830 -0.582998
O38   O     O_R   0.999990 0.894190 0.552170 -0.581846
O39   O     O_R   0.999990 0.105810 0.552170 -0.571147
O40   O     O_R   0.000010 0.894190 0.447830 -0.571310
C65   C     C_R   0.499981 0.639713 0.500003 0.831840
C66   C     C_R   0.500020 0.360287 0.499998 0.830900
C67   C     C_R   0.000001 0.139713 0.500012 0.831301
C68   C     C_R   0.999998 0.860287 0.499987 0.831417
O41   O     O_R   0.605800 0.500000 0.553630 -0.549954
O42   O     O_R   0.394200 0.500000 0.446370 -0.552114
O43   O     O_R   0.105800 0.000000 0.553630 -0.551088
O44   O     O_R   0.894200 1.000000 0.446370 -0.550082
O45   O     O_R   0.605820 0.500000 0.658030 -0.593542
O46   O     O_R   0.394180 0.500000 0.341970 -0.592924
O47   O     O_R   0.105820 1.000000 0.658030 -0.593233
O48   O     O_R   0.894180 1.000000 0.341970 -0.593519
C69   C     C_R   0.639723 0.499993 0.640114 0.827616
C70   C     C_R   0.360277 0.500007 0.359900 0.826955
C71   C     C_R   0.139723 0.999989 0.640114 0.827378
C72   C     C_R   0.860277 0.000010 0.359886 0.827399
Cu9   Cu    Cu3+1 0.500000 0.500000 0.438200 1.031085
Cu10  Cu    Cu3+1 0.500000 0.500000 0.561800 1.027405
Cu11  Cu    Cu3+1 0.000000 0.000000 0.438200 1.028502
Cu12  Cu    Cu3+1 0.000000 0.000000 0.561800 1.031139
C73   C     C_1   0.000019 0.717445 0.500007 -0.157100
C74   C     C_1   0.999981 0.282554 0.499981 -0.156735
C75   C     C_1   0.500049 0.217445 0.499985 -0.157457
C76   C     C_1   0.499952 0.782555 0.500015 -0.156974
C77   C     C_1   0.500048 0.282748 0.499975 -0.144151
C78   C     C_1   0.499953 0.717252 0.500026 -0.142975
C79   C     C_1   0.000008 0.782748 0.499990 -0.142904
C80   C     C_1   0.999991 0.217252 0.500006 -0.143453
N1    N     N_R   0.865279 0.590280 0.727472 0.131172
O49   O     O_R   0.831344 0.528622 0.699883 -0.373021
O50   O     O_R   0.856222 0.641653 0.758825 -0.296996
N2    N     N_R   0.140392 0.418864 0.280502 0.118632
O51   O     O_R   0.163611 0.485769 0.301361 -0.379279
O52   O     O_R   0.166273 0.371868 0.267679 -0.289970
N3    N     N_R   0.365389 0.909458 0.727518 0.131198
O53   O     O_R   0.356475 0.858075 0.758978 -0.297078
O54   O     O_R   0.331359 0.971032 0.699925 -0.373852
N4    N     N_R   0.634614 0.090537 0.272486 0.131229
O55   O     O_R   0.643532 0.141919 0.241030 -0.297125
O56   O     O_R   0.668641 0.028962 0.300078 -0.373198
N5    N     N_R   0.820081 0.715567 0.613635 0.158131
O57   O     O_R   0.759728 0.690108 0.575372 -0.271110
O58   O     O_R   0.824875 0.784928 0.606930 -0.329220
N6    N     N_R   0.166359 0.277724 0.363913 0.163549
O59   O     O_R   0.141391 0.241560 0.291733 -0.296363
O60   O     O_R   0.223217 0.253018 0.450313 -0.318203
N7    N     N_R   0.320122 0.784180 0.613449 0.158378
O61   O     O_R   0.259823 0.809567 0.575386 -0.270622
O62   O     O_R   0.324879 0.714837 0.606555 -0.328023
N8    N     N_R   0.679875 0.215820 0.386546 0.158109
O63   O     O_R   0.740178 0.190434 0.424618 -0.270907
O64   O     O_R   0.675111 0.285164 0.393426 -0.329329

loop_
_geom_bond_atom_site_label_1
_geom_bond_atom_site_label_2
_geom_bond_distance
_ccdc_geom_bond_type
C26   C30   1.416454 A    
N4    O56   1.300621 A    
O12   C5    1.287994 A    
C51   C55   1.199701 T    
C38   C42   1.383981 A    
C28   C48   1.408950 A    
N5    O57   1.301361 A    
O28   Cu8   1.975676 S    
C37   C41   1.383459 A    
N3    O53   1.301409 A    
O24   C60   1.287582 A    
C44   C48   1.391413 A    
O25   Cu5   1.975677 S    
C39   C43   1.383369 A    
Cu9   Cu10  2.689436 S    
C21   C25   1.408641 A    
H4    C40   1.083716 S    
O13   C7    1.288097 A    
O26   C62   1.285758 A    
O14   C8    1.288101 A    
C32   C36   1.435078 A    
O25   C61   1.284695 A    
C67   C80   1.423779 S    
N3    O54   1.300622 A    
C27   C47   1.408950 A    
C14   C18   1.394355 A    
O20   C58   1.287514 A    
C26   C46   1.410893 A    
C13   N5    1.436394 S    
C65   C78   1.423783 S    
O44   C72   1.295106 A    
O22   C60   1.287589 A    
O11   Cu1   1.973001 S    
O46   Cu9   1.958294 S    
C7    C35   1.471654 S    
C10   C30   1.428907 A    
C68   C79   1.423783 S    
O7    Cu3   1.954872 S    
O30   Cu5   1.970845 S    
O10   C6    1.292903 A    
C18   H6    1.083210 S    
O27   Cu7   1.975677 S    
C25   C29   1.417299 A    
O37   C67   1.294707 A    
C6    C34   1.468575 S    
C24   C28   1.408627 A    
Cu11  Cu12  2.689436 S    
C1    C49   1.425219 S    
O23   Cu8   1.954198 S    
O5    Cu3   1.955052 S    
O47   C71   1.295506 A    
C11   C31   1.430866 A    
C53   C69   1.424820 S    
N1    O49   1.300630 A    
O6    Cu4   1.955051 S    
C52   C56   1.199701 T    
C3    C51   1.425224 S    
C43   C47   1.391411 A    
O16   C7    1.296035 A    
C41   C45   1.391479 A    
O15   Cu3   1.973001 S    
O30   C62   1.287305 A    
H1    C37   1.083712 S    
O29   C61   1.287809 A    
O39   Cu12  1.954285 S    
C20   C24   1.384562 A    
H3    C39   1.083716 S    
C48   C64   1.451984 S    
C74   C80   1.199096 T    
O35   C65   1.294819 A    
O1    Cu1   1.955052 S    
N5    O58   1.301316 A    
O9    Cu1   1.973285 S    
O17   Cu5   1.954377 S    
C56   C72   1.424823 S    
O40   C68   1.295020 A    
O48   Cu11  1.958294 S    
C17   C21   1.384550 A    
H2    C38   1.083702 S    
C9    N1    1.429333 S    
O29   Cu6   1.970844 S    
N8    O63   1.301357 A    
C55   C71   1.424823 S    
O11   C6    1.288377 A    
O19   Cu6   1.954198 S    
O12   Cu2   1.973001 S    
O7    C4    1.286905 A    
O42   Cu10  1.952414 S    
C31   C35   1.435083 A    
O47   Cu12  1.958289 S    
C30   C34   1.429607 A    
O36   C66   1.294815 A    
O13   Cu3   1.973285 S    
O1    C1    1.286976 A    
C47   C63   1.451983 S    
O20   Cu5   1.954201 S    
C12   C16   1.418215 A    
O14   Cu4   1.973285 S    
C46   C62   1.452893 S    
C15   N7    1.436412 S    
O23   C59   1.287582 A    
C50   C54   1.199683 T    
O17   C57   1.287648 A    
C49   C53   1.199700 T    
O34   Cu10  1.954000 S    
C15   C19   1.392815 A    
O16   Cu4   1.973001 S    
C23   H11   1.082108 S    
Cu1   Cu2   2.662881 S    
C11   N3    1.429304 S    
O31   Cu8   1.970844 S    
N2    O52   1.300095 A    
O21   Cu7   1.954377 S    
C11   C15   1.418217 A    
O37   Cu11  1.953999 S    
O42   C70   1.294824 A    
C42   C46   1.392860 A    
O4    Cu2   1.954874 S    
N7    O61   1.301358 A    
O35   Cu10  1.954285 S    
O38   C68   1.294711 A    
C36   C40   1.402534 A    
C4    C52   1.425224 S    
C12   N4    1.429307 S    
C22   C26   1.408152 A    
O9    C5    1.296156 A    
O2    Cu2   1.955051 S    
O24   Cu7   1.954201 S    
C22   H10   1.082063 S    
O10   Cu2   1.973285 S    
O22   Cu8   1.954378 S    
C20   H8    1.083151 S    
C54   C70   1.424824 S    
O27   C63   1.284688 A    
O44   Cu12  1.952414 S    
C58   C74   1.423579 S    
C16   N8    1.436409 S    
C9    C29   1.430866 A    
C18   C22   1.386246 A    
N7    O62   1.301313 A    
O43   Cu11  1.952411 S    
O5    C3    1.287851 A    
O46   C70   1.295789 A    
N4    O55   1.301410 A    
O8    Cu4   1.954874 S    
O33   Cu9   1.953999 S    
C25   C45   1.408902 A    
C23   C27   1.408628 A    
O2    C2    1.286963 A    
O32   C64   1.287797 A    
N6    O59   1.301089 A    
C9    C13   1.418238 A    
C76   C78   1.199093 T    
C33   C37   1.402512 A    
O45   C69   1.295508 A    
C2    C50   1.425046 S    
O38   Cu12  1.954000 S    
C5    C33   1.471701 S    
C10   C14   1.418293 A    
C27   C31   1.417350 A    
H16   C44   1.083910 S    
O33   C65   1.294912 A    
C19   H7    1.083153 S    
O32   Cu7   1.970845 S    
N8    O64   1.301310 A    
Cu7   Cu8   2.664945 S    
O40   Cu11  1.954287 S    
C14   N6    1.433115 S    
C59   C75   1.423579 S    
O36   Cu9   1.954287 S    
O41   C69   1.295103 A    
C28   C32   1.417350 A    
O45   Cu10  1.958289 S    
C60   C76   1.423579 S    
O48   C72   1.295503 A    
O15   C8    1.296032 A    
C73   C79   1.199094 T    
C40   C44   1.383371 A    
O3    C2    1.287658 A    
C17   H5    1.083153 S    
Cu5   Cu6   2.664945 S    
N2    O51   1.301590 A    
O6    C4    1.287851 A    
O18   Cu6   1.954378 S    
O28   C64   1.284688 A    
C34   C38   1.401274 A    
C24   H12   1.082105 S    
C19   C23   1.384559 A    
O8    C3    1.286905 A    
C21   H9    1.082127 S    
C57   C73   1.423580 S    
O43   C71   1.295105 A    
N6    O60   1.301200 A    
C66   C77   1.423783 S    
C35   C39   1.402536 A    
C75   C77   1.199094 T    
C13   C17   1.392803 A    
O21   C59   1.287587 A    
O39   C67   1.295023 A    
C8    C36   1.471652 S    
C29   C33   1.435096 A    
C16   C20   1.392814 A    
O3    Cu1   1.954872 S    
O41   Cu9   1.952411 S    
O18   C58   1.287657 A    
N1    O50   1.301404 A    
H14   C42   1.083899 S    
C45   C61   1.452017 S    
Cu3   Cu4   2.662881 S    
H13   C41   1.083908 S    
O31   C63   1.287799 A    
O4    C1    1.287787 A    
C12   C32   1.430860 A    
H15   C43   1.083910 S    
O34   C66   1.294917 A    
O26   Cu6   1.975676 S    
O19   C57   1.287519 A    
C10   N2    1.439437 S    
