data_mof_unit_7488.cif
_audit_creation_date              2012-10-26T21:21:04-0400
_audit_creation_method            fapswitch 2.2
_symmetry_space_group_name_H-M    P1
_symmetry_Int_Tables_number       1
_space_group_crystal_system       triclinic
_cell_length_a                    10.818791
_cell_length_b                    10.922283
_cell_length_c                    9.700376
_cell_angle_alpha                 88.771147
_cell_angle_beta                  89.507138
_cell_angle_gamma                 90.279336
_cell_volume                      1145.9329295

loop_
_atom_site_label
_atom_site_type_symbol
_atom_type_description
_atom_site_fract_x
_atom_site_fract_y
_atom_site_fract_z
_atom_type_partial_charge
C1    C     C_R   0.505012 0.265615 0.501487 0.559622
C2    C     C_2   0.522028 0.134654 0.507442 -0.097370
C3    C     C_2   0.435538 0.422205 0.924244 0.264352
C4    C     C_R   0.262230 0.509614 0.501246 0.567025
C5    C     C_2   0.420952 0.438505 0.078097 0.494658
C6    C     C_R   0.498324 0.734516 0.498587 0.566833
C7    C     C_R   0.737395 0.489086 0.500147 0.567789
C8    C     C_R   0.106602 0.537720 0.762413 0.345285
C9    C     C_R   0.049770 0.492363 0.882620 -0.117748
C10   C     C_R   0.945518 0.416401 0.875241 0.109529
C11   C     C_R   0.886665 0.404970 0.747237 0.379340
C12   C     C_R   0.059253 0.507349 0.631717 -0.028232
C13   C     C_R   0.937353 0.462674 0.626893 -0.033006
C14   C     C_3   0.424127 0.204537 0.894646 -0.291135
C15   C     C_3   0.666605 0.635639 0.098006 -0.235626
C16   C     C_3   0.981026 0.287783 0.079934 -0.304515
C17   C     C_3   0.758192 0.860349 0.380440 -0.301951
C18   C     C_3   0.269891 0.928578 0.509842 -0.294428
C19   C     C_R   0.127062 0.518141 0.505581 0.011194
C20   C     C_R   0.064121 0.516319 0.380084 -0.166595
C21   C     C_R   0.937243 0.502065 0.378571 -0.183082
C22   C     C_R   0.872074 0.477720 0.501468 0.015758
C23   C     C_2   0.550074 0.936339 0.403031 0.130687
C24   C     C_2   0.483216 0.866345 0.494164 0.154662
C25   C     C_2   0.531970 0.069183 0.393316 -0.132197
Cu1   Cu    Cu3+1 0.500020 0.500020 0.638630 1.056642
Cu2   Cu    Cu3+1 0.499980 0.499980 0.361370 1.043288
F1    F     F_    0.320392 0.386350 0.140668 -0.661807
F2    F     F_    0.198956 0.621163 0.775620 -0.630243
F3    F     F_    0.787813 0.328348 0.738212 -0.645749
H1    H     H_    0.112751 0.527262 0.282473 0.168040
H2    H     H_    0.524195 0.203045 0.867758 0.176324
H3    H     H_    0.652471 0.449373 0.034308 0.239162
H4    H     H_    0.745649 0.642713 0.169128 0.161363
H5    H     H_    0.700304 0.659149 0.992247 0.099953
H6    H     H_    0.594742 0.702800 0.127086 0.179368
H7    H     H_    0.812750 0.312813 0.983394 0.292914
H8    H     H_    0.931153 0.245926 0.169883 0.145432
H9    H     H_    0.055375 0.346927 0.120323 0.189772
H10   H     H_    0.022301 0.213562 0.018182 0.158273
H11   H     H_    0.651648 0.930248 0.221891 0.238049
H12   H     H_    0.531522 0.091574 0.608774 0.137241
H13   H     H_    0.822404 0.817466 0.306023 0.130793
H14   H     H_    0.746482 0.796734 0.470501 0.153375
H15   H     H_    0.799944 0.947649 0.414744 0.147740
H16   H     H_    0.378969 0.874777 0.673752 0.278307
H17   H     H_    0.203112 0.974151 0.579275 0.156608
H18   H     H_    0.233007 0.836628 0.484504 0.155559
H19   H     H_    0.279398 0.985263 0.413839 0.159783
H20   H     H_    0.522254 0.580601 0.889496 0.199411
H21   H     H_    0.088402 0.515512 0.981303 0.159368
H22   H     H_    0.890504 0.509432 0.280599 0.155749
H23   H     H_    0.533591 0.113365 0.291871 0.135792
H24   H     H_    0.278361 0.325378 0.880444 0.258270
H25   H     H_    0.376321 0.133895 0.833703 0.142118
H26   H     H_    0.411772 0.181516 0.006110 0.148396
N1    N     N_2   0.498640 0.498660 0.846910 -0.320359
N2    N     N_2   0.498610 0.498630 0.153040 -0.132988
N3    N     N_2   0.372388 0.323525 0.862347 -0.433250
N4    N     N_2   0.618150 0.511923 0.102731 -0.439011
N5    N     N_2   0.895304 0.358346 0.996772 -0.519974
N6    N     N_2   0.640687 0.883564 0.314809 -0.526933
N7    N     N_2   0.387812 0.916908 0.577959 -0.561159
O1    O     O_R   0.500020 0.321960 0.617040 -0.453173
O2    O     O_R   0.499980 0.321920 0.382900 -0.474496
O3    O     O_R   0.319670 0.500020 0.617100 -0.424483
O4    O     O_R   0.319630 0.499980 0.382950 -0.461829
O5    O     O_R   0.500020 0.678080 0.617100 -0.515300
O6    O     O_R   0.499980 0.678040 0.382960 -0.492083
O7    O     O_R   0.680370 0.500020 0.617050 -0.452831
O8    O     O_R   0.680330 0.499980 0.382900 -0.502274

loop_
_geom_bond_atom_site_label_1
_geom_bond_atom_site_label_2
_ccdc_geom_bond_type
C6    O6    A    
C14   H26   S    
C23   C24   D    
C17   H13   S    
C3    N3    S    
Cu2   O2    S    
C17   N6    S    
C4    O4    A    
C5    F1    S    
C4    C19   S    
C9    C10   A    
C15   H6    S    
C15   H4    S    
H7    N5    S    
C19   C20   A    
Cu2   O6    S    
H16   N7    S    
C8    C12   A    
Cu1   O5    S    
C18   H17   S    
C7    O7    A    
C6    O5    A    
C14   H25   S    
C17   H14   S    
C6    C24   S    
C21   C22   A    
C20   C21   A    
C4    O3    A    
C14   N3    S    
C11   C13   A    
Cu1   Cu2   S    
C5    N2    D    
C16   H10   S    
C7    C22   S    
C8    F2    S    
H11   N6    S    
C12   C19   A    
C15   H5    S    
C2    H12   S    
C13   C22   A    
H3    N4    S    
H24   N3    S    
C23   C25   S    
C7    O8    A    
Cu1   O7    S    
Cu1   N1    S    
C18   N7    S    
C10   N5    S    
Cu2   O4    S    
C10   C11   A    
C24   N7    S    
C16   H9    S    
N2    N4    S    
Cu1   O3    S    
C1    O1    A    
C3    N1    D    
C2    C25   D    
Cu2   O8    S    
C12   C13   A    
C11   F3    S    
C15   N4    S    
C1    C2    S    
C16   N5    S    
C14   H2    S    
Cu1   O1    S    
C9    H21   S    
C23   N6    S    
C16   H8    S    
H20   N1    S    
C1    O2    A    
Cu2   N2    S    
C21   H22   S    
C17   H15   S    
C18   H19   S    
C25   H23   S    
C8    C9    A    
C3    C5    S    
C20   H1    S    
C18   H18   S    
