data_mof_unit_19055.cif
_audit_creation_date              2012-12-11T14:23:07-0500
_audit_creation_method            fapswitch 2.2
_symmetry_space_group_name_H-M    P1
_symmetry_Int_Tables_number       1
_space_group_crystal_system       triclinic
_cell_length_a                    11.278222
_cell_length_b                    10.903798
_cell_length_c                    18.825163
_cell_angle_alpha                 90.94496
_cell_angle_beta                  90.418188
_cell_angle_gamma                 60.001527
_cell_volume                      2004.63434822

loop_
_atom_site_label
_atom_site_type_symbol
_atom_type_description
_atom_site_fract_x
_atom_site_fract_y
_atom_site_fract_z
_atom_type_partial_charge
C1    C     C_R   0.223946 0.651741 0.605564 0.593129
C2    C     C_R   0.556300 0.199891 0.719503 -0.053884
C3    C     C_R   0.562130 0.196866 0.791775 -0.105491
C4    C     C_R   0.653144 0.621921 0.601828 0.573969
C5    C     C_R   0.889375 0.186673 0.825355 -0.110060
C6    C     C_R   0.000287 0.172492 0.787582 -0.145109
C7    C     C_R   0.006451 0.149892 0.714645 -0.144499
C8    C     C_R   0.898207 0.152565 0.677667 -0.118019
C9    C     C_R   0.663488 0.187718 0.678448 0.072328
C10   C     C_R   0.150305 0.672793 0.827007 0.057617
C11   C     C_R   0.176439 0.544193 0.788712 0.029998
C12   C     C_3   0.684785 0.586682 0.806295 -0.172157
C13   C     C_R   0.164096 0.554727 0.712411 -0.019204
C14   C     C_R   0.120228 0.794084 0.714315 -0.082550
C15   C     C_R   0.119697 0.794295 0.787653 -0.095879
C16   C     C_R   0.628287 0.229252 0.603123 0.592163
C17   C     C_R   0.211071 0.406478 0.817965 0.197445
C18   C     C_R   0.230441 0.295585 0.770834 -0.144056
C19   C     C_R   0.207820 0.315736 0.698611 0.156399
C20   C     C_R   0.161323 0.447344 0.671801 -0.076759
C21   C     C_R   0.156284 0.671576 0.676254 0.046516
C22   C     C_R   0.724084 0.699592 0.182144 -0.008509
C23   C     C_3   0.731959 0.695967 0.808002 -0.028571
C24   C     C_R   0.791520 0.560943 0.211203 0.041529
C25   C     C_R   0.737581 0.539060 0.272395 0.024751
C26   C     C_R   0.632410 0.790548 0.299675 -0.163922
C27   C     C_R   0.648977 0.814896 0.228335 -0.166310
C28   C     C_R   0.278603 0.623599 0.391893 0.527178
C29   C     C_R   0.909268 0.441964 0.181598 -0.085951
C30   C     C_R   0.949818 0.307097 0.201947 -0.141941
C31   C     C_R   0.881540 0.284654 0.255391 -0.111377
C32   C     C_R   0.768033 0.399620 0.286130 -0.070219
C33   C     C_R   0.665504 0.654153 0.320327 -0.009940
C34   C     C_3   0.679208 0.653998 0.676251 0.047816
C35   C     C_R   0.658123 0.150107 0.177966 0.004645
C36   C     C_R   0.526442 0.221977 0.207222 0.005899
C37   C     C_R   0.512799 0.206591 0.279950 0.025422
C38   C     C_R   0.758979 0.089418 0.295672 -0.181615
C39   C     C_R   0.771909 0.076535 0.222703 -0.166740
C40   C     C_R   0.642833 0.623468 0.392969 0.525194
C41   C     C_R   0.408527 0.292170 0.164565 -0.060773
C42   C     C_R   0.283734 0.314935 0.189402 -0.107950
C43   C     C_R   0.273596 0.274835 0.257773 -0.162100
C44   C     C_R   0.385813 0.223711 0.303345 -0.093991
C45   C     C_3   0.834643 0.603670 0.686395 -0.247427
C46   C     C_R   0.630075 0.166030 0.324622 -0.000515
C47   C     C_R   0.078615 0.732098 0.194058 -0.002605
C48   C     C_R   0.144445 0.806814 0.221808 0.048125
C49   C     C_R   0.233323 0.745881 0.278260 0.016420
C50   C     C_R   0.133555 0.597874 0.301300 -0.121037
C51   C     C_R   0.068310 0.634970 0.236425 -0.167686
C52   C     C_R   0.613519 0.227623 0.395792 0.531450
C53   C     C_R   0.133975 0.933192 0.193199 -0.084768
C54   C     C_R   0.228183 0.975252 0.210341 -0.127526
C55   C     C_R   0.322124 0.906329 0.262138 -0.105319
C56   C     C_3   0.648214 0.564851 0.730976 0.056889
C57   C     C_R   0.328683 0.788959 0.292967 -0.081434
C58   C     C_R   0.221383 0.647862 0.321033 0.008766
C59   C     C_R   0.700336 0.105679 0.897879 0.538628
C60   C     C_R   0.757776 0.713903 0.883938 0.523707
C61   C     C_R   0.113658 0.705271 0.903447 0.596905
C62   C     C_R   0.677173 0.104718 0.104188 0.525098
C63   C     C_R   0.735458 0.718286 0.105329 0.532427
C64   C     C_3   0.621410 0.837565 0.773869 -0.197556
C65   C     C_R   0.033068 0.747509 0.120063 0.518315
C66   C     C_3   0.598310 0.814605 0.694636 0.111866
C67   C     C_R   0.678971 0.173751 0.828211 0.016449
C68   C     C_3   0.862335 0.637621 0.762786 -0.274537
C69   C     C_R   0.783466 0.178002 0.790098 0.014863
C70   C     C_R   0.781380 0.173597 0.714197 0.010931
Cl1   Cl    Cl    0.269952 0.172768 0.637534 -0.643062
Cl2   Cl    Cl    0.647142 0.910241 0.636536 -0.654159
Cr1   Cr    Cr6+3 0.392940 0.397950 0.502230 1.068227
Cr2   Cr    Cr6+3 0.398400 0.708500 0.501260 1.078493
Cr3   Cr    Cr6+3 0.708640 0.393530 0.496460 1.012708
Cr4   Cr    Cr6+3 0.937880 0.938320 0.007620 1.004355
Cr5   Cr    Cr6+3 0.625560 0.937220 0.994510 1.080702
Cr6   Cr    Cr6+3 0.938080 0.625010 0.001190 1.094925
H1    H     H_    0.654884 0.917068 0.779198 0.152088
H2    H     H_    0.912003 0.128465 0.621448 0.156761
H3    H     H_    0.110175 0.884777 0.687213 0.156085
H4    H     H_    0.522184 0.880374 0.802476 0.157177
H5    H     H_    0.096167 0.892824 0.813726 0.157784
H6    H     H_    0.270771 0.188788 0.789320 0.151751
H7    H     H_    0.129996 0.462297 0.616682 0.160751
H8    H     H_    0.585121 0.878543 0.337126 0.130856
H9    H     H_    0.976935 0.449112 0.144149 0.149082
H10   H     H_    0.606118 0.922072 0.209794 0.140671
H11   H     H_    0.031925 0.222227 0.173897 0.100621
H12   H     H_    0.714475 0.451256 0.716561 0.132912
H13   H     H_    0.920956 0.178922 0.273940 0.126598
H14   H     H_    0.487638 0.861067 0.684672 0.237604
H15   H     H_    0.706437 0.380647 0.321713 0.160976
H16   H     H_    0.849037 0.042821 0.329256 0.134235
H17   H     H_    0.414136 0.320614 0.110344 0.179032
H18   H     H_    0.871502 0.007790 0.201266 0.126907
H19   H     H_    0.197137 0.358515 0.154206 0.130737
H20   H     H_    0.178047 0.285973 0.276204 0.122542
H21   H     H_    0.373137 0.188815 0.354617 0.157045
H22   H     H_    0.116905 0.528652 0.335232 0.150212
H23   H     H_    0.943695 0.538992 0.786859 0.145485
H24   H     H_    0.054760 0.002341 0.157158 0.144131
H25   H     H_    0.009663 0.588569 0.219490 0.110940
H26   H     H_    0.231984 0.059380 0.183106 0.119886
H27   H     H_    0.386279 0.947860 0.278608 0.123677
H28   H     H_    0.409368 0.727975 0.326989 0.144955
H29   H     H_    0.896126 0.717375 0.761422 0.129082
H30   H     H_    0.871054 0.652496 0.647129 0.178246
H31   H     H_    0.766807 0.482418 0.825673 0.136682
H32   H     H_    0.599078 0.623093 0.844828 0.211433
H33   H     H_    0.278803 0.136365 0.915374 0.329562
H34   H     H_    0.896736 0.487109 0.677382 0.142640
H35   H     H_    0.506284 0.505785 0.629574 0.354027
H36   H     H_    0.465305 0.211964 0.695515 0.224092
H37   H     H_    0.886954 0.206136 0.881937 0.156772
H38   H     H_    0.478557 0.197821 0.818504 0.202534
H39   H     H_    0.084448 0.170873 0.815894 0.132652
H40   H     H_    0.098590 0.120255 0.686863 0.209043
O1    O     O_R   0.507340 0.255690 0.581430 -0.429860
O2    O     O_R   0.837290 0.593240 0.915240 -0.486909
O3    O     O_R   0.065320 0.635310 0.931580 -0.434759
O4    O     O_R   0.280360 0.527380 0.578910 -0.486286
O5    O     O_R   0.068470 0.828620 0.091850 -0.515188
O6    O     O_R   0.799150 0.057200 0.079350 -0.530018
O7    O     O_R   0.585220 0.080180 0.076770 -0.503182
O8    O     O_R   0.627170 0.809480 0.067050 -0.466050
O9    O     O_R   0.816200 0.596410 0.076500 -0.519008
O10   O     O_R   0.045770 0.638240 0.081070 -0.487895
O11   O     O_3   0.833840 0.833520 0.001110 -0.340220
O12   O     O_R   0.524510 0.695820 0.424050 -0.527820
O13   O     O_R   0.260600 0.739610 0.584580 -0.475515
O14   O     O_R   0.532370 0.695050 0.573830 -0.454736
O15   O     O_R   0.744850 0.503430 0.576380 -0.535608
O16   O     O_R   0.699080 0.276500 0.571950 -0.537324
O17   O     O_R   0.498860 0.256520 0.419860 -0.526291
O18   O     O_R   0.272490 0.528150 0.429140 -0.509429
O19   O     O_R   0.252110 0.740440 0.423010 -0.517820
O20   O     O_2   0.323184 0.413089 0.945519 -0.237636
O21   O     O_2   0.118172 0.387629 0.947370 -0.289033
O22   O     O_3   0.344248 0.171675 0.912375 -0.534654
O23   O     O_R   0.736370 0.504260 0.414810 -0.512358
O24   O     O_2   0.451216 0.547033 0.803883 -0.273229
O25   O     O_2   0.377908 0.745401 0.722993 -0.324907
O26   O     O_3   0.465489 0.490689 0.672019 -0.515425
O27   O     O_R   0.691220 0.277270 0.422180 -0.518075
O28   O     O_3   0.499990 0.499990 0.499980 -0.317662
O29   O     O_R   0.089570 0.825450 0.930590 -0.519052
O30   O     O_R   0.818700 0.054260 0.929860 -0.527919
O31   O     O_R   0.606310 0.077010 0.915520 -0.451767
O32   O     O_R   0.646730 0.806540 0.917560 -0.488471
S1    S     S_3+6 0.248171 0.349172 0.908217 -0.004545
S2    S     S_3+6 0.479072 0.592377 0.733918 -0.046659

loop_
_geom_bond_atom_site_label_1
_geom_bond_atom_site_label_2
_ccdc_geom_bond_type
C24   C25   A    
C34   C56   S    
C52   O27   A    
Cr1   O1    S    
Cr2   O14   S    
C11   C13   A    
C41   C42   A    
C19   Cl1   S    
C19   C20   A    
C43   H20   S    
C16   O16   A    
C34   C66   S    
C12   H32   S    
Cr3   O16   S    
C7    C8    A    
C4    O14   A    
C17   S1    S    
C53   C54   A    
Cr3   O27   S    
C1    C21   S    
C12   C23   S    
C26   C27   A    
C55   H27   S    
C5    C6    A    
C14   C21   A    
C54   H26   S    
C36   C37   A    
C9    C16   S    
C10   C15   A    
C30   C31   A    
C44   H21   S    
C51   H25   S    
C15   H5    S    
C46   C52   S    
C49   C57   A    
C61   O3    A    
C18   C19   A    
O24   S2    D    
C41   H17   S    
Cr6   O3    S    
C24   C29   A    
C5    C69   A    
Cr3   O23   S    
C59   C67   S    
C22   C63   S    
C1    O4    A    
C66   Cl2   S    
Cr1   O17   S    
Cr4   O29   S    
C18   H6    S    
C60   O2    A    
C68   H29   S    
C56   S2    S    
C6    H39   S    
C45   H30   S    
C59   O30   A    
C25   C32   A    
C56   H12   S    
C57   H28   S    
Cr6   O10   S    
Cr2   O13   S    
C5    H37   S    
C7    H40   S    
C36   C41   A    
C23   C60   S    
C30   H11   S    
Cr6   O9    S    
C62   O6    A    
C12   H31   S    
Cr2   O28   S    
H33   O22   S    
C50   C51   A    
C59   O31   A    
Cr3   O28   S    
C48   C53   A    
Cr2   O19   S    
C4    C34   S    
C45   H34   S    
C33   C40   S    
C29   H9    S    
Cr4   O6    S    
C65   O10   A    
C9    C70   A    
C16   O1    A    
Cr5   O31   S    
C66   H14   S    
C49   C58   A    
C67   C69   A    
C35   C36   A    
C50   C58   A    
C23   C68   S    
C35   C39   A    
C43   C44   A    
C40   O12   A    
C29   C30   A    
Cr4   O11   S    
C26   C33   A    
C47   C48   A    
Cr1   O18   S    
C53   H24   S    
C26   H8    S    
C20   H7    S    
C38   H16   S    
C45   C68   S    
C17   C18   A    
C13   C21   A    
C34   C45   S    
Cr5   O11   S    
C68   H23   S    
O22   S1    S    
C64   H4    S    
C12   C56   S    
C60   O32   A    
C23   C64   S    
C31   H13   S    
C22   C27   A    
Cr2   O12   S    
C64   H1    S    
C22   C24   A    
C42   H19   S    
C10   C61   S    
C42   C43   A    
Cr5   O7    S    
Cr6   O2    S    
C54   C55   A    
O25   S2    D    
C13   C20   A    
C28   O18   A    
Cr4   O5    S    
C8    C70   A    
Cr6   O11   S    
C31   C32   A    
C3    C67   A    
C28   O19   A    
C1    O13   A    
C11   C17   A    
Cr5   O32   S    
C62   O7    A    
C47   C51   A    
Cr3   O15   S    
C6    C7    A    
C28   C58   S    
O20   S1    D    
C50   H22   S    
H35   O26   S    
Cr1   O28   S    
C3    H38   S    
C37   C44   A    
C55   C57   A    
C2    C3    A    
C61   O29   A    
O26   S2    S    
C2    H36   S    
C38   C39   A    
C48   C49   A    
O21   S1    D    
C32   H15   S    
C35   C62   S    
C65   O5    A    
C27   H10   S    
C69   C70   A    
C39   H18   S    
C38   C46   A    
C63   O8    A    
C10   C11   A    
Cr4   O30   S    
Cr1   O4    S    
C25   C33   A    
C8    H2    S    
C52   O17   A    
C14   C15   A    
C14   H3    S    
C37   C46   A    
C40   O23   A    
C2    C9    A    
C47   C65   S    
C63   O9    A    
Cr5   O8    S    
C64   C66   S    
C4    O15   A    
