data_mof_unit_61047.cif
_audit_creation_date              2012-12-10T20:04:53-0500
_audit_creation_method            fapswitch 2.2
_symmetry_space_group_name_H-M    P1
_symmetry_Int_Tables_number       1
_space_group_crystal_system       triclinic
_cell_length_a                    10.926327
_cell_length_b                    19.33312
_cell_length_c                    18.444664
_cell_angle_alpha                 89.372925
_cell_angle_beta                  103.962715
_cell_angle_gamma                 90.324567
_cell_volume                      3780.8831349

loop_
_atom_site_label
_atom_site_type_symbol
_atom_type_description
_atom_site_fract_x
_atom_site_fract_y
_atom_site_fract_z
_atom_type_partial_charge
C1    C     C_R   0.499988 0.365524 0.500481 0.962145
C2    C     C_R   0.500016 0.928388 0.499574 -0.352162
C3    C     C_R   0.577370 0.544327 0.736452 -0.121131
C4    C     C_R   0.422629 0.455673 0.263548 -0.121133
C5    C     C_R   0.579017 0.545296 0.812784 -0.146640
C6    C     C_R   0.420982 0.454705 0.187216 -0.146641
C7    C     C_R   0.500480 0.500170 0.841486 0.177739
C8    C     C_R   0.499520 0.499830 0.158514 0.177739
C9    C     C_R   0.421642 0.455033 0.791621 -0.229121
C10   C     C_R   0.578358 0.544966 0.208379 -0.229122
C11   C     C_R   0.422772 0.455736 0.715699 0.836914
C12   C     C_R   0.500014 0.634475 0.499519 0.962145
C13   C     C_R   0.577228 0.544263 0.284301 0.836917
C14   C     C_R   0.510146 0.437704 0.964012 0.524154
C15   C     C_R   0.489854 0.562296 0.035988 0.524155
C16   C     C_R   0.259473 0.501263 0.469094 0.954217
C17   C     C_R   0.740527 0.498737 0.530906 0.954215
C18   C     C_R   0.509587 0.437589 0.040124 0.516757
C19   C     C_R   0.490412 0.562411 0.959876 0.516758
C20   C     C_R   0.499451 0.499882 0.077213 -0.347993
C21   C     C_R   0.500549 0.500118 0.922787 -0.347992
C22   C     C_2   0.124378 0.498237 0.451689 -0.392631
C23   C     C_R   0.500108 0.709821 0.498557 -0.293845
C24   C     C_2   0.875622 0.501762 0.548311 -0.392630
C25   C     C_2   0.065523 0.508751 0.506065 0.549424
C26   C     C_2   0.934477 0.491248 0.493936 0.549425
C27   C     C_R   0.493401 0.747010 0.431601 0.566540
C28   C     C_R   0.506627 0.252990 0.568401 0.566534
C29   C     C_R   0.493576 0.818716 0.432022 0.668612
C30   C     C_R   0.506465 0.181284 0.567982 0.668613
C31   C     C_R   0.500248 0.853529 0.498925 0.027987
C32   C     C_R   0.499790 0.146471 0.501078 0.027981
C33   C     C_R   0.507355 0.816983 0.565512 -0.110704
C34   C     C_R   0.499904 0.290179 0.501444 -0.293843
C35   C     C_R   0.492668 0.183017 0.434489 -0.110697
C36   C     C_R   0.507165 0.745372 0.565384 -0.254687
C37   C     C_R   0.492845 0.254628 0.434616 -0.254684
C38   C     C_R   0.605025 0.963888 0.541577 0.529538
C39   C     C_R   0.395016 0.036112 0.458425 0.529533
C40   C     C_R   0.605127 0.035580 0.541903 0.606214
C41   C     C_R   0.394913 0.964420 0.458099 0.606209
C42   C     C_R   0.500024 0.071612 0.500428 -0.352163
F1    F     F_    0.873373 0.464809 0.426398 -0.636284
F2    F     F_    0.513511 0.285466 0.634190 -0.546132
F3    F     F_    0.488920 0.854314 0.367510 -0.545897
F4    F     F_    0.511134 0.145685 0.632494 -0.545894
F5    F     F_    0.707708 0.929025 0.580940 -0.551927
F6    F     F_    0.292332 0.070975 0.419063 -0.551930
F7    F     F_    0.708004 0.069970 0.581502 -0.531400
F8    F     F_    0.292037 0.930030 0.418500 -0.531405
F9    F     F_    0.126626 0.535190 0.573602 -0.636284
F10   F     F_    0.346003 0.412121 0.668188 -0.581039
F11   F     F_    0.653998 0.587878 0.331812 -0.581033
F12   F     F_    0.523806 0.376684 0.931126 -0.550502
F13   F     F_    0.476194 0.623316 0.068874 -0.550503
F14   F     F_    0.522808 0.376483 0.078144 -0.565231
F15   F     F_    0.477192 0.623517 0.921856 -0.565232
F16   F     F_    0.486522 0.714533 0.365812 -0.546128
H1    H     H_    0.358522 0.419998 0.811104 0.218251
H2    H     H_    0.487727 0.155997 0.382689 0.218244
H3    H     H_    0.512615 0.717973 0.617603 0.220401
H4    H     H_    0.487384 0.282027 0.382396 0.220400
H5    H     H_    0.641478 0.580001 0.188896 0.218251
H6    H     H_    0.638245 0.578995 0.714707 0.176383
H7    H     H_    0.361753 0.421005 0.285293 0.176383
H8    H     H_    0.642251 0.580470 0.849232 0.208943
H9    H     H_    0.357748 0.419530 0.150768 0.208942
H10   H     H_    0.925725 0.518205 0.603759 0.188514
H11   H     H_    0.074275 0.481795 0.396241 0.188513
H12   H     H_    0.512295 0.844004 0.617312 0.218241
N1    N     N_R   0.500020 0.499980 0.689440 -0.156150
N2    N     N_R   0.499980 0.500020 0.310560 -0.156151
O1    O     O_R   0.500000 0.398180 0.560840 -0.524110
O2    O     O_R   0.500000 0.601820 0.439160 -0.524112
O3    O     O_R   0.499950 0.398180 0.439200 -0.644968
O4    O     O_R   0.500050 0.601820 0.560800 -0.644968
O5    O     O_R   0.317830 0.500010 0.538110 -0.508967
O6    O     O_R   0.682170 0.499990 0.461890 -0.508967
O7    O     O_R   0.317770 0.500000 0.416470 -0.640388
O8    O     O_R   0.682230 0.500000 0.583530 -0.640387
Zn1   Zn    Zn3+2 0.500040 0.500000 0.581220 1.080939
Zn2   Zn    Zn3+2 0.499960 0.500000 0.418780 1.080937

loop_
_geom_bond_atom_site_label_1
_geom_bond_atom_site_label_2
_ccdc_geom_bond_type
C30   C32   A    
C12   O2    A    
C27   C29   A    
C34   C37   A    
C14   C18   A    
C10   H5    S    
C37   H4    S    
C39   C41   A    
C3    H6    S    
C19   F15   S    
C15   C19   A    
C12   C23   S    
C8    C20   S    
C14   C21   A    
C19   C21   A    
C24   C26   D    
C4    H7    S    
C11   N1    A    
C2    C41   A    
C40   F7    S    
C33   C36   A    
C16   O5    A    
C2    C38   A    
C11   F10   S    
C22   C25   D    
C1    C34   S    
C31   C33   A    
C23   C27   A    
C22   H11   S    
C18   F14   S    
C40   C42   A    
C28   C34   A    
O2    Zn2   S    
O1    Zn1   S    
C26   F1    S    
C39   C42   A    
C13   F11   S    
C15   C20   A    
C17   C24   S    
C1    O3    A    
C32   C35   A    
C4    C6    A    
C5    C7    A    
C5    H8    S    
C6    C8    A    
C25   C26   S    
C7    C21   S    
C28   F2    S    
C17   O8    A    
C29   F3    S    
C35   H2    S    
C9    H1    S    
C15   F13   S    
C3    N1    A    
C25   F9    S    
O6    Zn2   S    
O5    Zn1   S    
C9    C11   A    
C38   F5    S    
C33   H12   S    
C6    H9    S    
C14   F12   S    
C12   O4    A    
C36   H3    S    
C41   F8    S    
C4    N2    A    
C7    C9    A    
C16   C22   S    
C35   C37   A    
C30   F4    S    
O8    Zn1   S    
C3    C5    A    
C10   C13   A    
O4    Zn1   S    
O7    Zn2   S    
O3    Zn2   S    
C13   N2    A    
C16   O7    A    
C1    O1    A    
C28   C30   A    
C29   C31   A    
C38   C40   A    
C27   F16   S    
C17   O6    A    
C18   C20   A    
C24   H10   S    
C8    C10   A    
C23   C36   A    
C32   C42   S    
C2    C31   S    
N2    Zn2   S    
C39   F6    S    
N1    Zn1   S    
