data_mof_unit_50951.cif
_audit_creation_date              2012-12-10T18:12:04-0500
_audit_creation_method            fapswitch 2.2
_symmetry_space_group_name_H-M    P1
_symmetry_Int_Tables_number       1
_space_group_crystal_system       triclinic
_cell_length_a                    18.693875
_cell_length_b                    18.666752
_cell_length_c                    18.777465
_cell_angle_alpha                 109.549226
_cell_angle_beta                  109.366234
_cell_angle_gamma                 108.937341
_cell_volume                      5078.5933144

loop_
_atom_site_label
_atom_site_type_symbol
_atom_type_description
_atom_site_fract_x
_atom_site_fract_y
_atom_site_fract_z
_atom_type_partial_charge
C1    C     C_R   0.622131 0.620138 0.501745 1.090893
C2    C     C_R   0.328414 0.752807 0.177833 0.335171
C3    C     C_3   0.961561 0.127548 0.183811 0.182903
C4    C     C_3   0.918548 0.172927 0.145387 -0.371400
C5    C     C_3   0.832331 0.106756 0.061456 -0.974952
C6    C     C_R   0.306368 0.809404 0.223914 -0.384418
C7    C     C_R   0.379660 0.499414 0.379823 0.963208
C8    C     C_R   0.279627 0.798093 0.282209 0.370954
C9    C     C_R   0.276002 0.727671 0.297286 0.294468
C10   C     C_R   0.290158 0.664378 0.244557 -0.208747
C11   C     C_R   0.748855 0.766577 0.579472 0.285417
C12   C     C_R   0.818995 0.826530 0.582066 0.314541
C13   C     C_R   0.814392 0.814641 0.501474 -0.445471
C14   C     C_R   0.747253 0.738049 0.421751 0.318674
C15   C     C_R   0.147345 0.169399 0.231832 0.320627
C16   C     C_R   0.693788 0.669549 0.425853 0.361073
C17   C     C_R   0.689651 0.686289 0.502603 -0.367100
C18   C     C_R   0.691336 0.520966 0.768246 0.475087
C19   C     C_R   0.380060 0.380057 0.501043 0.925342
C20   C     C_R   0.758325 0.524644 0.832673 -0.392968
C21   C     C_R   0.815141 0.499683 0.814056 -0.203009
C22   C     C_R   0.808097 0.471090 0.732016 0.350686
C23   C     C_R   0.739545 0.464722 0.665586 0.302881
C24   C     C_R   0.684951 0.495541 0.685682 -0.292796
C25   C     C_R   0.253970 0.334184 0.525267 0.284324
C26   C     C_R   0.173245 0.428928 0.192234 -0.207599
C27   C     C_R   0.181468 0.266337 0.511724 0.388792
C28   C     C_R   0.183844 0.188679 0.500839 -0.246876
C29   C     C_R   0.249920 0.174854 0.491576 -0.339167
C30   C     C_R   0.312665 0.235789 0.487875 0.434281
C31   C     C_R   0.619785 0.498683 0.620120 0.956132
C32   C     C_R   0.314675 0.315718 0.504567 -0.308920
C33   C     C_R   0.000058 0.619542 0.120491 0.957345
C34   C     C_R   0.120584 0.503312 0.123233 0.928338
C35   C     C_R   0.997968 0.380357 0.878261 1.016223
C36   C     C_R   0.880418 0.500521 0.880575 0.964868
C37   C     C_R   0.189135 0.506526 0.191329 -0.120619
C38   C     C_R   0.999385 0.878573 0.380187 1.025344
C39   C     C_R   0.880002 0.880481 0.500713 1.115617
C40   C     C_R   0.999875 0.120741 0.619967 1.104178
C41   C     C_R   0.119488 0.121335 0.500834 1.007960
C42   C     C_R   0.002818 0.757082 0.181842 -0.262317
C43   C     C_R   0.218537 0.203724 0.219294 -0.460476
C44   C     C_R   0.995500 0.817262 0.241514 0.466967
C45   C     C_R   0.998035 0.809992 0.314606 -0.320533
C46   C     C_R   0.997683 0.736731 0.322531 0.363423
C47   C     C_R   0.987077 0.668496 0.251972 0.391166
C48   C     C_R   0.272250 0.582493 0.248518 0.080528
C49   C     C_R   0.997687 0.683181 0.186492 -0.256427
C50   C     C_R   0.071338 0.304618 0.833500 0.415039
C51   C     C_R   0.077067 0.248891 0.767264 0.302492
C52   C     C_R   0.999533 0.188499 0.685713 -0.382057
C53   C     C_R   0.921359 0.193094 0.669523 0.436009
C54   C     C_R   0.924021 0.260326 0.732617 -0.353119
C55   C     C_R   0.248846 0.285083 0.224237 0.441867
C56   C     C_R   0.998278 0.314907 0.812964 -0.287363
C57   C     C_R   0.212128 0.338430 0.249355 -0.197074
C58   C     C_R   0.142356 0.305215 0.264317 0.249395
C59   C     C_R   0.338550 0.578411 0.307193 0.495139
C60   C     C_R   0.108250 0.220367 0.252110 0.392832
C61   C     C_3   0.128465 0.026096 0.177077 0.132919
C62   C     C_3   0.077843 0.996739 0.080027 -0.446956
C63   C     C_3   0.088006 0.923655 0.024649 -0.854400
C64   C     C_3   0.702515 0.836406 0.662914 0.198093
C65   C     C_3   0.688185 0.849198 0.740767 -0.328390
C66   C     C_3   0.647240 0.907603 0.754984 -0.923151
C67   C     C_3   0.687534 0.542231 0.349470 0.161021
C68   C     C_3   0.625020 0.446813 0.279238 -0.309303
C69   C     C_3   0.671998 0.393622 0.275181 -0.995925
C70   C     C_R   0.317297 0.500906 0.312172 -0.223470
C71   C     C_3   0.581769 0.486697 0.802968 0.078573
C72   C     C_3   0.515461 0.397802 0.720372 -0.378477
C73   C     C_3   0.449118 0.340481 0.735249 -0.901672
C74   C     C_3   0.923766 0.497448 0.707742 0.105329
C75   C     C_3   0.980175 0.458808 0.688333 -0.332898
C76   C     C_3   0.049120 0.518577 0.677851 -0.883776
C77   C     C_3   0.690403 0.342140 0.540473 0.153801
C78   C     C_3   0.676557 0.308514 0.448186 -0.391383
C79   C     C_3   0.650097 0.211943 0.404728 -0.856536
C80   C     C_3   0.321306 0.467754 0.647586 0.137553
C81   C     C_R   0.236760 0.424055 0.251014 0.028728
C82   C     C_3   0.271722 0.466276 0.698137 -0.348005
C83   C     C_3   0.333599 0.522700 0.796004 -0.865978
C84   C     C_3   0.345698 0.159122 0.393230 0.129880
C85   C     C_3   0.421039 0.154547 0.380636 -0.343273
C86   C     C_3   0.389782 0.091756 0.286324 -0.887123
C87   C     C_3   0.911508 0.868603 0.179232 0.159683
C88   C     C_3   0.890970 0.837035 0.084205 -0.415695
C89   C     C_3   0.820655 0.741370 0.023857 -0.886026
C90   C     C_3   0.888473 0.535523 0.219558 0.167403
C91   C     C_3   0.877192 0.451901 0.222936 -0.381932
C92   C     C_R   0.318357 0.677474 0.185450 0.385419
C93   C     C_3   0.913879 0.405573 0.174095 -0.678439
C94   C     C_3   0.130126 0.289015 0.951825 0.091314
C95   C     C_3   0.044318 0.246871 0.952032 -0.432017
C96   C     C_3   0.045895 0.188573 0.992715 -0.960796
C97   C     C_3   0.301026 0.315692 0.137125 0.073916
C98   C     C_3   0.379111 0.331371 0.122614 -0.376125
C99   C     C_3   0.360675 0.333257 0.038016 -0.774929
C100  C     C_3   0.146149 0.412371 0.371516 0.152047
C101  C     C_3   0.114095 0.478702 0.387289 -0.298922
C102  C     C_3   0.161366 0.546401 0.483482 -0.779902
H1    H     H_    0.311049 0.864715 0.214936 0.255236
H2    H     H_    0.007814 0.973355 0.059234 0.223141
H3    H     H_    0.217734 0.448408 0.397626 0.140917
H4    H     H_    0.133154 0.376833 0.406541 0.242176
H5    H     H_    0.125278 0.512532 0.350115 0.273147
H6    H     H_    0.043116 0.444345 0.363627 0.228955
H7    H     H_    0.145737 0.515161 0.521203 0.280925
H8    H     H_    0.140411 0.596492 0.491683 0.297529
H9    H     H_    0.232815 0.579040 0.509665 0.256652
H10   H     H_    0.915842 0.083940 0.195522 0.167910
H11   H     H_    0.972437 0.084597 0.135717 0.114753
H12   H     H_    0.906855 0.214507 0.193390 0.258030
H13   H     H_    0.101470 0.051919 0.068065 0.233267
H14   H     H_    0.962217 0.215082 0.130878 0.234914
H15   H     H_    0.842917 0.065457 0.012108 0.267275
H16   H     H_    0.803042 0.141638 0.035247 0.276034
H17   H     H_    0.786341 0.064533 0.073977 0.276418
H18   H     H_    0.530679 0.787602 0.384034 0.397290
H19   H     H_    0.322649 0.544814 0.992850 0.394792
H20   H     H_    0.411697 0.894023 0.095842 0.382984
H21   H     H_    0.157530 0.946704 0.042952 0.270996
H22   H     H_    0.050218 0.903165 0.954994 0.287941
H23   H     H_    0.063452 0.866394 0.033575 0.255121
H24   H     H_    0.326878 0.001856 0.452193 0.371538
H25   H     H_    0.316164 0.690256 0.480169 0.389836
H26   H     H_    0.638528 0.806030 0.603856 0.175014
H27   H     H_    0.745076 0.901432 0.674221 0.183358
H28   H     H_    0.644787 0.784724 0.729661 0.231577
H29   H     H_    0.766566 0.547370 0.897552 0.166956
H30   H     H_    0.751588 0.879371 0.800185 0.246860
H31   H     H_    0.690361 0.972988 0.767756 0.278246
H32   H     H_    0.637779 0.915580 0.811935 0.267631
H33   H     H_    0.582972 0.877911 0.696900 0.287428
H34   H     H_    0.970238 0.055528 0.749630 0.368813
H35   H     H_    0.798399 0.724060 0.246839 0.349681
H36   H     H_    0.720029 0.544727 0.412701 0.123618
H37   H     H_    0.737952 0.570802 0.333155 0.167825
H38   H     H_    0.572749 0.418607 0.293436 0.231249
H39   H     H_    0.594726 0.442755 0.215098 0.237620
H40   H     H_    0.252099 0.168386 0.205028 0.186492
H41   H     H_    0.724611 0.420897 0.261325 0.262846
H42   H     H_    0.625321 0.324974 0.222767 0.273695
H43   H     H_    0.700593 0.394729 0.337887 0.269341
H44   H     H_    0.545570 0.515778 0.827077 0.174048
H45   H     H_    0.621100 0.478295 0.855562 0.136788
H46   H     H_    0.481016 0.407973 0.667228 0.227462
H47   H     H_    0.549621 0.363323 0.699825 0.222938
H48   H     H_    0.482460 0.329141 0.788080 0.273171
H49   H     H_    0.402972 0.276549 0.674850 0.283029
H50   H     H_    0.411653 0.371819 0.752913 0.250910
H51   H     H_    0.251268 0.115311 0.484623 0.187924
H52   H     H_    0.965946 0.560840 0.769752 0.160022
H53   H     H_    0.892868 0.508973 0.653972 0.181899
H54   H     H_    0.012813 0.448297 0.742203 0.244223
H55   H     H_    0.938237 0.394573 0.627481 0.242057
H56   H     H_    0.017953 0.528961 0.623377 0.268075
H57   H     H_    0.088177 0.488026 0.663285 0.282895
H58   H     H_    0.093240 0.582497 0.738731 0.272964
H59   H     H_    0.626117 0.312593 0.536852 0.132349
H60   H     H_    0.732595 0.320793 0.574901 0.199483
H61   H     H_    0.625138 0.318477 0.409119 0.221796
H62   H     H_    0.009317 0.766347 0.129903 0.187130
H63   H     H_    0.737886 0.345871 0.450233 0.239764
H64   H     H_    0.704402 0.202226 0.438415 0.308558
H65   H     H_    0.634157 0.187935 0.335837 0.266672
H66   H     H_    0.592337 0.173357 0.406876 0.265911
H67   H     H_    0.358400 0.536273 0.663689 0.167049
H68   H     H_    0.370587 0.447761 0.670738 0.126022
H69   H     H_    0.226292 0.491118 0.678789 0.253491
H70   H     H_    0.234107 0.398589 0.683407 0.286730
H71   H     H_    0.378832 0.498239 0.817502 0.260439
H72   H     H_    0.295546 0.520239 0.830543 0.302955
H73   H     H_    0.867308 0.268821 0.720860 0.229588
H74   H     H_    0.371751 0.591516 0.813538 0.263767
H75   H     H_    0.021210 0.278113 0.579722 0.379433
H76   H     H_    0.311657 0.177016 0.347005 0.160019
H77   H     H_    0.299793 0.093808 0.378568 0.176381
H78   H     H_    0.469428 0.220548 0.399326 0.228560
H79   H     H_    0.453307 0.132597 0.423389 0.248424
H80   H     H_    0.340612 0.025426 0.265532 0.302866
H81   H     H_    0.445453 0.088069 0.279630 0.282004
H82   H     H_    0.360949 0.114875 0.243030 0.243246
H83   H     H_    0.908201 0.929911 0.202906 0.152794
H84   H     H_    0.110464 0.370859 0.146141 0.185121
H85   H     H_    0.860594 0.822228 0.184451 0.136546
H86   H     H_    0.867888 0.876936 0.060755 0.196614
H87   H     H_    0.950398 0.845920 0.079300 0.240375
H88   H     H_    0.840732 0.698922 0.044992 0.244310
H89   H     H_    0.809377 0.721355 0.956657 0.282593
H90   H     H_    0.758702 0.732077 0.023418 0.270523
H91   H     H_    0.955614 0.740037 0.500763 0.375073
H92   H     H_    0.847760 0.517881 0.151293 0.115926
H93   H     H_    0.863315 0.566804 0.259426 0.127675
H94   H     H_    0.909980 0.467704 0.291755 0.243075
H95   H     H_    0.103437 0.968298 0.184989 0.228362
H96   H     H_    0.806831 0.406615 0.193152 0.162914
H97   H     H_    0.882151 0.389357 0.105116 0.243479
H98   H     H_    0.901332 0.344124 0.176067 0.212353
H99   H     H_    0.985229 0.447232 0.205065 0.296306
H100  H     H_    0.182618 0.327540 0.019676 0.178293
H101  H     H_    0.142966 0.237848 0.917074 0.181605
H102  H     H_    0.033671 0.298557 0.989420 0.255243
H103  H     H_    0.988660 0.205857 0.884569 0.235925
H104  H     H_    0.056783 0.136198 0.956608 0.286419
H105  H     H_    0.982667 0.157928 0.990217 0.279418
H106  H     H_    0.198326 0.046692 0.200439 0.128028
H107  H     H_    0.098058 0.227410 0.061630 0.242199
H108  H     H_    0.289576 0.371425 0.143046 0.186114
H109  H     H_    0.243744 0.252838 0.080960 0.127594
H110  H     H_    0.435805 0.394907 0.177591 0.259291
H111  H     H_    0.395678 0.278933 0.120691 0.222291
H112  H     H_    0.305386 0.269656 0.981923 0.279300
H113  H     H_    0.418980 0.345671 0.029997 0.259756
H114  H     H_    0.344980 0.385965 0.038992 0.314105
H115  H     H_    0.254269 0.264063 0.718179 0.369120
H116  H     H_    0.742893 0.976513 0.492749 0.389000
O1    O     O_R   0.591640 0.539900 0.448310 -0.611927
O2    O     O_R   0.948270 0.908330 0.356580 -0.635859
O3    O     O_R   0.960090 0.908280 0.551610 -0.564031
O4    O     O_R   0.591610 0.643330 0.551710 -0.590832
O5    O     O_R   0.856650 0.908310 0.448190 -0.568780
O6    O     O_R   0.051730 0.091500 0.643240 -0.556019
O7    O     O_R   0.948290 0.091530 0.539820 -0.554980
O8    O     O_R   0.143350 0.091510 0.551630 -0.627879
O9    O     O_R   0.039910 0.091550 0.448210 -0.567777
O10   O     O_R   0.408400 0.448280 0.356670 -0.560037
O11   O     O_R   0.408370 0.551710 0.460080 -0.593149
O12   O     O_R   0.051750 0.643320 0.091550 -0.632315
O13   O     O_R   0.408390 0.356670 0.448290 -0.606639
O14   O     O_R   0.408360 0.460100 0.551690 -0.634939
O15   O     O_R   0.591630 0.448290 0.539920 -0.612829
O16   O     O_R   0.591600 0.551720 0.643330 -0.588567
O17   O     O_R   0.948300 0.539910 0.091570 -0.625458
O18   O     O_3   0.115195 0.089426 0.229773 -0.610032
O19   O     O_2   0.221042 0.911078 0.276243 -0.383403
O20   O     O_2   0.185392 0.839372 0.356377 -0.235122
O21   O     O_3   0.344772 0.959948 0.426468 -0.499969
O22   O     O_2   0.301512 0.809755 0.459482 -0.195881
O23   O     O_R   0.039910 0.448280 0.091610 -0.650980
O24   O     O_2   0.159484 0.681655 0.349341 -0.228427
O25   O     O_3   0.287740 0.657832 0.415958 -0.587374
O26   O     O_3   0.741436 0.782695 0.653467 -0.580345
O27   O     O_2   0.896970 0.913450 0.760226 -0.284510
O28   O     O_2   0.990760 0.909732 0.697119 -0.265755
O29   O     O_3   0.922577 0.010002 0.689906 -0.567083
O30   O     O_2   0.652144 0.638075 0.244084 -0.233125
O31   O     O_2   0.706308 0.794203 0.306963 -0.243364
O32   O     O_3   0.816081 0.737439 0.307661 -0.589010
O33   O     O_3   0.639983 0.587585 0.352935 -0.534576
O34   O     O_R   0.143370 0.551700 0.091590 -0.607125
O35   O     O_3   0.634116 0.545787 0.786146 -0.615727
O36   O     O_3   0.860625 0.438037 0.714726 -0.662477
O37   O     O_3   0.729533 0.434115 0.582839 -0.628957
O38   O     O_3   0.263879 0.417453 0.556156 -0.609016
O39   O     O_2   0.102940 0.367635 0.522343 -0.344364
O40   O     O_2   0.011431 0.212574 0.417861 -0.237911
O41   O     O_3   0.067287 0.262423 0.581226 -0.562913
O42   O     O_3   0.378915 0.222455 0.479799 -0.636278
O43   O     O_3   0.997110 0.889010 0.233970 -0.620735
O44   O     O_2   0.010046 0.646169 0.411012 -0.286048
O45   O     O_R   0.948300 0.356650 0.908390 -0.643343
O46   O     O_2   0.105223 0.803036 0.492457 -0.213084
O47   O     O_3   0.941611 0.743682 0.446815 -0.574485
O48   O     O_3   0.977416 0.591631 0.251694 -0.536389
O49   O     O_3   0.135033 0.348327 0.919742 -0.569176
O50   O     O_3   0.321768 0.313588 0.215111 -0.591313
O51   O     O_2   0.252084 0.350916 0.863706 -0.288636
O52   O     O_2   0.193746 0.193735 0.807095 -0.321239
O53   O     O_3   0.193903 0.253032 0.700476 -0.544613
O54   O     O_2   0.747022 0.127528 0.588523 -0.300383
O55   O     O_2   0.817952 0.132128 0.500428 -0.293300
O56   O     O_R   0.051750 0.460070 0.908380 -0.572122
O57   O     O_3   0.798700 0.014421 0.548233 -0.527227
O58   O     O_3   0.100529 0.352290 0.281741 -0.636759
O59   O     O_3   0.038261 0.189271 0.264930 -0.561220
O60   O     O_2   0.473506 0.704632 0.466838 -0.310108
O61   O     O_2   0.505673 0.630686 0.356799 -0.288182
O62   O     O_3   0.466721 0.749401 0.350328 -0.538411
O63   O     O_2   0.440538 0.642154 0.164367 -0.171299
O64   O     O_2   0.308328 0.515930 0.120880 -0.352216
O65   O     O_3   0.301365 0.581878 0.020469 -0.467851
O66   O     O_2   0.441077 0.765322 0.115651 -0.198536
O67   O     O_R   0.856690 0.448280 0.908350 -0.632513
O68   O     O_2   0.291959 0.724597 0.017415 -0.279549
O69   O     O_3   0.396910 0.885463 0.139442 -0.572886
O70   O     O_R   0.960140 0.551690 0.908340 -0.632625
O71   O     O_R   0.051710 0.908290 0.460000 -0.565970
S1    S     S_3+6 0.253773 0.876850 0.334579 0.058655
S2    S     S_3+6 0.343352 0.602061 0.123698 0.125018
S3    S     S_3+6 0.365364 0.779921 0.109730 0.085703
S4    S     S_3+6 0.255375 0.720119 0.382011 0.096760
S5    S     S_3+6 0.909515 0.915082 0.685635 0.046136
S6    S     S_3+6 0.727359 0.725775 0.316954 0.076422
S7    S     S_3+6 0.088966 0.278650 0.506490 0.034888
S8    S     S_3+6 0.015735 0.731213 0.420111 0.085320
S9    S     S_3+6 0.182337 0.262328 0.787555 0.030473
S10   S     S_3+6 0.818253 0.116778 0.574158 0.046435
S11   S     S_3+6 0.448347 0.667188 0.372455 0.053115
Zn1   Zn    Zn3+2 0.500020 0.430940 0.430950 1.000862
Zn2   Zn    Zn3+2 0.499980 0.569060 0.569050 1.008574
Zn3   Zn    Zn3+2 0.930950 0.430940 0.999980 0.934528
Zn4   Zn    Zn3+2 0.069100 0.569040 0.999960 1.055397
Zn5   Zn    Zn3+2 0.069070 0.999890 0.568970 1.171230
Zn6   Zn    Zn3+2 0.930930 0.999930 0.430860 1.144684

loop_
_geom_bond_atom_site_label_1
_geom_bond_atom_site_label_2
_ccdc_geom_bond_type
C101  H5    S    
C71   H45   S    
C87   C88   S    
C41   O9    A    
C76   H57   S    
C95   H103  S    
C101  C102  S    
C24   C31   S    
O7    Zn6   S    
C73   H48   S    
C34   C37   S    
C69   H43   S    
C15   C60   A    
O5    Zn6   S    
C95   C96   S    
C77   O37   S    
C46   S8    S    
C80   H68   S    
C27   S7    S    
H20   O69   S    
C7    C70   S    
C9    S4    S    
H35   O32   S    
O20   S1    D    
C87   H83   S    
C21   C36   S    
C8    S1    S    
C45   C46   A    
C52   C53   A    
O8    Zn5   S    
C94   O49   S    
C31   O15   A    
O29   S5    S    
C76   H56   S    
C100  H3    S    
H116  O57   S    
C42   C44   A    
C100  O58   S    
C30   O42   S    
C36   O67   A    
C83   H72   S    
C4    H12   S    
C28   C29   A    
C90   O48   S    
O19   S1    D    
C7    O11   A    
C42   H62   S    
C66   H33   S    
H18   O62   S    
C7    O10   A    
C19   C32   S    
C58   C60   A    
C28   C41   S    
C74   H52   S    
O14   Zn2   S    
C46   C47   A    
C35   O45   A    
C40   O7    A    
C67   H36   S    
C70   C81   A    
C71   O35   S    
C38   C45   S    
O39   S7    D    
C66   H32   S    
C91   H96   S    
C75   H54   S    
C25   O38   S    
O60   S11   D    
C90   H93   S    
C27   C28   A    
C68   C69   S    
C64   H26   S    
O44   S8    D    
C15   O18   S    
C89   H88   S    
C94   H100  S    
C40   C52   S    
C13   C14   A    
C79   H66   S    
C29   C30   A    
C93   H99   S    
C19   O14   A    
C3    H10   S    
C4    H14   S    
C18   C20   A    
C33   O17   A    
C63   H22   S    
O23   Zn3   S    
C89   H90   S    
C75   H55   S    
C101  H6    S    
C14   S6    S    
C10   C92   A    
C78   H61   S    
O15   Zn1   S    
C21   C22   A    
C73   H49   S    
C34   O23   A    
C12   S5    S    
C11   O26   S    
O70   Zn4   S    
C39   O5    A    
O11   Zn2   S    
C2    C6    A    
C88   H86   S    
O17   Zn3   S    
C80   H67   S    
C77   C78   S    
C61   H106  S    
H24   O21   S    
C64   H27   S    
O51   S9    D    
C16   O33   S    
O57   S10   S    
C97   C98   S    
C62   H2    S    
C1    C17   S    
C22   C23   A    
C18   O35   S    
C77   H59   S    
C88   H87   S    
O31   S6    D    
C31   O16   A    
C58   O58   S    
C13   C39   S    
C74   C75   S    
C67   C68   S    
C38   O2    A    
C93   H98   S    
H25   O25   S    
C84   C85   S    
O67   Zn3   S    
C18   C24   A    
C47   C49   A    
C40   O6    A    
C3    H11   S    
C26   C37   A    
C61   H95   S    
C44   O43   S    
O3    Zn5   S    
C78   C79   S    
C8    C9    A    
C96   H105  S    
C87   H85   S    
C59   C70   A    
O65   S2    S    
C95   H102  S    
C85   C86   S    
C98   H110  S    
C35   O56   A    
C38   O71   A    
C50   C56   A    
C69   H41   S    
C51   C52   A    
H34   O29   S    
C72   H46   S    
C1    O4    A    
C69   H42   S    
O45   Zn3   S    
C54   H73   S    
C84   H77   S    
C2    C92   A    
C75   C76   S    
O55   S10   D    
C62   C63   S    
C91   C93   S    
C66   H31   S    
C97   O50   S    
C96   H104  S    
C90   H92   S    
C67   H37   S    
O27   S5    D    
C23   C24   A    
C97   H108  S    
C20   C21   A    
C3    O59   S    
C50   C51   A    
C89   H89   S    
O56   Zn4   S    
C68   H39   S    
C1    O1    A    
C63   H23   S    
C6    H1    S    
O46   S8    D    
C37   C48   A    
C102  H9    S    
H75   O41   S    
O54   S10   D    
O66   S3    D    
C74   O36   S    
O2    Zn6   S    
O63   S2    D    
C82   H70   S    
O34   Zn4   S    
C6    C8    A    
C47   O48   S    
C23   O37   S    
C98   H111  S    
C5    H17   S    
O41   S7    S    
C98   C99   S    
C26   C81   A    
C60   O59   S    
C55   C57   A    
C73   H50   S    
C10   C48   S    
C86   H81   S    
O6    Zn5   S    
C57   C81   S    
C102  H8    S    
O25   S4    S    
C53   S10   S    
C20   H29   S    
O12   Zn4   S    
C3    C4    S    
O13   Zn1   S    
C65   H30   S    
O16   Zn2   S    
C44   C45   A    
O4    Zn2   S    
O24   S4    D    
C84   H76   S    
C9    C10   A    
C43   C55   A    
C77   H60   S    
C87   O43   S    
C50   O49   S    
C76   H58   S    
C78   H63   S    
C85   H79   S    
C96   H107  S    
C80   O38   S    
C93   H97   S    
C35   C56   S    
C33   C49   S    
C2    S3    S    
C86   H82   S    
C55   O50   S    
O53   S9    S    
C72   C73   S    
C102  H7    S    
C11   C17   A    
C41   O8    A    
O71   Zn5   S    
C63   H21   S    
C11   C12   A    
C48   C59   A    
C54   C56   A    
C53   C54   A    
C64   O26   S    
C99   H112  S    
O68   S3    D    
C100  H4    S    
C25   C27   A    
O47   S8    S    
O52   S9    D    
C5    H16   S    
O32   S6    S    
C79   H65   S    
C64   C65   S    
C83   H71   S    
C29   H51   S    
H91   O47   S    
C62   H13   S    
H115  O53   S    
C82   C83   S    
C30   C32   A    
C91   H94   S    
C26   H84   S    
C57   C58   A    
C16   C17   A    
O21   S1    S    
C99   H113  S    
C25   C32   A    
C85   H78   S    
O62   S11   S    
O22   S4    D    
C92   S2    S    
C100  C101  S    
C80   C82   S    
O28   S5    D    
C74   H53   S    
C82   H69   S    
C14   C16   A    
C65   C66   S    
C79   H64   S    
C61   C62   S    
C97   H109  S    
C22   O36   S    
C68   H38   S    
O61   S11   D    
C42   C49   A    
C15   C43   A    
C59   S11   S    
O40   S7    D    
O64   S2    D    
C4    C5    S    
C71   H44   S    
C71   C72   S    
C88   C89   S    
O30   S6    D    
O9    Zn6   S    
C72   H47   S    
C99   H114  S    
C65   H28   S    
C5    H15   S    
O10   Zn1   S    
C86   H80   S    
C61   O18   S    
C36   O70   A    
O69   S3    S    
C39   O3    A    
C43   H40   S    
C34   O34   A    
C94   H101  S    
H19   O65   S    
C12   C13   A    
C83   H74   S    
C19   O13   A    
C94   C95   S    
C51   S9    S    
C84   O42   S    
C90   C91   S    
C33   O12   A    
O1    Zn1   S    
C67   O33   S    
