data_mof_unit_40927.cif
_audit_creation_date              2012-12-10T16:46:48-0500
_audit_creation_method            fapswitch 2.2
_symmetry_space_group_name_H-M    P1
_symmetry_Int_Tables_number       1
_space_group_crystal_system       triclinic
_cell_length_a                    15.87583
_cell_length_b                    8.724822
_cell_length_c                    7.46658
_cell_angle_alpha                 102.695712
_cell_angle_beta                  94.002991
_cell_angle_gamma                 92.494421
_cell_volume                      1004.63427379

loop_
_atom_site_label
_atom_site_type_symbol
_atom_type_description
_atom_site_fract_x
_atom_site_fract_y
_atom_site_fract_z
_atom_type_partial_charge
C1    C     C_R   0.493657 0.200308 0.453763 0.805250
C2    C     C_3   0.951836 0.445325 0.670220 0.589555
C3    C     C_3   0.917057 0.509839 0.499917 0.043910
C4    C     C_3   0.957481 0.681410 0.516458 -0.288092
C5    C     C_3   0.056435 0.675818 0.510377 -0.247009
C6    C     C_1   0.824355 0.507174 0.493445 0.115285
C7    C     C_1   0.175979 0.500976 0.510155 -0.017022
C8    C     C_1   0.251298 0.499665 0.508242 -0.072847
C9    C     C_2   0.480939 0.033480 0.427007 0.208491
C10   C     C_2   0.503282 0.966940 0.567125 -0.418966
C11   C     C_R   0.340496 0.499235 0.502584 0.827201
C12   C     C_R   0.500745 0.799749 0.545558 0.910155
C13   C     C_R   0.659512 0.501011 0.497478 0.797890
C14   C     C_3   0.051500 0.458438 0.684916 -0.253796
C15   C     C_3   0.041293 0.389265 0.334035 -0.322258
C16   C     C_3   0.944502 0.401613 0.322034 -0.350498
C17   C     C_1   0.748826 0.504015 0.492763 -0.057439
C18   C     C_3   0.083667 0.504702 0.508918 0.005638
Cu1   Cu    Cu3+1 0.509300 0.517380 0.684380 1.023571
Cu2   Cu    Cu3+1 0.490700 0.482620 0.315620 1.047161
H1    H     H_    0.072496 0.559279 0.801158 0.161477
H2    H     H_    0.528203 0.037580 0.700574 0.169382
H3    H     H_    0.435032 0.376864 0.949142 0.239424
H4    H     H_    0.564942 0.623179 0.050873 0.246111
H5    H     H_    0.066777 0.413278 0.207755 0.254586
H6    H     H_    0.056039 0.266309 0.334608 0.250634
H7    H     H_    0.912769 0.281845 0.297763 0.233037
H8    H     H_    0.924864 0.448490 0.200372 0.282685
H9    H     H_    0.084779 0.753008 0.642242 0.141611
H10   H     H_    0.946067 0.750680 0.655531 0.177418
N1    N     N_2   0.476670 0.456430 0.038530 -0.192471
N2    N     N_2   0.523330 0.543570 0.961470 -0.186966
O1    O     O_R   0.506050 0.286130 0.619770 -0.615490
O2    O     O_R   0.490330 0.256780 0.308370 -0.542558
O3    O     O_R   0.387300 0.514690 0.655770 -0.579009
O4    O     O_R   0.371580 0.485340 0.344370 -0.552525
O5    O     O_R   0.509670 0.743220 0.691630 -0.565794
O6    O     O_R   0.493950 0.713870 0.380230 -0.536513
O7    O     O_R   0.628420 0.514660 0.655630 -0.562028
O8    O     O_R   0.612700 0.485310 0.344230 -0.588013
Cl1   Cl    Cl    0.907855 0.248064 0.654699 -0.528205
Cl2   Cl    Cl    0.915422 0.557779 0.878315 -0.606244
C19   C     C_2   0.916025 0.774914 0.387573 0.952811
O9    O     O_2   0.938336 0.913775 0.405947 -0.514998
O10   O     O_R   0.851485 0.706749 0.253049 -0.726371
H11   H     H_    0.828799 0.783938 0.180791 0.361638
Cl3   Cl    Cl    0.431056 0.932049 0.209714 -0.542844
C20   C     C_2   0.093150 0.318113 0.735855 0.943807
O11   O     O_2   0.134052 0.335366 0.884667 -0.594980
O12   O     O_R   0.086325 0.170720 0.614091 -0.687653
H12   H     H_    0.115998 0.088187 0.667271 0.359606
C21   C     C_2   0.093385 0.743314 0.358994 0.950120
O13   O     O_2   0.149941 0.847615 0.399574 -0.570742
O14   O     O_R   0.063468 0.687639 0.174830 -0.722279
H13   H     H_    0.092585 0.745037 0.089854 0.345156

loop_
_geom_bond_atom_site_label_1
_geom_bond_atom_site_label_2
_ccdc_geom_bond_type
C16   H8    S    
C15   C18   S    
C19   O9    D    
H4    N2    S    
C5    C21   S    
C4    C19   S    
C2    C3    S    
Cu2   O6    S    
C9    C10   D    
C14   C18   S    
Cu1   Cu2   S    
C13   C17   S    
C3    C6    S    
Cu2   O2    S    
C7    C18   S    
C16   H7    S    
C11   O3    A    
O12   H12   S    
C1    O1    A    
C7    C8    T    
Cu1   O3    S    
O10   H11   S    
C10   H2    S    
C19   O10   S    
C10   C12   S    
C2    Cl2   S    
C8    C11   S    
C2    C14   S    
Cu1   N2    S    
Cu1   O7    S    
C14   H1    S    
C20   O12   S    
C20   O11   D    
C21   O14   S    
C1    O2    A    
C9    Cl3   S    
C5    H9    S    
C12   O6    A    
Cu2   O8    S    
C15   H5    S    
C13   O7    A    
C15   C16   S    
C2    Cl1   S    
C3    C4    S    
Cu2   O4    S    
C1    C9    S    
C21   O13   D    
Cu1   O1    S    
C12   O5    A    
C6    C17   T    
O14   H13   S    
C11   O4    A    
C15   H6    S    
C14   C20   S    
C5    C18   S    
Cu1   O5    S    
C4    H10   S    
C3    C16   S    
N1    N2    D    
C4    C5    S    
C13   O8    A    
Cu2   N1    S    
H3    N1    S    
