data_mof_unit_18034.cif
_audit_creation_date              2013-03-05T16:06:19-0500
_audit_creation_method            fapswitch 2.2
_symmetry_space_group_name_H-M    P1
_symmetry_Int_Tables_number       1
_space_group_crystal_system       triclinic
_cell_length_a                    10.82199
_cell_length_b                    9.508953
_cell_length_c                    27.820498
_cell_angle_alpha                 90.010242
_cell_angle_beta                  90.147308
_cell_angle_gamma                 90.020094
_cell_volume                      2862.88075962

loop_
_atom_site_label
_atom_site_type_symbol
_atom_site_description
_atom_site_fract_x
_atom_site_fract_y
_atom_site_fract_z
_atom_type_partial_charge
O1    O     O_R   0.319640 0.618740 0.500000 -0.588032
O2    O     O_R   0.680360 0.381260 0.500000 -0.588079
O3    O     O_R   0.680360 0.618740 0.500000 -0.587755
O4    O     O_R   0.319640 0.381260 0.500000 -0.587843
C1    C     C_R   0.262042 0.499985 0.499968 0.795306
C2    C     C_R   0.737958 0.500015 0.500032 0.795326
O5    O     O_R   0.500020 0.618770 0.430260 -0.583811
O6    O     O_R   0.499980 0.381230 0.569740 -0.584267
O7    O     O_R   0.499980 0.618770 0.569740 -0.584115
O8    O     O_R   0.500020 0.381230 0.430260 -0.584403
C3    C     C_R   0.499953 0.499983 0.407410 0.803730
C4    C     C_R   0.499999 0.500015 0.592594 0.803812
Cu1   Cu    Cu3+1 0.500000 0.640660 0.500000 0.946956
Cu2   Cu    Cu3+1 0.500000 0.359340 0.500000 0.946501
C5    C     C_R   0.393277 0.506346 0.178081 0.529187
C6    C     C_R   0.603074 0.518547 0.822158 0.529883
O9    O     O_2   0.286310 0.513189 0.202856 -0.542786
O10   O     O_2   0.709435 0.536050 0.797592 -0.547622
N1    N     N_R   0.502710 0.499525 0.202186 -0.466555
N2    N     N_R   0.494936 0.500461 0.797848 -0.465753
C7    C     C_R   0.613304 0.492412 0.178712 0.525414
C8    C     C_R   0.385040 0.482386 0.821146 0.524687
C9    C     C_R   0.511399 0.372841 0.278865 -0.110764
C10   C     C_R   0.503463 0.627498 0.721201 -0.110168
C11   C     C_R   0.510457 0.372729 0.328983 -0.215180
C12   C     C_R   0.504617 0.627577 0.671085 -0.215189
C13   C     C_R   0.490317 0.626955 0.328883 -0.215068
C14   C     C_R   0.493308 0.372657 0.671078 -0.216419
C15   C     C_R   0.490770 0.626645 0.278755 -0.107021
C16   C     C_R   0.491791 0.372962 0.721193 -0.106209
C17   C     C_R   0.501507 0.499690 0.253686 0.375384
C18   C     C_R   0.496827 0.500297 0.746336 0.373698
C19   C     C_R   0.503627 0.498125 0.102147 -0.077783
C20   C     C_R   0.492763 0.500104 0.897913 -0.077505
C21   C     C_R   0.391453 0.505882 0.127855 -0.005124
C22   C     C_R   0.604325 0.517938 0.872380 -0.005099
C23   C     C_R   0.279276 0.514468 0.103121 -0.155956
C24   C     C_R   0.715283 0.536264 0.897290 -0.154478
C25   C     C_R   0.617666 0.490637 0.127608 -0.053331
C26   C     C_R   0.379851 0.483339 0.872270 -0.054308
C27   C     C_R   0.500156 0.499897 0.354469 -0.039179
C28   C     C_R   0.499465 0.500070 0.645539 -0.039456
H1    H     H_    0.482035 0.726473 0.347536 0.155150
H2    H     H_    0.489284 0.272838 0.652382 0.157014
H3    H     H_    0.483147 0.724957 0.259337 0.132468
H4    H     H_    0.486815 0.274367 0.740564 0.133355
H5    H     H_    0.192439 0.523661 0.122193 0.180513
H6    H     H_    0.801228 0.553754 0.878394 0.178624
C29   C     C_R   0.383553 0.489735 0.975058 0.006198
C30   C     C_R   0.612537 0.498067 0.024948 0.006223
C31   C     C_R   0.609777 0.509375 0.973989 0.064719
C32   C     C_R   0.385669 0.499440 0.026139 0.065441
C33   C     C_R   0.495194 0.499582 0.949098 0.066397
C34   C     C_R   0.500741 0.498432 0.050968 0.067037
C35   C     C_R   0.272850 0.469278 0.949214 -0.230118
C36   C     C_R   0.724288 0.483912 0.050533 -0.234946
C37   C     C_R   0.268269 0.467003 0.898897 0.158303
C38   C     C_R   0.729609 0.481162 0.100808 0.160136
O11   O     O_2   0.282554 0.463881 0.794366 -0.548486
O12   O     O_2   0.717323 0.488197 0.205295 -0.547886
C39   C     C_R   0.276195 0.511961 0.053375 -0.214821
C40   C     C_R   0.718202 0.532648 0.946995 -0.215580
H7    H     H_    0.509528 0.727319 0.652398 0.155913
H8    H     H_    0.518289 0.273278 0.347707 0.157263
H9    H     H_    0.507281 0.726189 0.740577 0.133105
H10   H     H_    0.519704 0.274462 0.259531 0.131059
H11   H     H_    0.187040 0.451530 0.967725 0.131811
H12   H     H_    0.810168 0.468686 0.031738 0.134000
H13   H     H_    0.186083 0.524434 0.037402 0.131683
H14   H     H_    0.806949 0.552935 0.963249 0.134039
C41   C     C_R   0.063836 0.372157 0.499975 -0.177824
C42   C     C_R   0.936164 0.627843 0.500025 -0.177801
C43   C     C_R   0.936074 0.372178 0.500026 -0.177930
C44   C     C_R   0.063926 0.627821 0.499973 -0.177894
H15   H     H_    0.111879 0.272227 0.499951 0.149638
H16   H     H_    0.888121 0.727773 0.500050 0.149675
H17   H     H_    0.887952 0.272260 0.500051 0.149646
H18   H     H_    0.112048 0.727740 0.499947 0.149670
C45   C     C_R   0.871778 0.500020 0.500038 -0.018773
C46   C     C_R   0.128222 0.499980 0.499961 -0.018749
C47   C     C_R   0.422836 0.074405 0.470225 -0.025629
C48   C     C_R   0.577161 0.925593 0.529776 -0.025323
C49   C     C_R   0.577163 0.074500 0.529775 -0.025587
C50   C     C_R   0.422838 0.925499 0.470224 -0.025045
H19   H     H_    0.361055 0.130564 0.446383 0.119826
H20   H     H_    0.638936 0.869433 0.553620 0.118803
H21   H     H_    0.638941 0.130738 0.553617 0.119528
H22   H     H_    0.361064 0.869259 0.446381 0.118497
N3    N     N_R   0.500000 0.852070 0.500000 -0.156736
N4    N     N_R   0.500000 0.147930 0.500000 -0.157126
C51   C     C_3   0.140736 0.449976 0.876429 -0.343636
C52   C     C_3   0.089476 0.591207 0.859284 -0.736343
H23   H     H_    0.069181 0.659369 0.890747 0.221120
H24   H     H_    0.155840 0.647185 0.835758 0.277076
H25   H     H_    0.002630 0.573880 0.838820 0.252261
H26   H     H_    0.140701 0.369975 0.847492 0.244935
H27   H     H_    0.073774 0.407167 0.902936 0.166940
C53   C     C_3   0.857812 0.465816 0.122868 -0.341711
C54   C     C_3   0.882028 0.314807 0.139154 -0.737940
H28   H     H_    0.810663 0.277908 0.164760 0.274401
H29   H     H_    0.882051 0.243482 0.107524 0.227437
H30   H     H_    0.973868 0.308693 0.156921 0.246289
H31   H     H_    0.930571 0.492579 0.096203 0.161567
H32   H     H_    0.873714 0.542785 0.152113 0.247503

loop_
_geom_bond_atom_site_label_1
_geom_bond_atom_site_label_2
_geom_bond_distance
_ccdc_geom_bond_type
C49   H21   1.081787 S    
C13   C15   1.394632 A    
C38   C53   1.522709 S    
C42   H16   1.083327 S    
O3    C2    1.289789 A    
N1    C17   1.432846 S    
O5    C3    1.296042 A    
C19   C25   1.423192 A    
C48   N3    1.366783 A    
C20   C26   1.422256 A    
C9    H10   1.082874 S    
N1    C7    1.366582 A    
C10   C12   1.394338 A    
C42   C45   1.400808 A    
C32   C39   1.412992 A    
C53   H32   1.107352 S    
C53   H31   1.112651 S    
C40   H14   1.077826 S    
C14   C28   1.406286 A    
O7    Cu1   1.951373 S    
Cu2   N4    2.010289 S    
C4    C28   1.472996 S    
C51   H26   1.107514 S    
C23   H5    1.083927 S    
C24   H6    1.082372 S    
O3    Cu1   1.963025 S    
C6    N2    1.360977 A    
C44   C46   1.400902 A    
Cu1   Cu2   2.675059 S    
O2    C2    1.289658 A    
C31   C40   1.412156 A    
C5    C21   1.397407 A    
C41   C46   1.400808 A    
C32   C34   1.422535 A    
C16   C18   1.399224 A    
C7    O12   1.345911 S    
C42   C44   1.382647 A    
O8    Cu2   1.951373 S    
C11   C27   1.406262 A    
C51   C52   1.529113 S    
C41   C43   1.382647 A    
C48   H20   1.081785 S    
C25   C38   1.426998 A    
C14   H2    1.083064 S    
C52   H25   1.109800 S    
C30   C36   1.408216 A    
C15   H3    1.082859 S    
C31   C33   1.421741 A    
C11   H8    1.082991 S    
C9    C17   1.398953 A    
C5    N1    1.361050 A    
C12   H7    1.083028 S    
C10   C18   1.399164 A    
C13   C27   1.406317 A    
C23   C39   1.384472 A    
C54   H28   1.108958 S    
C7    C25   1.422743 A    
O6    C4    1.296068 A    
C29   C32   1.424206 A    
C8    C26   1.423561 A    
C52   H24   1.108954 S    
C30   C31   1.422009 A    
C43   C45   1.400903 A    
C30   C34   1.411488 A    
C51   H27   1.112335 S    
C1    C46   1.448191 S    
C10   H9    1.082889 S    
C47   N4    1.366787 A    
C54   H29   1.110902 S    
N2    C8    1.366718 A    
C53   C54   1.528325 S    
C35   C37   1.400763 A    
O1    C1    1.289659 A    
O1    Cu1   1.962879 S    
C50   N3    1.366778 A    
C8    O11   1.345995 S    
C47   C50   1.415944 A    
C12   C28   1.406310 A    
N2    C18   1.433292 S    
C39   H13   1.077221 S    
C19   C34   1.424099 A    
C5    O9    1.350373 S    
C49   N4    1.366778 A    
O6    Cu2   1.951299 S    
C26   C37   1.426722 A    
C37   C51   1.522217 S    
Cu1   N3    2.010288 S    
C16   H4    1.082852 S    
C50   H22   1.081797 S    
O4    C1    1.289789 A    
C29   C35   1.409050 A    
C35   H11   1.076305 S    
C22   C24   1.395729 A    
C21   C23   1.396313 A    
C15   C17   1.399094 A    
C36   H12   1.077365 S    
C6    C22   1.397245 A    
C41   H15   1.083326 S    
C2    C45   1.448192 S    
C29   C33   1.412261 A    
C14   C16   1.394363 A    
C52   H23   1.111492 S    
C19   C21   1.412491 A    
C36   C38   1.399959 A    
C3    C27   1.472858 S    
C20   C22   1.412534 A    
C9    C11   1.394380 A    
O4    Cu2   1.963025 S    
O2    Cu2   1.962879 S    
O7    C4    1.296023 A    
O8    C3    1.295958 A    
C13   H1    1.083022 S    
O5    Cu1   1.951299 S    
C54   H30   1.110432 S    
C20   C33   1.424188 A    
C6    O10   1.350421 S    
C48   C49   1.415944 A    
C44   H18   1.083322 S    
C43   H17   1.083324 S    
C47   H19   1.081776 S    
C24   C40   1.383517 A    
