data_mof_unit_21116.cif
_audit_creation_date              2012-12-10T20:48:46-0500
_audit_creation_method            fapswitch 2.2
_symmetry_space_group_name_H-M    P1
_symmetry_Int_Tables_number       1
_space_group_crystal_system       triclinic
_cell_length_a                    15.733613
_cell_length_b                    9.174156
_cell_length_c                    8.339489
_cell_angle_alpha                 88.746454
_cell_angle_beta                  85.935286
_cell_angle_gamma                 88.715877
_cell_volume                      1200.16582539

loop_
_atom_site_label
_atom_site_type_symbol
_atom_type_description
_atom_site_fract_x
_atom_site_fract_y
_atom_site_fract_z
_atom_type_partial_charge
C1    C     C_R   0.500042 0.218448 0.501084 0.900451
C2    C     C_3   0.066336 0.384575 0.367239 0.818502
C3    C     C_3   0.937587 0.503190 0.651264 0.741404
C4    C     C_3   0.963972 0.376477 0.362827 0.771103
C5    C     C_1   0.750652 0.496284 0.478088 -0.286782
C6    C     C_1   0.249200 0.508347 0.516241 -0.287715
C7    C     C_3   0.083046 0.508917 0.489754 -0.386106
C8    C     C_3   0.918059 0.507728 0.464840 -0.408858
C9    C     C_3   0.952139 0.659130 0.383966 0.829348
C10   C     C_3   0.051761 0.665906 0.421527 0.774186
C11   C     C_3   0.139880 0.813733 0.583990 -0.213446
C12   C     C_1   0.826365 0.500186 0.465751 0.126329
C13   C     C_3   0.120448 0.837518 0.227598 -0.364343
C14   C     C_3   0.821458 0.809211 0.418718 -0.273178
C15   C     C_3   0.936473 0.792800 0.131902 -0.305536
C16   C     C_3   0.864861 0.267760 0.723932 -0.168793
C17   C     C_3   0.953362 0.121128 0.335016 -0.193031
C18   C     C_3   0.129703 0.277500 0.759558 -0.224798
C19   C     C_3   0.167578 0.176805 0.349690 -0.339776
C20   C     C_3   0.186421 0.435789 0.156713 -0.253260
C21   C     C_3   0.036468 0.531348 0.930493 -0.041197
C22   C     C_3   0.858382 0.356541 0.165777 -0.213280
C23   C     C_1   0.173971 0.510155 0.509158 0.178846
C24   C     C_3   0.842496 0.677236 0.791659 -0.150357
C25   C     C_R   0.338363 0.502786 0.505403 0.869386
C26   C     C_R   0.661602 0.497235 0.494232 0.875539
C27   C     C_1   0.499980 0.935135 0.498507 -0.200585
C28   C     C_1   0.500007 0.064837 0.501477 -0.199477
C29   C     C_R   0.499953 0.781526 0.498912 0.899660
C30   C     C_3   0.036274 0.469869 0.660269 0.752226
H1    H     H_    0.138229 0.929944 0.617096 0.161677
H2    H     H_    0.959026 0.883188 0.197585 0.166678
H3    H     H_    0.869961 0.815499 0.102182 0.142147
H4    H     H_    0.974558 0.792649 0.015500 0.193561
H5    H     H_    0.919856 0.190641 0.711456 0.256199
H6    H     H_    0.822524 0.266356 0.624281 0.188430
H7    H     H_    0.823754 0.223051 0.825424 0.114160
H8    H     H_    0.971670 0.030495 0.415592 0.253115
H9    H     H_    0.004337 0.136899 0.237250 0.179677
H10   H     H_    0.894995 0.091737 0.278660 0.124466
H11   H     H_    0.166260 0.206729 0.673005 0.191175
H12   H     H_    0.192184 0.796319 0.490590 0.142041
H13   H     H_    0.119017 0.210399 0.871208 0.145213
H14   H     H_    0.170535 0.369244 0.786977 0.168238
H15   H     H_    0.174236 0.067237 0.403107 0.157118
H16   H     H_    0.227623 0.227319 0.378193 0.156686
H17   H     H_    0.159971 0.161068 0.220048 0.177152
H18   H     H_    0.206125 0.357873 0.060893 0.129160
H19   H     H_    0.232022 0.421663 0.246965 0.174426
H20   H     H_    0.196310 0.545295 0.101394 0.212679
H21   H     H_    0.043201 0.415798 0.963504 0.249945
H22   H     H_    0.968701 0.556021 0.949155 0.246256
H23   H     H_    0.156229 0.754479 0.694548 0.206836
H24   H     H_    0.069566 0.601537 0.009382 0.239955
H25   H     H_    0.820087 0.300243 0.264026 0.156327
H26   H     H_    0.860605 0.283287 0.062828 0.177789
H27   H     H_    0.825027 0.459221 0.132255 0.191387
H28   H     H_    0.831863 0.796944 0.798073 0.150664
H29   H     H_    0.840169 0.633744 0.916454 0.157887
H30   H     H_    0.788682 0.630886 0.733740 0.166082
H31   H     H_    0.108018 0.853463 0.099280 0.168873
H32   H     H_    0.189444 0.856947 0.233186 0.166830
H33   H     H_    0.082915 0.918749 0.297974 0.191526
H34   H     H_    0.799195 0.740750 0.323042 0.170954
H35   H     H_    0.811612 0.923907 0.381050 0.144779
H36   H     H_    0.778617 0.794474 0.528181 0.159703
N1    N     N_1   0.500000 0.500030 0.073640 -0.047694
N2    N     N_1   0.500000 0.500030 0.926360 -0.047346
O1    O     O_R   0.500000 0.285340 0.636850 -0.612858
O2    O     O_3   0.103133 0.692153 0.275304 -0.619576
O3    O     O_3   0.907988 0.784990 0.454207 -0.571972
O4    O     O_3   0.943587 0.655890 0.213769 -0.622225
O5    O     O_3   0.888520 0.409166 0.764124 -0.649171
O6    O     O_3   0.936119 0.242618 0.432548 -0.658550
O7    O     O_3   0.048721 0.318336 0.703433 -0.597666
O8    O     O_3   0.095957 0.246127 0.428510 -0.580992
O9    O     O_3   0.098561 0.414472 0.204432 -0.637840
O10   O     O_3   0.069314 0.561920 0.773991 -0.676887
O11   O     O_3   0.943513 0.386089 0.197793 -0.602483
O12   O     O_R   0.500000 0.285340 0.363150 -0.613692
O13   O     O_3   0.923154 0.649281 0.708317 -0.565866
O14   O     O_R   0.377140 0.500000 0.636930 -0.614739
O15   O     O_R   0.377140 0.500000 0.363070 -0.620751
O16   O     O_R   0.622860 0.500000 0.636930 -0.610842
O17   O     O_R   0.622860 0.500000 0.363070 -0.619264
O18   O     O_R   0.500000 0.714650 0.636900 -0.612914
O19   O     O_R   0.500000 0.714650 0.363100 -0.612086
O20   O     O_3   0.057612 0.778168 0.538841 -0.555766
Zn1   Zn    Zn3+2 0.500000 0.499990 0.682780 0.974662
Zn2   Zn    Zn3+2 0.500000 0.499990 0.317220 0.970260

loop_
_geom_bond_atom_site_label_1
_geom_bond_atom_site_label_2
_ccdc_geom_bond_type
C7    C10   S    
C18   O7    S    
C27   C29   S    
C14   O3    S    
C2    C7    S    
C9    O4    S    
C4    C8    S    
C22   H27   S    
C19   H16   S    
C15   H2    S    
C15   O4    S    
C10   O20   S    
O14   Zn1   S    
C20   O9    S    
C19   O8    S    
C22   O11   S    
C24   H29   S    
C16   H5    S    
C21   H24   S    
C19   H17   S    
C6    C25   S    
C13   O2    S    
C11   H12   S    
C17   H9    S    
C20   H20   S    
C13   H32   S    
C8    C9    S    
C21   O10   S    
C3    O13   S    
C1    C28   S    
C9    C10   S    
C15   H4    S    
C4    O6    S    
C11   H23   S    
C24   H30   S    
C16   H7    S    
C11   H1    S    
C7    C30   S    
O1    Zn1   S    
C16   O5    S    
C5    C12   T    
C3    C8    S    
C18   H11   S    
C22   H26   S    
N1    Zn2   S    
C1    O1    A    
N1    N2    T    
C17   H10   S    
C3    C30   S    
C2    C4    S    
C24   O13   S    
C20   H19   S    
C18   H14   S    
C13   H33   S    
C11   O20   S    
C8    C12   S    
C14   H34   S    
N2    Zn1   S    
C14   H36   S    
C29   O18   A    
C20   H18   S    
C4    O11   S    
C10   O2    S    
C25   O14   A    
O16   Zn1   S    
C21   H21   S    
C2    O8    S    
O15   Zn2   S    
C26   O16   A    
C9    O3    S    
O18   Zn1   S    
O17   Zn2   S    
C19   H15   S    
C22   H25   S    
C2    O9    S    
C18   H13   S    
C16   H6    S    
C30   O7    S    
C17   O6    S    
C26   O17   A    
C7    C23   S    
C6    C23   T    
C14   H35   S    
C17   H8    S    
O12   Zn2   S    
C3    O5    S    
C29   O19   A    
C5    C26   S    
C30   O10   S    
C13   H31   S    
C24   H28   S    
O19   Zn2   S    
C27   C28   T    
C25   O15   A    
C1    O12   A    
C15   H3    S    
C21   H22   S    
