data_mof_unit_55653.cif
_audit_creation_date              2012-12-10T18:10:18-0500
_audit_creation_method            fapswitch 2.2
_symmetry_space_group_name_H-M    P1
_symmetry_Int_Tables_number       1
_space_group_crystal_system       triclinic
_cell_length_a                    10.987572
_cell_length_b                    9.507061
_cell_length_c                    15.853742
_cell_angle_alpha                 90.483078
_cell_angle_beta                  88.104245
_cell_angle_gamma                 91.021564
_cell_volume                      1654.85378616

loop_
_atom_site_label
_atom_site_type_symbol
_atom_type_description
_atom_site_fract_x
_atom_site_fract_y
_atom_site_fract_z
_atom_type_partial_charge
C1    C     C_R   0.260574 0.499337 0.496958 0.824928
C2    C     C_3   0.624476 0.529361 0.949206 -0.363884
C3    C     C_3   0.623320 0.529608 0.046936 -0.404560
C4    C     C_1   0.496717 0.501220 0.824883 -0.058191
C5    C     C_1   0.495950 0.498205 0.175517 0.000273
C6    C     C_1   0.498236 0.498454 0.250998 -0.052719
C7    C     C_3   0.078441 0.652157 0.468973 -0.304028
C8    C     C_3   0.065677 0.471958 0.584959 -0.255177
C9    C     C_3   0.935389 0.665582 0.486185 -0.081693
C10   C     C_3   0.923829 0.442095 0.583697 -0.136345
C11   C     C_3   0.074215 0.386195 0.424980 -0.165374
C12   C     C_3   0.122926 0.498861 0.492488 -0.207390
C13   C     C_3   0.878650 0.504507 0.495334 -0.205511
C14   C     C_R   0.500054 0.499509 0.340526 0.844284
C15   C     C_3   0.930143 0.410911 0.414629 -0.147093
C16   C     C_3   0.616990 0.084852 0.468835 -0.223630
C17   C     C_3   0.613174 0.918907 0.462268 -0.231758
C18   C     C_3   0.480530 0.085143 0.588945 -0.062067
C19   C     C_3   0.489830 0.918477 0.589767 -0.058478
C20   C     C_3   0.406780 0.080307 0.446261 -0.138262
C21   C     C_3   0.399776 0.914782 0.452525 -0.114732
C22   C     C_R   0.739899 0.501510 0.497231 0.815783
C23   C     C_R   0.499909 0.500493 0.659589 0.889420
C24   C     C_3   0.409891 0.618343 0.051107 -0.158444
C25   C     C_3   0.453456 0.350509 0.047959 -0.181575
C26   C     C_3   0.448073 0.355348 0.950099 -0.446042
C27   C     C_3   0.408247 0.614874 0.952913 -0.447185
C28   C     C_1   0.498474 0.501382 0.749269 -0.140989
C29   C     C_3   0.492528 0.498442 0.083190 0.161287
C30   C     C_3   0.494627 0.500282 0.917110 0.283869
Cu1   Cu    Cu3+1 0.499860 0.642410 0.500040 0.979714
Cu2   Cu    Cu3+1 0.499860 0.357590 0.500040 0.974838
H1    H     H_    0.690226 0.115141 0.511824 0.196712
H2    H     H_    0.692911 0.879798 0.493717 0.226628
H3    H     H_    0.316871 0.124089 0.461144 0.210770
H4    H     H_    0.310518 0.884888 0.481417 0.237765
H5    H     H_    0.505209 0.270220 0.922078 0.174113
H6    H     H_    0.437696 0.719700 0.928031 0.173108
H7    H     H_    0.657086 0.633568 0.070160 0.190134
H8    H     H_    0.687582 0.449449 0.068863 0.201243
H9    H     H_    0.124189 0.724469 0.513713 0.206767
H10   H     H_    0.077573 0.575212 0.617420 0.215656
N1    N     N_3   0.500250 0.143650 0.501830 -0.176540
N2    N     N_3   0.500250 0.856350 0.501830 -0.174931
O1    O     O_R   0.317570 0.620260 0.500050 -0.558545
O2    O     O_R   0.317570 0.379740 0.500050 -0.601148
O3    O     O_R   0.499890 0.620310 0.379470 -0.601818
O4    O     O_R   0.499890 0.379690 0.379470 -0.581293
O5    O     O_R   0.682190 0.620260 0.500020 -0.579501
O6    O     O_R   0.682190 0.379740 0.500020 -0.578919
O7    O     O_R   0.499870 0.620210 0.620600 -0.582245
O8    O     O_R   0.499870 0.379790 0.620600 -0.590515
H11   H     H_    0.314800 0.594272 0.930067 0.177059
H12   H     H_    0.353661 0.335605 0.928757 0.170991
C31   C     C_2   0.878056 0.754626 0.418065 0.376529
H13   H     H_    0.802616 0.716284 0.382039 0.109198
O9    O     O_2   0.910903 0.876675 0.406462 -0.470386
C32   C     C_2   0.890886 0.286147 0.596273 0.280975
H14   H     H_    0.952134 0.203829 0.577434 0.078857
O10   O     O_2   0.793836 0.248736 0.629716 -0.560547
C33   C     C_2   0.147813 0.393111 0.341124 0.401240
H15   H     H_    0.236999 0.443602 0.337412 0.023503
O11   O     O_2   0.112575 0.331788 0.278125 -0.449887
C34   C     C_2   0.101519 0.237215 0.454317 0.323225
H16   H     H_    0.134509 0.218960 0.515782 0.112046
O12   O     O_2   0.088935 0.134516 0.408191 -0.413908
C35   C     C_2   0.902585 0.488969 0.332773 0.427323
H17   H     H_    0.971783 0.544391 0.295930 0.087800
O13   O     O_2   0.798684 0.493108 0.307493 -0.568722
C36   C     C_2   0.866687 0.266171 0.403319 0.582102
H18   H     H_    0.857842 0.193670 0.454384 0.048207
O14   O     O_2   0.835700 0.221925 0.334388 -0.467721
H19   H     H_    0.639994 0.129713 0.405829 0.199503
H20   H     H_    0.622644 0.885339 0.394980 0.166913
H21   H     H_    0.555402 0.126208 0.628478 0.129590
H22   H     H_    0.576040 0.894566 0.621518 0.120828
H23   H     H_    0.426998 0.110212 0.379449 0.166005
H24   H     H_    0.401694 0.868468 0.387888 0.174403
C37   C     C_2   0.364740 0.137601 0.632958 0.392278
H25   H     H_    0.370246 0.201168 0.689877 0.100368
O15   O     O_2   0.264596 0.100424 0.609632 -0.586711
C38   C     C_2   0.392011 0.852171 0.648171 0.506264
H26   H     H_    0.409450 0.845174 0.715018 0.013586
O16   O     O_2   0.293363 0.811644 0.623589 -0.520761
C39   C     C_2   0.282496 0.616802 0.090285 0.375785
H27   H     H_    0.207710 0.565380 0.058562 0.078821
O17   O     O_2   0.262343 0.673420 0.158616 -0.523331
C40   C     C_2   0.335962 0.292598 0.087307 0.409431
H28   H     H_    0.248787 0.330841 0.068442 0.083452
O18   O     O_2   0.337964 0.199585 0.139857 -0.486874
H29   H     H_    0.526011 0.275259 0.063530 0.183620
H30   H     H_    0.452212 0.720959 0.069777 0.180103
H31   H     H_    0.659553 0.632829 0.925613 0.185118
H32   H     H_    0.687639 0.447445 0.924359 0.192094
C41   C     C_2   0.127846 0.710954 0.384811 0.422749
H33   H     H_    0.139588 0.648743 0.328638 0.073584
O19   O     O_2   0.152922 0.836014 0.378340 -0.454845
C42   C     C_2   0.134224 0.379707 0.644618 0.425818
H34   H     H_    0.106863 0.271939 0.656800 0.110360
O20   O     O_2   0.219992 0.428438 0.683042 -0.551805
C43   C     C_2   0.915660 0.755980 0.566832 0.393232
H35   H     H_    0.991515 0.803815 0.599273 0.123483
O21   O     O_2   0.814328 0.780564 0.596402 -0.581665
C44   C     C_2   0.861624 0.511883 0.661231 0.490767
H36   H     H_    0.764656 0.531283 0.661888 0.091496
O22   O     O_2   0.916851 0.539477 0.725149 -0.548253

loop_
_geom_bond_atom_site_label_1
_geom_bond_atom_site_label_2
_ccdc_geom_bond_type
C31   H13   S    
C18   H21   S    
C41   H33   S    
C24   C27   S    
C44   O22   D    
C21   H4    S    
C39   H27   S    
C43   H35   S    
C20   H23   S    
C19   H22   S    
C10   C32   S    
C8    H10   S    
C5    C6    T    
C1    O2    A    
C27   H6    S    
C32   O10   D    
C42   H34   S    
C26   H12   S    
C33   O11   D    
C18   C19   S    
C3    C29   S    
C9    C13   S    
C24   C29   S    
Cu2   O8    S    
C8    C42   S    
C20   H3    S    
C11   C15   S    
C18   C37   S    
C21   H24   S    
C36   H18   S    
C9    C31   S    
C19   C38   S    
C24   C39   S    
C22   O6    A    
C3    H7    S    
C43   O21   D    
Cu1   O3    S    
C27   C30   S    
Cu2   O4    S    
C1    C12   S    
Cu1   O5    S    
C24   H30   S    
C44   H36   S    
C4    C28   T    
C5    C29   S    
C39   O17   D    
C25   C29   S    
C7    C12   S    
C25   H29   S    
Cu1   N2    S    
C35   H17   S    
C2    H32   S    
C11   C34   S    
C37   O15   D    
C16   C17   S    
C14   O4    A    
C32   H14   S    
C25   C40   S    
C16   H19   S    
C35   O13   D    
C34   O12   D    
C16   H1    S    
C6    C14   S    
C21   N2    S    
C23   O7    A    
Cu1   Cu2   S    
C8    C12   S    
C15   C35   S    
C27   H11   S    
C23   C28   S    
C40   H28   S    
C16   N1    S    
Cu2   O6    S    
C22   O5    A    
C8    C10   S    
C40   O18   D    
C3    H8    S    
C26   C30   S    
C42   O20   D    
C13   C15   S    
C17   H20   S    
C17   H2    S    
C20   N1    S    
C19   N2    S    
C7    C9    S    
C15   C36   S    
Cu2   O2    S    
C2    H31   S    
Cu1   O7    S    
C11   C33   S    
C10   C13   S    
C11   C12   S    
C41   O19   D    
C26   H5    S    
C14   O3    A    
C7    C41   S    
C38   O16   D    
C2    C30   S    
C34   H16   S    
C31   O9    D    
C2    C3    S    
C25   C26   S    
C17   N2    S    
C18   N1    S    
C1    O1    A    
C23   O8    A    
C10   C44   S    
Cu2   N1    S    
C13   C22   S    
C7    H9    S    
C33   H15   S    
C37   H25   S    
C20   C21   S    
C9    C43   S    
C38   H26   S    
Cu1   O1    S    
C36   O14   D    
C4    C30   S    
