data_mof_unit_35466.cif
_audit_creation_date              2012-10-26T19:13:50-0400
_audit_creation_method            fapswitch 2.2
_symmetry_space_group_name_H-M    P1
_symmetry_Int_Tables_number       1
_space_group_crystal_system       triclinic
_cell_length_a                    15.1346
_cell_length_b                    13.913454
_cell_length_c                    10.620752
_cell_angle_alpha                 89.997533
_cell_angle_beta                  90.749063
_cell_angle_gamma                 90.000128
_cell_volume                      2236.26906232

loop_
_atom_site_label
_atom_site_type_symbol
_atom_type_description
_atom_site_fract_x
_atom_site_fract_y
_atom_site_fract_z
_atom_type_partial_charge
C1    C     C_R   0.329946 0.499969 0.499975 0.530550
C2    C     C_R   0.563046 0.790420 0.567982 0.379889
C3    C     C_R   0.499813 0.054782 0.501656 -0.050535
C4    C     C_R   0.499750 0.945548 0.502298 -0.050604
C5    C     C_R   0.500269 0.499823 0.259247 0.542970
C6    C     C_R   0.499911 0.500044 0.740747 0.542048
C7    C     C_3   0.421879 0.531023 0.040844 -0.130770
C8    C     C_3   0.578680 0.467761 0.959046 -0.123645
C9    C     C_3   0.486207 0.589658 0.959211 -0.133886
C10   C     C_3   0.514253 0.409290 0.040909 -0.095628
C11   C     C_3   0.435522 0.441605 0.957048 -0.110946
C12   C     C_R   0.670020 0.499958 0.500375 0.530934
C13   C     C_3   0.565071 0.557334 0.042869 -0.141913
C14   C     C_3   0.499910 0.500120 0.877605 0.048945
C15   C     C_3   0.500599 0.499012 0.122377 0.045532
C16   C     C_R   0.094617 0.582247 0.465532 -0.129487
C17   C     C_R   0.904232 0.417700 0.461243 -0.126052
C18   C     C_R   0.905152 0.580752 0.542267 -0.129396
C19   C     C_R   0.095736 0.416482 0.536403 -0.125700
C20   C     C_R   0.186415 0.582731 0.466257 -0.138777
C21   C     C_R   0.812406 0.417733 0.461727 -0.146907
C22   C     C_R   0.813339 0.581261 0.540905 -0.135105
C23   C     C_R   0.544818 0.108187 0.594855 -0.152520
C24   C     C_R   0.187556 0.416546 0.535224 -0.146681
C25   C     C_R   0.233432 0.499762 0.500421 0.008752
C26   C     C_R   0.766474 0.499697 0.500957 0.009491
C27   C     C_R   0.048505 0.499263 0.501183 0.036803
C28   C     C_R   0.951367 0.499173 0.501720 0.036308
C29   C     C_3   0.683659 0.236885 0.687391 0.004883
C30   C     C_3   0.707250 0.200771 0.819631 -0.271858
C31   C     C_3   0.805396 0.176923 0.831704 -0.489353
C32   C     C_3   0.368696 0.763268 0.241012 0.001068
C33   C     C_3   0.278380 0.735419 0.186268 -0.267053
C34   C     C_R   0.432959 0.892729 0.440686 -0.153424
C35   C     C_3   0.271291 0.758792 0.046067 -0.488106
C36   C     C_3   0.317252 0.237239 0.311834 0.006707
C37   C     C_3   0.292788 0.203265 0.179004 -0.271452
C38   C     C_3   0.194020 0.182808 0.166379 -0.489521
C39   C     C_3   0.628453 0.760692 0.762337 0.003236
C40   C     C_3   0.718457 0.801595 0.801753 -0.278776
C41   C     C_3   0.722463 0.822181 0.942844 -0.484500
C42   C     C_R   0.455105 0.107561 0.407321 -0.153066
C43   C     C_R   0.566161 0.892153 0.564314 -0.150250
C44   C     C_R   0.547940 0.209852 0.589688 0.378687
C45   C     C_R   0.436729 0.791189 0.433200 0.372877
C46   C     C_R   0.452266 0.209268 0.410796 0.375362
Cu1   Cu    Cu3+1 0.500000 0.596430 0.500000 1.028067
Cu2   Cu    Cu3+1 0.500000 0.403570 0.500000 1.028625
H1    H     H_    0.382494 0.394322 0.918892 0.108515
H2    H     H_    0.061797 0.352087 0.566421 0.098763
H3    H     H_    0.220419 0.647676 0.438784 0.163236
H4    H     H_    0.777385 0.354197 0.429667 0.116489
H5    H     H_    0.779160 0.644967 0.572579 0.162476
H6    H     H_    0.222591 0.351923 0.563163 0.115549
H7    H     H_    0.577341 0.072098 0.672619 0.099395
H8    H     H_    0.376804 0.929395 0.399030 0.100543
H9    H     H_    0.422700 0.070981 0.329785 0.098659
H10   H     H_    0.620952 0.928278 0.609976 0.099729
H11   H     H_    0.722276 0.303241 0.669284 0.160345
H12   H     H_    0.618015 0.604690 0.081063 0.104598
H13   H     H_    0.704745 0.183116 0.615672 0.097750
H14   H     H_    0.690477 0.256971 0.889793 0.167519
H15   H     H_    0.668129 0.135360 0.840975 0.153821
H16   H     H_    0.823161 0.119163 0.764398 0.142008
H17   H     H_    0.820423 0.151579 0.928780 0.144995
H18   H     H_    0.845940 0.241747 0.812614 0.147122
H19   H     H_    0.420978 0.721448 0.192982 0.157947
H20   H     H_    0.379484 0.840804 0.220503 0.099146
H21   H     H_    0.266961 0.657338 0.200643 0.161713
H22   H     H_    0.226018 0.775350 0.236809 0.160012
H23   H     H_    0.357338 0.555109 0.077292 0.105986
H24   H     H_    0.278514 0.837364 0.030753 0.144263
H25   H     H_    0.205599 0.735941 0.009201 0.148303
H26   H     H_    0.323164 0.720415 0.992990 0.145457
H27   H     H_    0.279673 0.303979 0.331698 0.162212
H28   H     H_    0.295654 0.182719 0.382259 0.097359
H29   H     H_    0.311189 0.259608 0.109854 0.171193
H30   H     H_    0.330171 0.136802 0.156804 0.152210
H31   H     H_    0.174512 0.125169 0.232852 0.142686
H32   H     H_    0.178404 0.158762 0.068918 0.144583
H33   H     H_    0.155312 0.248810 0.186273 0.147510
H34   H     H_    0.642744 0.441968 0.922122 0.110559
H35   H     H_    0.618714 0.692120 0.813688 0.162594
H36   H     H_    0.574643 0.810222 0.792721 0.100783
H37   H     H_    0.771093 0.749147 0.778060 0.162307
H38   H     H_    0.731317 0.869251 0.749665 0.151674
H39   H     H_    0.671523 0.876015 0.968345 0.143585
H40   H     H_    0.788557 0.851335 0.968605 0.146155
H41   H     H_    0.711429 0.755092 0.997134 0.143782
H42   H     H_    0.474412 0.663599 0.923557 0.101004
H43   H     H_    0.525680 0.335374 0.077020 0.139321
H44   H     H_    0.059785 0.646503 0.435803 0.101707
H45   H     H_    0.938250 0.354455 0.427528 0.099085
H46   H     H_    0.939913 0.643840 0.576240 0.101322
N1    N     N_R   0.500000 0.258690 0.500000 -0.204245
N2    N     N_R   0.500000 0.741310 0.500000 -0.201590
O1    O     O_R   0.371460 0.581430 0.500010 -0.459049
O2    O     O_3   0.370143 0.741302 0.371213 -0.548446
O3    O     O_3   0.408433 0.260133 0.317021 -0.539447
O4    O     O_3   0.628105 0.739451 0.631820 -0.548991
O5    O     O_R   0.628540 0.418570 0.499990 -0.504137
O6    O     O_R   0.628540 0.581430 0.499990 -0.460985
O7    O     O_R   0.371460 0.418570 0.500010 -0.505463
O8    O     O_R   0.499980 0.581420 0.316850 -0.504636
O9    O     O_R   0.500020 0.418580 0.683150 -0.455332
O10   O     O_R   0.500020 0.581420 0.683150 -0.505001
O11   O     O_R   0.499980 0.418580 0.316850 -0.460228
O12   O     O_3   0.592815 0.261423 0.681870 -0.534243

loop_
_geom_bond_atom_site_label_1
_geom_bond_atom_site_label_2
_ccdc_geom_bond_type
C31   H18   S    
C41   H41   S    
C46   O3    S    
C35   H26   S    
C34   H8    S    
C8    C13   S    
Cu2   N1    S    
C3    C23   A    
C21   C26   A    
C3    C42   A    
C13   H12   S    
C7    C11   S    
C37   C38   S    
C8    H34   S    
C36   C37   S    
C39   H36   S    
C20   H3    S    
C45   O2    S    
C7    H23   S    
C30   C31   S    
C11   C14   S    
Cu2   O11   S    
C38   H31   S    
C24   H6    S    
C7    C9    S    
C42   C46   A    
C40   H38   S    
C9    C13   S    
C36   H28   S    
C43   H10   S    
C46   N1    A    
Cu1   Cu2   S    
C20   C25   A    
Cu1   N2    S    
C29   O12   S    
C19   C27   A    
C1    O7    A    
C33   H21   S    
C32   H20   S    
C16   C27   A    
C7    C15   S    
C5    O8    A    
C2    O4    S    
Cu1   O6    S    
C30   H15   S    
C1    C25   S    
C42   H9    S    
C22   H5    S    
C4    C34   A    
C44   O12   S    
C41   H39   S    
C29   H13   S    
C29   H11   S    
C18   C28   A    
C24   C25   A    
C1    O1    A    
C39   C40   S    
Cu2   O7    S    
C37   H29   S    
C17   C21   A    
C23   C44   A    
C12   C26   S    
C40   H37   S    
C9    C14   S    
C12   O6    A    
C29   C30   S    
C11   H1    S    
C36   H27   S    
C6    C14   S    
Cu2   O9    S    
C2    C43   A    
C16   C20   A    
Cu1   O10   S    
C6    O10   A    
C34   C45   A    
C33   H22   S    
C32   H19   S    
C40   C41   S    
C35   H24   S    
C16   H44   S    
C13   C15   S    
C38   H33   S    
C18   H46   S    
C17   H45   S    
C3    C4    S    
C5    O11   A    
C31   H17   S    
C41   H40   S    
C35   H25   S    
C8    C14   S    
Cu1   O8    S    
C18   C22   A    
C17   C28   A    
C31   H16   S    
C9    H42   S    
C10   H43   S    
C23   H7    S    
C4    C43   A    
C37   H30   S    
Cu1   O1    S    
C10   C15   S    
C32   C33   S    
C30   H14   S    
C19   C24   A    
C39   H35   S    
C12   O5    A    
C44   N1    A    
C19   H2    S    
C39   O4    S    
C38   H32   S    
Cu2   O5    S    
C2    N2    A    
C33   C35   S    
C6    O9    A    
C32   O2    S    
C36   O3    S    
C5    C15   S    
C10   C11   S    
C8    C10   S    
C22   C26   A    
C27   C28   S    
C45   N2    A    
C21   H4    S    
