data_mof_unit_12580.cif
_audit_creation_date              2012-12-10T19:09:29-0500
_audit_creation_method            fapswitch 2.2
_symmetry_space_group_name_H-M    P1
_symmetry_Int_Tables_number       1
_space_group_crystal_system       triclinic
_cell_length_a                    15.007566
_cell_length_b                    15.236577
_cell_length_c                    9.999872
_cell_angle_alpha                 89.980036
_cell_angle_beta                  91.302416
_cell_angle_gamma                 89.994219
_cell_volume                      2286.01918646

loop_
_atom_site_label
_atom_site_type_symbol
_atom_type_description
_atom_site_fract_x
_atom_site_fract_y
_atom_site_fract_z
_atom_type_partial_charge
C1    C     C_R   0.119899 0.379102 0.501029 0.868416
C2    C     C_R   0.880101 0.621753 0.499180 0.862647
C3    C     C_R   0.380352 0.878052 0.499245 0.882324
C4    C     C_R   0.379937 0.122241 0.499003 0.892965
C5    C     C_3   0.851048 0.219221 0.545638 -0.388693
C6    C     C_3   0.771817 0.291796 0.357554 -0.361748
C7    C     C_3   0.805356 0.735706 0.359495 -0.409886
C8    C     C_3   0.835538 0.760793 0.606163 -0.396734
C9    C     C_3   0.335645 0.738964 0.606043 -0.398043
C10   C     C_3   0.305383 0.764394 0.359615 -0.405769
C11   C     C_3   0.271769 0.208204 0.357520 -0.361270
C12   C     C_R   0.122067 0.619396 0.500479 0.814724
C13   C     C_3   0.351069 0.280763 0.545462 -0.389163
C14   C     C_3   0.264479 0.666579 0.605187 -0.453859
C15   C     C_3   0.236364 0.690908 0.361673 -0.444039
C16   C     C_3   0.196367 0.273720 0.359371 -0.434544
C17   C     C_3   0.279013 0.352714 0.542053 -0.491057
C18   C     C_3   0.779007 0.147265 0.542123 -0.490274
C19   C     C_3   0.696395 0.226312 0.359375 -0.434334
C20   C     C_3   0.735713 0.808620 0.361257 -0.439569
C21   C     C_3   0.765532 0.834296 0.603977 -0.470547
C22   C     C_3   0.732892 0.339501 0.585559 -0.452925
C23   C     C_R   0.622047 0.880605 0.500534 0.850338
C24   C     C_3   0.720531 0.648590 0.529512 -0.463512
C25   C     C_3   0.221053 0.851553 0.530653 -0.423739
C26   C     C_3   0.232931 0.160502 0.585621 -0.452123
C27   C     C_3   0.810726 0.308672 0.498430 0.095618
C28   C     C_3   0.811854 0.690510 0.498343 0.138921
C29   C     C_3   0.312058 0.809407 0.498563 0.122796
C30   C     C_3   0.310726 0.191323 0.498376 0.096719
C31   C     C_3   0.189858 0.688673 0.499960 0.169316
C32   C     C_3   0.187655 0.311046 0.502998 0.164511
C33   C     C_3   0.687652 0.188955 0.502996 0.165157
C34   C     C_R   0.619896 0.120902 0.501014 0.864684
C35   C     C_3   0.690208 0.811724 0.500376 0.189247
C36   C     C_3   0.146272 0.780872 0.530768 0.233942
C37   C     C_3   0.163709 0.234671 0.602683 0.240397
C38   C     C_3   0.663691 0.265316 0.602651 0.242300
C39   C     C_3   0.646514 0.720191 0.532910 0.238266
C40   C     C_3   0.080377 0.458316 0.080732 -0.222638
C41   C     C_3   0.085424 0.469809 0.922746 -0.263343
C42   C     C_3   0.990149 0.590399 0.920631 -0.245106
C43   C     C_3   0.002654 0.590878 0.080163 -0.286673
C44   C     C_3   0.502627 0.909122 0.080244 -0.283476
C45   C     C_3   0.916827 0.455928 0.079719 -0.115334
C46   C     C_3   0.490107 0.909610 0.920716 -0.247584
C47   C     C_3   0.585435 0.030142 0.922716 -0.263085
C48   C     C_3   0.580385 0.041649 0.080690 -0.223827
C49   C     C_2   0.903498 0.362975 0.132970 0.937459
C50   C     C_2   0.937706 0.346411 0.876386 0.945245
C51   C     C_2   0.829889 0.468565 0.859065 0.934800
C52   C     C_2   0.834743 0.511303 0.124721 0.950814
C53   C     C_2   0.334746 0.988745 0.124771 0.950040
C54   C     C_2   0.329925 0.031561 0.859083 0.934968
C55   C     C_2   0.437766 0.153643 0.876330 0.945050
C56   C     C_3   0.923280 0.444504 0.916926 -0.119381
C57   C     C_2   0.403518 0.137047 0.132914 0.937681
C58   C     C_3   0.416837 0.044104 0.079707 -0.116214
C59   C     C_3   0.423308 0.055550 0.916912 -0.118797
C60   C     C_R   0.879939 0.377755 0.499028 0.895200
H1    H     H_    0.883059 0.221715 0.645014 0.242148
H2    H     H_    0.824760 0.260575 0.300512 0.224042
H3    H     H_    0.871052 0.763753 0.332640 0.172357
H4    H     H_    0.902474 0.789117 0.587670 0.173205
H5    H     H_    0.402002 0.709734 0.586178 0.174359
H6    H     H_    0.371284 0.736926 0.332240 0.182103
H7    H     H_    0.324693 0.239402 0.300394 0.223759
H8    H     H_    0.404978 0.300208 0.476961 0.158578
H9    H     H_    0.296046 0.602621 0.580404 0.159012
H10   H     H_    0.270032 0.627005 0.343305 0.173252
H11   H     H_    0.211601 0.326956 0.286701 0.200847
H12   H     H_    0.746072 0.352009 0.310554 0.259573
H13   H     H_    0.296836 0.403399 0.466898 0.162479
H14   H     H_    0.796876 0.096628 0.466968 0.163918
H15   H     H_    0.711628 0.173092 0.286729 0.201122
H16   H     H_    0.768629 0.872622 0.340814 0.171212
H17   H     H_    0.797839 0.897397 0.576523 0.163452
H18   H     H_    0.237711 0.658816 0.707210 0.183860
H19   H     H_    0.188158 0.700183 0.276850 0.181183
H20   H     H_    0.133360 0.243053 0.322297 0.204535
H21   H     H_    0.277163 0.387667 0.639471 0.176675
H22   H     H_    0.777123 0.112250 0.639525 0.176993
H23   H     H_    0.785931 0.687306 0.280855 0.217327
H24   H     H_    0.633399 0.257019 0.322270 0.204077
H25   H     H_    0.686915 0.798146 0.277527 0.185369
H26   H     H_    0.739551 0.844067 0.706072 0.183835
H27   H     H_    0.758000 0.360820 0.683527 0.240211
H28   H     H_    0.701859 0.399016 0.539485 0.143762
H29   H     H_    0.704088 0.597414 0.453719 0.142743
H30   H     H_    0.724658 0.613382 0.626398 0.215838
H31   H     H_    0.225352 0.885148 0.628795 0.211576
H32   H     H_    0.205334 0.904170 0.456721 0.151558
H33   H     H_    0.201905 0.100970 0.539674 0.146049
H34   H     H_    0.837945 0.730636 0.707593 0.205466
H35   H     H_    0.258085 0.139223 0.683596 0.240148
H36   H     H_    0.087008 0.388325 0.105989 0.239780
H37   H     H_    0.111072 0.410727 0.873167 0.228114
H38   H     H_    0.925957 0.621459 0.892202 0.219162
H39   H     H_    0.954860 0.635770 0.128023 0.186576
H40   H     H_    0.454821 0.864250 0.128142 0.189072
H41   H     H_    0.425891 0.878608 0.892327 0.219278
H42   H     H_    0.611099 0.089211 0.873077 0.228223
H43   H     H_    0.587024 0.111639 0.105873 0.240027
H44   H     H_    0.141019 0.488004 0.128258 0.135370
H45   H     H_    0.339384 0.769036 0.707455 0.203781
H46   H     H_    0.138877 0.518284 0.901162 0.132432
H47   H     H_    0.040611 0.634752 0.876655 0.154852
H48   H     H_    0.067976 0.621974 0.106261 0.146539
H49   H     H_    0.567944 0.877997 0.106352 0.148143
H50   H     H_    0.540541 0.865224 0.876775 0.156207
H51   H     H_    0.638870 0.981635 0.901190 0.132534
H52   H     H_    0.641020 0.011940 0.128255 0.135071
H53   H     H_    0.151082 0.776371 0.739563 0.186639
H54   H     H_    0.068569 0.838005 0.674830 0.185460
H55   H     H_    0.028526 0.756066 0.422808 0.173423
H56   H     H_    0.285278 0.812832 0.281340 0.215397
H57   H     H_    0.104689 0.812804 0.335059 0.179176
H58   H     H_    0.070265 0.168864 0.481591 0.161145
H59   H     H_    0.056388 0.154596 0.644893 0.171916
H60   H     H_    0.148926 0.214754 0.805516 0.223774
H61   H     H_    0.231791 0.282331 0.772402 0.239282
H62   H     H_    0.731800 0.217616 0.772381 0.239177
H63   H     H_    0.648948 0.285208 0.805475 0.223511
H64   H     H_    0.556360 0.345393 0.644815 0.169535
H65   H     H_    0.570216 0.331127 0.481519 0.158225
H66   H     H_    0.602359 0.686764 0.340039 0.174987
H67   H     H_    0.246001 0.147995 0.310596 0.260007
H68   H     H_    0.542433 0.642709 0.460855 0.163072
H69   H     H_    0.572010 0.663899 0.682733 0.166826
H70   H     H_    0.655630 0.725699 0.741449 0.189148
H71   H     H_    0.958992 0.251677 0.209257 0.312904
H72   H     H_    0.009274 0.234951 0.896774 0.337529
H73   H     H_    0.696776 0.447071 0.866117 0.319620
H74   H     H_    0.731458 0.526168 0.248037 0.315698
H75   H     H_    0.231604 0.973772 0.248365 0.317942
H76   H     H_    0.196808 0.053029 0.866209 0.320626
H77   H     H_    0.509354 0.265065 0.896740 0.337107
H78   H     H_    0.383176 0.278245 0.644772 0.242149
H79   H     H_    0.459000 0.248300 0.209215 0.312178
H80   H     H_    0.905020 0.199795 0.477253 0.159724
N1    N     N_3   0.998760 0.500000 0.138610 -0.103847
N2    N     N_3   0.573031 0.298423 0.573297 -0.474452
N3    N     N_3   0.575335 0.700222 0.433179 -0.476493
N4    N     N_3   0.606248 0.722580 0.666241 -0.455532
N5    N     N_3   0.998760 0.500000 0.861390 -0.106287
N6    N     N_3   0.498760 0.000000 0.138610 -0.105182
N7    N     N_3   0.498760 0.000000 0.861390 -0.106352
N8    N     N_3   0.103365 0.779196 0.661923 -0.462483
N9    N     N_3   0.077467 0.804698 0.429446 -0.481254
N10   N     N_3   0.073061 0.201566 0.573334 -0.474618
N11   N     N_3   0.166885 0.266096 0.742264 -0.402895
N12   N     N_3   0.666887 0.233865 0.742252 -0.402708
O1    O     O_R   0.092530 0.407440 0.616040 -0.615862
O2    O     O_R   0.907330 0.407420 0.383960 -0.573269
O3    O     O_R   0.907330 0.592580 0.383960 -0.627095
O4    O     O_R   0.907330 0.592580 0.616040 -0.571092
O5    O     O_R   0.407330 0.907420 0.616040 -0.573356
O6    O     O_R   0.407330 0.907420 0.383960 -0.622053
O7    O     O_R   0.407330 0.092580 0.383960 -0.574595
O8    O     O_R   0.407330 0.092580 0.616040 -0.621378
O9    O     O_2   0.835194 0.324234 0.099042 -0.619013
O10   O     O_R   0.971842 0.316619 0.199572 -0.792281
O11   O     O_2   0.875375 0.303846 0.830924 -0.657791
O12   O     O_R   0.092530 0.407440 0.383960 -0.613612
O13   O     O_R   0.014475 0.300265 0.914788 -0.834274
O14   O     O_2   0.817554 0.531370 0.786939 -0.637938
O15   O     O_R   0.755126 0.422310 0.902811 -0.782287
O16   O     O_2   0.813560 0.579078 0.066363 -0.689735
O17   O     O_R   0.784356 0.486252 0.233335 -0.812663
O18   O     O_2   0.313520 0.921011 0.066424 -0.689329
O19   O     O_R   0.284423 0.013755 0.233461 -0.813047
O20   O     O_2   0.317618 0.968883 0.786789 -0.638700
O21   O     O_R   0.255153 0.077759 0.902921 -0.781759
O22   O     O_2   0.375439 0.196258 0.830886 -0.658111
O23   O     O_R   0.092530 0.592560 0.383960 -0.650539
O24   O     O_R   0.514552 0.199737 0.914713 -0.834368
O25   O     O_2   0.335213 0.175814 0.098984 -0.619011
O26   O     O_R   0.471868 0.183365 0.199492 -0.792256
O27   O     O_R   0.092530 0.592560 0.616040 -0.622750
O28   O     O_R   0.592530 0.907440 0.616040 -0.627362
O29   O     O_R   0.592530 0.907440 0.383960 -0.643004
O30   O     O_R   0.592530 0.092560 0.383960 -0.615514
O31   O     O_R   0.592530 0.092560 0.616040 -0.616972
O32   O     O_R   0.907330 0.407420 0.616040 -0.620825
Zn1   Zn    Zn3+2 0.999890 0.500000 0.654960 0.960964
Zn2   Zn    Zn3+2 0.999890 0.500000 0.345040 0.949982
Zn3   Zn    Zn3+2 0.499890 0.000000 0.654960 0.961925
Zn4   Zn    Zn3+2 0.499890 0.000000 0.345040 0.955850

loop_
_geom_bond_atom_site_label_1
_geom_bond_atom_site_label_2
_ccdc_geom_bond_type
C60   O32   A    
C7    H23   S    
C2    O3    A    
C55   C59   S    
C51   O15   S    
C14   C31   S    
C24   H29   S    
H69   N4    S    
O4    Zn1   S    
C6    H12   S    
C6    C19   S    
O2    Zn2   S    
C24   H30   S    
H53   N8    S    
N6    Zn4   S    
C40   H36   S    
C23   O29   A    
O12   Zn2   S    
C27   C60   S    
H73   O15   S    
C57   O26   S    
C36   N9    S    
C4    O7    A    
C9    H45   S    
C22   C38   S    
H66   N3    S    
C24   C39   S    
O32   Zn1   S    
C20   H16   S    
C3    C29   S    
C51   C56   S    
C56   N5    S    
H58   N10   S    
C5    C27   S    
C20   C35   S    
C36   N8    S    
C15   H19   S    
C6    C27   S    
C45   C56   S    
C11   H7    S    
H60   N11   S    
H74   O17   S    
C48   N6    S    
C3    O6    A    
C44   N6    S    
H75   O19   S    
H70   N4    S    
C42   H47   S    
C37   N10   S    
C49   O9    D    
C9    C29   S    
C43   H48   S    
C44   H49   S    
H59   N10   S    
C18   H14   S    
C47   H42   S    
C40   N1    S    
C17   H13   S    
C38   N2    S    
H64   N2    S    
C16   H11   S    
C37   N11   S    
C38   N12   S    
H68   N3    S    
O29   Zn4   S    
C44   C46   S    
C8    C21   S    
C9    H5    S    
C54   C59   S    
C10   H6    S    
C25   C29   S    
C46   H41   S    
C47   N7    S    
C25   H31   S    
C41   H46   S    
C47   C48   S    
C54   O20   D    
C13   C30   S    
C8    H34   S    
H72   O13   S    
C11   C30   S    
H77   O24   S    
C19   C33   S    
C1    O12   A    
C5    C18   S    
H71   O10   S    
N7    Zn3   S    
C58   C59   S    
C32   C37   S    
C48   H43   S    
C1    C32   S    
C50   C56   S    
C7    C28   S    
H61   N11   S    
N5    Zn1   S    
C16   H20   S    
H62   N12   S    
O7    Zn4   S    
C11   H67   S    
C9    C14   S    
C45   N1    S    
C55   O22   D    
O28   Zn3   S    
O31   Zn3   S    
C40   H44   S    
C11   C16   S    
C46   N7    S    
C45   C49   S    
H65   N2    S    
C20   H25   S    
H55   N9    S    
C50   O13   S    
C33   C34   S    
C49   O10   S    
C5    H1    S    
C34   O31   A    
O30   Zn4   S    
C22   H27   S    
C1    O1    A    
C7    H3    S    
C23   O28   A    
C53   O18   D    
C8    H4    S    
C12   O23   A    
C21   C35   S    
C40   C41   S    
C48   H52   S    
C39   N3    S    
C26   C30   S    
C22   H28   S    
C22   C27   S    
C46   H50   S    
C12   C31   S    
C8    C28   S    
C14   H9    S    
C41   H37   S    
C43   N1    S    
C42   C43   S    
C19   H24   S    
C10   H56   S    
C54   O21   S    
C5    H80   S    
C26   H35   S    
C15   H10   S    
H76   O21   S    
C25   H32   S    
C2    O4    A    
C50   O11   D    
C24   C28   S    
C43   H39   S    
O3    Zn2   S    
O6    Zn4   S    
C52   O17   S    
C21   H26   S    
C2    C28   S    
C53   C58   S    
C58   N6    S    
C26   C37   S    
C15   C31   S    
O27   Zn1   S    
C16   C32   S    
C23   C35   S    
C33   C38   S    
C45   C52   S    
C13   C17   S    
C10   C15   S    
C13   H78   S    
C6    H2    S    
C42   H38   S    
H54   N8    S    
H79   O26   S    
C52   O16   D    
O23   Zn2   S    
C57   O25   D    
C44   H40   S    
C10   C29   S    
C57   C58   S    
C4    O8    A    
O1    Zn1   S    
C26   H33   S    
C47   H51   S    
C35   C39   S    
C19   H15   S    
C18   H22   S    
C34   O30   A    
C17   H21   S    
H63   N12   S    
C14   H18   S    
C18   C33   S    
C60   O2    A    
C55   O24   S    
O5    Zn3   S    
C53   O19   S    
C25   C36   S    
C12   O27   A    
C41   N5    S    
C39   N4    S    
C7    C20   S    
C21   H17   S    
C3    O5    A    
C17   C32   S    
C31   C36   S    
C51   O14   D    
H57   N9    S    
N1    Zn2   S    
O8    Zn3   S    
C42   N5    S    
C4    C30   S    
C13   H8    S    
C59   N7    S    
