data_mof_unit_47617.cif
_audit_creation_date              2012-12-11T15:14:57-0500
_audit_creation_method            fapswitch 2.2
_symmetry_space_group_name_H-M    P1
_symmetry_Int_Tables_number       1
_space_group_crystal_system       triclinic
_cell_length_a                    11.67185
_cell_length_b                    11.67182
_cell_length_c                    18.701023
_cell_angle_alpha                 89.999917
_cell_angle_beta                  90.000086
_cell_angle_gamma                 120.0
_cell_volume                      2206.34932935

loop_
_atom_site_label
_atom_site_type_symbol
_atom_type_description
_atom_site_fract_x
_atom_site_fract_y
_atom_site_fract_z
_atom_type_partial_charge
C1    C     C_R   0.534811 0.433452 0.639124 0.522551
C2    C     C_R   0.430950 0.537490 0.362127 0.547246
C3    C     C_R   0.462510 0.893461 0.137873 0.547245
C4    C     C_R   0.106539 0.569049 0.362127 0.547249
C5    C     C_3   0.408985 0.002660 0.475943 0.035466
C6    C     C_3   0.593678 0.591019 0.024057 0.035468
C7    C     C_3   0.997336 0.406322 0.475943 0.035465
C8    C     C_3   0.408982 0.002661 0.024057 0.035467
C9    C     C_3   0.593677 0.591011 0.475944 0.035458
C10   C     C_3   0.997340 0.406322 0.024057 0.035468
C11   C     C_3   0.071846 0.475887 0.954771 -0.000690
C12   C     C_R   0.898646 0.465191 0.860875 0.522556
C13   C     C_3   0.524115 0.595957 0.545229 -0.000686
C14   C     C_3   0.404041 0.928154 0.954771 -0.000690
C15   C     C_3   0.071842 0.475885 0.545229 -0.000688
C16   C     C_3   0.524112 0.595961 0.954771 -0.000689
C17   C     C_3   0.404045 0.928156 0.545230 -0.000691
C18   C     C_3   0.542687 0.122879 0.498670 -0.180445
C19   C     C_3   0.580196 0.457318 0.001327 -0.180428
C20   C     C_3   0.877119 0.419808 0.498672 -0.180440
C21   C     C_3   0.542683 0.122880 0.001328 -0.180429
C22   C     C_3   0.580190 0.457308 0.498671 -0.180433
C23   C     C_R   0.566548 0.101359 0.639124 0.522553
C24   C     C_3   0.877121 0.419804 0.001328 -0.180429
C25   C     C_3   0.133689 0.610631 0.993726 -0.168214
C26   C     C_3   0.389370 0.523059 0.506275 -0.168216
C27   C     C_3   0.476941 0.866311 0.993727 -0.168214
C28   C     C_3   0.133689 0.610629 0.506275 -0.168221
C29   C     C_3   0.389369 0.523059 0.993727 -0.168215
C30   C     C_3   0.476943 0.866310 0.506275 -0.168233
C31   C     C_3   0.535515 0.045711 0.567471 -0.050230
C32   C     C_3   0.510197 0.464491 0.932528 -0.050231
C33   C     C_3   0.954289 0.489802 0.567472 -0.050231
C34   C     C_R   0.534808 0.433457 0.860875 0.522562
C35   C     C_3   0.535510 0.045709 0.932528 -0.050231
C36   C     C_3   0.510197 0.464485 0.567471 -0.050228
C37   C     C_3   0.954291 0.489802 0.932528 -0.050231
C38   C     C_3   0.057271 0.540250 0.062593 -0.053177
C39   C     C_3   0.459748 0.517018 0.437408 -0.053179
C40   C     C_3   0.482980 0.942730 0.062593 -0.053176
C41   C     C_3   0.057271 0.540251 0.437408 -0.053180
C42   C     C_3   0.459750 0.517021 0.062593 -0.053177
C43   C     C_3   0.482979 0.942726 0.437408 -0.053176
C44   C     C_3   0.608844 0.984603 0.530715 0.273861
C45   C     C_R   0.898647 0.465191 0.639128 0.522575
C46   C     C_3   0.375761 0.391159 0.969285 0.273859
C47   C     C_3   0.015398 0.624241 0.530717 0.273859
C48   C     C_3   0.608842 0.984604 0.969285 0.273859
C49   C     C_3   0.375758 0.391156 0.530716 0.273865
C50   C     C_3   0.015396 0.624239 0.969285 0.273860
C51   C     C_3   0.941769 0.558020 0.037843 0.274400
C52   C     C_3   0.441974 0.383745 0.462158 0.274404
C53   C     C_3   0.616251 0.058232 0.037843 0.274400
C54   C     C_3   0.941772 0.558025 0.462158 0.274404
C55   C     C_3   0.441980 0.383750 0.037842 0.274400
C56   C     C_R   0.566544 0.101354 0.860875 0.522558
C57   C     C_3   0.616252 0.058227 0.462156 0.274410
C58   C     C_3   0.824530 0.066047 0.578245 0.036959
C59   C     C_3   0.241520 0.175471 0.921756 0.036959
C60   C     C_3   0.933955 0.758483 0.578246 0.036963
C61   C     C_3   0.824529 0.066051 0.921756 0.036958
C62   C     C_3   0.241517 0.175469 0.578246 0.036958
C63   C     C_3   0.933949 0.758479 0.921756 0.036958
C64   C     C_3   0.972680 0.749875 0.091906 0.006152
C65   C     C_3   0.250117 0.222804 0.408094 0.006154
C66   C     C_3   0.777194 0.027320 0.091907 0.006152
C67   C     C_R   0.430950 0.537490 0.137873 0.547246
C68   C     C_3   0.972695 0.749887 0.408095 0.006173
C69   C     C_3   0.250125 0.222806 0.091906 0.006152
C70   C     C_3   0.777195 0.027313 0.408093 0.006157
C71   C     C_2   0.286361 0.992822 0.447613 0.572061
C72   C     C_2   0.706461 0.713645 0.052387 0.572058
C73   C     C_2   0.007174 0.293538 0.447611 0.572062
C74   C     C_2   0.286355 0.992817 0.052387 0.572057
C75   C     C_2   0.706461 0.713627 0.447608 0.572070
C76   C     C_2   0.007184 0.293539 0.052387 0.572056
C77   C     C_2   0.128675 0.429426 0.896436 0.690141
C78   C     C_R   0.462509 0.893457 0.362127 0.547243
C79   C     C_2   0.570581 0.699245 0.603565 0.690143
C80   C     C_2   0.300751 0.871326 0.896436 0.690142
C81   C     C_2   0.128670 0.429422 0.603563 0.690137
C82   C     C_2   0.570574 0.699250 0.896436 0.690139
C83   C     C_2   0.300758 0.871325 0.603565 0.690133
C84   C     C_R   0.106540 0.569050 0.137873 0.547243
Cr1   Cr    Cr6+3 0.769930 0.543130 0.750000 1.027052
Cr2   Cr    Cr6+3 0.773200 0.230070 0.750000 1.027054
Cr3   Cr    Cr6+3 0.456870 0.226800 0.750000 1.027058
Cr4   Cr    Cr6+3 0.543130 0.769930 0.250000 1.026319
Cr5   Cr    Cr6+3 0.230070 0.773200 0.250000 1.026341
Cr6   Cr    Cr6+3 0.226800 0.456870 0.250000 1.026337
H1    H     H_    0.559765 0.223787 0.495998 0.127017
H2    H     H_    0.236062 0.689392 0.502962 0.119773
H3    H     H_    0.310605 0.546668 0.997040 0.119776
H4    H     H_    0.453331 0.763936 0.502968 0.119778
H5    H     H_    0.834437 0.161542 0.560691 0.155025
H6    H     H_    0.902398 0.049015 0.556141 0.177363
H7    H     H_    0.842854 0.068673 0.636509 0.183644
H8    H     H_    0.146620 0.097606 0.943861 0.177366
H9    H     H_    0.327107 0.165564 0.939312 0.155023
H10   H     H_    0.225822 0.157140 0.863492 0.183645
H11   H     H_    0.838461 0.672895 0.560693 0.155027
H12   H     H_    0.664025 0.440237 0.003993 0.127006
H13   H     H_    0.950986 0.853381 0.556140 0.177361
H14   H     H_    0.931328 0.774184 0.636509 0.183642
H15   H     H_    0.902394 0.049014 0.943861 0.177367
H16   H     H_    0.834437 0.161544 0.939312 0.155022
H17   H     H_    0.842860 0.068683 0.863493 0.183645
H18   H     H_    0.225819 0.157141 0.636509 0.183640
H19   H     H_    0.327104 0.165562 0.560691 0.155027
H20   H     H_    0.146617 0.097604 0.556142 0.177362
H21   H     H_    0.838456 0.672893 0.939312 0.155022
H22   H     H_    0.931316 0.774177 0.863492 0.183645
H23   H     H_    0.776210 0.335978 0.496002 0.127010
H24   H     H_    0.950986 0.853380 0.943860 0.177366
H25   H     H_    0.955130 0.816091 0.058594 0.155520
H26   H     H_    0.075415 0.778503 0.080460 0.170152
H27   H     H_    0.968067 0.774949 0.148684 0.149973
H28   H     H_    0.225042 0.193117 0.351316 0.149962
H29   H     H_    0.221493 0.296914 0.419540 0.170153
H30   H     H_    0.183902 0.139038 0.441406 0.155526
H31   H     H_    0.860960 0.044870 0.058594 0.155520
H32   H     H_    0.703087 0.924585 0.080460 0.170153
H33   H     H_    0.806881 0.031933 0.148684 0.149973
H34   H     H_    0.559764 0.223790 0.003993 0.127007
H35   H     H_    0.075428 0.778509 0.419542 0.170148
H36   H     H_    0.955141 0.816103 0.441405 0.155535
H37   H     H_    0.968087 0.774967 0.351318 0.149955
H38   H     H_    0.183910 0.139040 0.058594 0.155520
H39   H     H_    0.221498 0.296913 0.080459 0.170152
H40   H     H_    0.225051 0.193118 0.148684 0.149974
H41   H     H_    0.703088 0.924578 0.419539 0.170145
H42   H     H_    0.860961 0.044866 0.441406 0.155535
H43   H     H_    0.806885 0.031925 0.351316 0.149951
H44   H     H_    0.179685 0.981759 0.359975 0.268736
H45   H     H_    0.664019 0.440227 0.496004 0.127002
H46   H     H_    0.802078 0.820325 0.140024 0.268733
H47   H     H_    0.018236 0.197930 0.359971 0.268745
H48   H     H_    0.179676 0.981753 0.140024 0.268735
H49   H     H_    0.802040 0.820283 0.359955 0.268745
H50   H     H_    0.018247 0.197922 0.140024 0.268734
H51   H     H_    0.270475 0.474719 0.822595 0.363869
H52   H     H_    0.525287 0.795718 0.677426 0.363858
H53   H     H_    0.204242 0.729525 0.822595 0.363868
H54   H     H_    0.270467 0.474712 0.677407 0.363877
H55   H     H_    0.525282 0.795761 0.822596 0.363865
H56   H     H_    0.776211 0.335975 0.003994 0.127008
H57   H     H_    0.204262 0.729525 0.677409 0.363868
H58   H     H_    0.236062 0.689395 0.997040 0.119777
H59   H     H_    0.310608 0.546670 0.502962 0.119775
H60   H     H_    0.453332 0.763938 0.997040 0.119776
O1    O     O_R   0.913270 0.574260 0.668550 -0.516383
O2    O     O_R   0.574260 0.913270 0.331450 -0.510631
O3    O     O_R   0.086730 0.660990 0.168550 -0.510626
O4    O     O_R   0.339010 0.425740 0.331450 -0.510623
O5    O     O_R   0.640160 0.530400 0.673300 -0.482198
O6    O     O_R   0.890240 0.359840 0.826700 -0.482194
O7    O     O_R   0.469600 0.109760 0.673300 -0.482190
O8    O     O_R   0.640160 0.530400 0.826700 -0.482195
O9    O     O_R   0.890240 0.359840 0.673300 -0.482203
O10   O     O_R   0.469600 0.109760 0.826700 -0.482192
O11   O     O_R   0.530400 0.640160 0.173300 -0.436968
O12   O     O_R   0.660990 0.086730 0.831450 -0.516375
O13   O     O_R   0.359840 0.890240 0.326700 -0.436971
O14   O     O_R   0.109760 0.469600 0.173300 -0.436967
O15   O     O_R   0.530400 0.640160 0.326700 -0.437000
O16   O     O_R   0.359840 0.890240 0.173300 -0.436968
O17   O     O_R   0.109760 0.469600 0.326700 -0.436977
O18   O     O_3   0.666667 0.333333 0.750000 -0.384152
O19   O     O_3   0.333333 0.666667 0.250000 -0.418128
O20   O     O_3   0.701642 0.955454 0.561566 -0.521834
O21   O     O_3   0.253819 0.298362 0.938430 -0.521832
O22   O     O_3   0.044546 0.746184 0.561570 -0.521834
O23   O     O_R   0.425740 0.339010 0.668550 -0.516372
O24   O     O_3   0.701638 0.955458 0.938430 -0.521832
O25   O     O_3   0.253815 0.298359 0.561570 -0.521833
O26   O     O_3   0.044542 0.746181 0.938430 -0.521831
O27   O     O_3   0.881259 0.613058 0.079988 -0.500224
O28   O     O_3   0.386934 0.268197 0.420012 -0.500220
O29   O     O_3   0.731799 0.118742 0.079988 -0.500225
O30   O     O_3   0.881269 0.613069 0.420011 -0.500200
O31   O     O_3   0.386942 0.268201 0.079987 -0.500225
O32   O     O_3   0.731798 0.118734 0.420010 -0.500215
O33   O     O_2   0.193277 0.959052 0.487675 -0.595538
O34   O     O_R   0.913270 0.574260 0.831450 -0.516374
O35   O     O_R   0.274390 0.016107 0.375673 -0.615262
O36   O     O_2   0.765774 0.806730 0.012326 -0.595534
O37   O     O_R   0.741717 0.725618 0.124327 -0.615273
O38   O     O_2   0.040948 0.234225 0.487670 -0.595541
O39   O     O_R   0.983887 0.258284 0.375671 -0.615262
O40   O     O_2   0.193271 0.959044 0.012326 -0.595534
O41   O     O_R   0.274382 0.016099 0.124327 -0.615272
O42   O     O_2   0.765777 0.806721 0.487663 -0.595541
O43   O     O_R   0.741718 0.725574 0.375669 -0.615223
O44   O     O_2   0.040956 0.234226 0.012326 -0.595534
O45   O     O_R   0.660990 0.086730 0.668550 -0.516369
O46   O     O_R   0.983902 0.258283 0.124327 -0.615274
O47   O     O_2   0.067210 0.314880 0.875804 -0.482628
O48   O     O_R   0.245603 0.517781 0.862090 -0.608494
O49   O     O_2   0.685132 0.752340 0.624188 -0.482638
O50   O     O_R   0.482223 0.727788 0.637929 -0.608484
O51   O     O_2   0.247669 0.932791 0.875804 -0.482627
O52   O     O_R   0.272176 0.754397 0.862090 -0.608494
O53   O     O_2   0.067207 0.314875 0.624194 -0.482633
O54   O     O_R   0.245596 0.517776 0.637912 -0.608490
O55   O     O_2   0.685120 0.752332 0.875804 -0.482631
O56   O     O_R   0.425740 0.339010 0.831450 -0.516376
O57   O     O_R   0.482219 0.727825 0.862090 -0.608495
O58   O     O_2   0.247670 0.932784 0.624198 -0.482618
O59   O     O_R   0.272196 0.754401 0.637913 -0.608498
O60   O     O_R   0.574260 0.913270 0.168550 -0.510628
O61   O     O_R   0.086730 0.660990 0.331450 -0.510623
O62   O     O_R   0.339010 0.425740 0.168550 -0.510627

loop_
_geom_bond_atom_site_label_1
_geom_bond_atom_site_label_2
_ccdc_geom_bond_type
C27   C48   S    
C21   C53   S    
C13   C79   S    
C28   C47   S    
C13   C26   S    
C64   H26   S    
C29   C42   S    
C33   C45   S    
H48   O41   S    
C45   O9    A    
C49   O25   S    
C47   O22   S    
C78   O2    A    
C63   O26   S    
C7    C73   S    
Cr3   O10   S    
C43   C78   S    
C6    C72   S    
C6    C19   S    
C1    O23   A    
C8    C74   S    
C4    O61   A    
C17   C30   S    
C18   H1    S    
C58   O20   S    
C71   O35   S    
C20   H23   S    
Cr6   O17   S    
C19   H12   S    
C9    C22   S    
C5    C17   S    
C4    C41   S    
C35   C48   S    
Cr4   O11   S    
C56   O12   A    
C28   C41   S    
C9    C39   S    
C59   H9    S    
C46   O21   S    
C50   O26   S    
Cr1   O5    S    
C63   H22   S    
C11   C37   S    
C58   H6    S    
C25   C50   S    
C57   O32   S    
Cr2   O6    S    
C11   C77   S    
Cr1   O8    S    
H54   O54   S    
C63   H24   S    
C10   C76   S    
C2    C39   S    
C70   O32   S    
C80   O52   S    
Cr3   O18   S    
C69   H38   S    
C69   H40   S    
C46   C55   S    
C70   H43   S    
C65   H28   S    
C66   H32   S    
C25   C38   S    
C74   O40   D    
Cr2   O12   S    
C14   C80   S    
C14   C27   S    
Cr6   O4    S    
C60   H13   S    
C76   O46   S    
Cr2   O9    S    
C27   C40   S    
C84   O14   A    
C24   C51   S    
C7    C15   S    
C39   C52   S    
C5    C43   S    
C78   O13   A    
C2    O4    A    
C64   H25   S    
Cr4   O60   S    
C59   H10   S    
Cr4   O2    S    
H44   O35   S    
C30   C44   S    
C58   H7    S    
H52   O50   S    
C12   O6    A    
C59   O21   S    
C19   C32   S    
C53   O29   S    
C16   C82   S    
C82   O57   S    
C7    C20   S    
C8    C21   S    
C81   O54   S    
C48   O24   S    
C55   O31   S    
C48   C53   S    
Cr3   O23   S    
C79   O49   D    
C31   C44   S    
C60   O22   S    
C71   O33   D    
Cr2   O18   S    
C13   C36   S    
C15   C81   S    
C26   C49   S    
C14   C35   S    
C38   C51   S    
C10   C24   S    
C16   C29   S    
C6    C16   S    
C68   O30   S    
C34   O56   A    
C64   H27   S    
Cr3   O7    S    
Cr6   O14   S    
Cr5   O61   S    
C32   C34   S    
C58   H5    S    
Cr1   O1    S    
Cr3   O56   S    
C83   O58   D    
C42   C55   S    
C8    C40   S    
C84   O3    A    
C67   O11   A    
C18   C57   S    
Cr5   O3    S    
C80   O51   D    
C62   H20   S    
C44   C57   S    
C49   C52   S    
C70   H42   S    
C50   C51   S    
C65   H29   S    
C66   H31   S    
C5    C71   S    
C67   O62   A    
C28   H2    S    
Cr6   O62   S    
C61   H16   S    
H50   O46   S    
C2    O15   A    
C72   O36   D    
C83   O59   S    
C26   C39   S    
C76   O44   D    
C47   C54   S    
H47   O39   S    
C20   C33   S    
C75   O43   S    
C20   C54   S    
C17   C83   S    
C3    C40   S    
Cr4   O15   S    
Cr1   O34   S    
H46   O37   S    
C6    C42   S    
C42   C67   S    
C17   C31   S    
C30   C43   S    
C81   O53   D    
C44   O20   S    
C16   C32   S    
H51   O48   S    
C60   H11   S    
C68   H36   S    
H55   O57   S    
C73   O38   D    
C61   H15   S    
C22   C52   S    
C77   O48   S    
C19   C55   S    
C24   C37   S    
Cr2   O45   S    
C9    C13   S    
C8    C14   S    
C79   O50   S    
C34   O8    A    
C38   C84   S    
C35   C56   S    
Cr1   O18   S    
C32   C46   S    
C26   H59   S    
C61   O24   S    
Cr4   O19   S    
C15   C33   S    
C1    O5    A    
C69   O31   S    
C4    O17   A    
C5    C18   S    
C27   H60   S    
C22   C36   S    
C66   O29   S    
C29   C46   S    
C12   C37   S    
C22   H45   S    
C10   C38   S    
C21   H34   S    
C21   C35   S    
Cr5   O19   S    
C30   H4    S    
C60   H14   S    
C29   H3    S    
C64   O27   S    
C15   C28   S    
C12   O34   A    
C62   H19   S    
H57   O59   S    
C3    O60   A    
C69   H39   S    
C33   C47   S    
C62   O25   S    
C23   O7    A    
Cr6   O19   S    
C37   C50   S    
C70   H41   S    
C65   H30   S    
C54   O30   S    
C75   O42   D    
C25   H58   S    
C7    C41   S    
Cr5   O16   S    
C63   H21   S    
C61   H17   S    
C52   O28   S    
C41   C54   S    
C10   C11   S    
C43   C57   S    
C72   O37   S    
C68   H37   S    
C74   O41   S    
H53   O52   S    
C62   H18   S    
C1    C36   S    
C56   O10   A    
C40   C53   S    
C65   O28   S    
C23   O45   A    
C59   H8    S    
C11   C25   S    
C66   H33   S    
C24   H56   S    
C18   C31   S    
C9    C75   S    
C45   O1    A    
C51   O27   S    
C77   O47   D    
C68   H35   S    
Cr5   O13   S    
C82   O55   D    
C73   O39   S    
C36   C49   S    
H49   O43   S    
C3    O16   A    
C23   C31   S    
