data_mof_unit_54313.cif
_audit_creation_date              2012-10-26T20:40:14-0400
_audit_creation_method            fapswitch 2.2
_symmetry_space_group_name_H-M    P1
_symmetry_Int_Tables_number       1
_space_group_crystal_system       triclinic
_cell_length_a                    15.024707
_cell_length_b                    10.788323
_cell_length_c                    9.746379
_cell_angle_alpha                 87.881553
_cell_angle_beta                  89.126792
_cell_angle_gamma                 95.710206
_cell_volume                      1570.60624612

loop_
_atom_site_label
_atom_site_type_symbol
_atom_type_description
_atom_site_fract_x
_atom_site_fract_y
_atom_site_fract_z
_atom_type_partial_charge
Br1   Br    Br    0.778243 0.769180 0.500808 -0.597867
Br2   Br    Br    0.299490 0.806441 0.980831 -0.598958
Br3   Br    Br    0.664441 0.920512 0.755494 -0.536832
C1    C     C_R   0.497772 0.261158 0.503417 0.510687
C2    C     C_R   0.178688 0.379078 0.545373 -0.017860
C3    C     C_R   0.232864 0.488564 0.502224 0.026700
C4    C     C_R   0.329473 0.495392 0.500974 0.517911
C5    C     C_R   0.195329 0.594356 0.455306 -0.123901
C6    C     C_R   0.458074 0.094043 0.766447 -0.126946
C7    C     C_R   0.411921 0.021938 0.871797 -0.112718
C8    C     C_R   0.376311 0.900682 0.848838 0.171380
C9    C     C_R   0.395072 0.847685 0.725786 -0.053823
C10   C     C_R   0.443493 0.918478 0.619825 0.017040
C11   C     C_R   0.464731 0.048101 0.632606 0.044564
C12   C     C_R   0.916996 0.604065 0.453052 0.049254
C13   C     C_R   0.487525 0.123238 0.509989 -0.006496
C14   C     C_R   0.483085 0.065438 0.382906 -0.136121
C15   C     C_R   0.465893 0.937055 0.375606 -0.052143
C16   C     C_R   0.487592 0.734026 0.498255 0.572753
C17   C     C_R   0.464513 0.863644 0.496734 0.019971
C18   C     C_R   0.598840 0.703174 0.115939 -0.010533
C19   C     C_R   0.610164 0.809100 0.023673 -0.025576
C20   C     C_R   0.621299 0.787778 0.883499 0.192222
C21   C     C_R   0.621572 0.663826 0.846492 0.116916
C22   C     C_R   0.559332 0.580670 0.920051 0.101717
C23   C     C_R   0.934330 0.281422 0.602435 -0.010018
C24   C     C_R   0.554414 0.590075 0.066463 0.113398
C25   C     C_R   0.442072 0.419542 0.078429 0.139677
C26   C     C_R   0.439583 0.423783 0.930443 0.113298
C27   C     C_R   0.670903 0.503655 0.499003 0.586454
C28   C     C_R   0.824638 0.610762 0.473958 0.087574
C29   C     C_R   0.767792 0.500083 0.496947 0.008779
C30   C     C_R   0.802996 0.384792 0.517204 -0.055957
C31   C     C_R   0.895957 0.384318 0.539465 0.037998
C32   C     C_R   0.953165 0.492417 0.496878 0.000346
C33   C     C_3   0.427341 0.884509 0.246623 -0.362946
C34   C     C_R   0.027194 0.279467 0.600038 -0.113729
C35   C     C_3   0.374646 0.326144 0.154110 -0.327785
C36   C     C_3   0.674707 0.698832 0.212673 -0.327852
C37   C     C_3   0.629417 0.938972 0.075634 -0.381098
C38   C     C_3   0.714692 0.621943 0.840900 -0.349511
C39   C     C_3   0.741924 0.265831 0.499568 -0.375029
C40   C     C_3   0.362089 0.351389 0.861816 -0.350637
C41   C     C_3   0.881600 0.180899 0.691057 -0.380148
C42   C     C_3   0.220152 0.260001 0.583153 -0.407518
C43   C     C_3   0.943573 0.811325 0.308771 -0.362351
C44   C     C_R   0.084461 0.381305 0.547328 0.025811
C45   C     C_R   0.046858 0.489550 0.499016 0.038256
C46   C     C_R   0.103180 0.595332 0.452205 0.004694
C47   C     C_R   0.067392 0.700479 0.398935 -0.103459
C48   C     C_R   0.975201 0.705116 0.394004 0.026584
Cu1   Cu    Cu3+1 0.499990 0.499990 0.640660 0.938894
Cu2   Cu    Cu3+1 0.500010 0.500010 0.359340 0.922466
H1    H     H_    0.487751 0.183625 0.794892 0.157270
H2    H     H_    0.471543 0.823989 0.197510 0.197359
H3    H     H_    0.305709 0.343454 0.124733 0.116414
H4    H     H_    0.387530 0.230269 0.128026 0.072503
H5    H     H_    0.373786 0.325874 0.265217 0.199206
H6    H     H_    0.706525 0.611106 0.202581 0.148505
H7    H     H_    0.729989 0.772845 0.187830 0.123020
H8    H     H_    0.651259 0.715697 0.316685 0.230877
H9    H     H_    0.698940 0.976849 0.047226 0.168228
H10   H     H_    0.581896 0.000704 0.030177 0.157670
H11   H     H_    0.622109 0.939548 0.189103 0.145939
H12   H     H_    0.401795 0.062422 0.969645 0.110927
H13   H     H_    0.756727 0.675947 0.761783 0.217389
H14   H     H_    0.747981 0.636706 0.940826 0.094055
H15   H     H_    0.713823 0.521005 0.822395 0.146514
H16   H     H_    0.698087 0.244248 0.591830 0.162301
H17   H     H_    0.698925 0.276610 0.409120 0.147617
H18   H     H_    0.779738 0.185904 0.476502 0.158473
H19   H     H_    0.378425 0.325580 0.758379 0.189580
H20   H     H_    0.340806 0.260280 0.913636 0.075180
H21   H     H_    0.303994 0.407404 0.859113 0.155675
H22   H     H_    0.819049 0.212756 0.732495 0.159293
H23   H     H_    0.366567 0.753184 0.710273 0.162428
H24   H     H_    0.867357 0.094973 0.632697 0.182504
H25   H     H_    0.920552 0.156786 0.782599 0.135040
H26   H     H_    0.293046 0.266208 0.561418 0.126598
H27   H     H_    0.208639 0.235898 0.694133 0.131017
H28   H     H_    0.189665 0.182671 0.521760 0.131194
H29   H     H_    0.880959 0.780756 0.255684 0.157869
H30   H     H_    0.934739 0.891492 0.374059 0.180168
H31   H     H_    0.993164 0.844014 0.226208 0.124831
H32   H     H_    0.054227 0.198758 0.646050 0.122206
H33   H     H_    0.238648 0.676440 0.420329 0.108513
H34   H     H_    0.111838 0.778665 0.356979 0.123740
H35   H     H_    0.488586 0.120386 0.287354 0.135348
H36   H     H_    0.362206 0.829676 0.271472 0.173873
H37   H     H_    0.414884 0.959724 0.171436 0.137946
N1    N     N_R   0.500860 0.501210 0.147910 -0.226925
N2    N     N_R   0.500890 0.501290 0.852040 -0.244627
O1    O     O_R   0.499990 0.319640 0.618810 -0.534874
O2    O     O_R   0.500000 0.319660 0.381240 -0.524856
O3    O     O_R   0.370250 0.499960 0.618800 -0.523783
O4    O     O_R   0.370260 0.499980 0.381230 -0.510663
O5    O     O_R   0.500000 0.680340 0.618760 -0.473013
O6    O     O_R   0.500010 0.680360 0.381190 -0.508969
O7    O     O_R   0.629740 0.500020 0.618770 -0.484180
O8    O     O_R   0.629750 0.500040 0.381200 -0.512910

loop_
_geom_bond_atom_site_label_1
_geom_bond_atom_site_label_2
_ccdc_geom_bond_type
C33   H36   S    
C40   H20   S    
C40   H19   S    
C14   H35   S    
Br3   C20   S    
C16   C17   S    
C39   H17   S    
C16   O5    A    
C23   C41   S    
C38   H14   S    
C4    O4    A    
C2    C44   A    
C37   H10   S    
C30   C39   S    
C34   H32   S    
C41   H24   S    
C2    C3    A    
C32   C45   A    
C27   O8    A    
Cu1   O5    S    
Br1   C28   S    
C37   H9    S    
Cu1   O3    S    
C31   C32   A    
C35   H5    S    
C23   C31   A    
C28   C29   A    
C13   C14   A    
Cu2   N1    S    
C20   C21   A    
C24   N1    A    
C12   C48   A    
C34   C44   A    
C6    C7    A    
C15   C17   A    
C40   H21   S    
C18   C24   A    
C19   C37   S    
C43   H29   S    
C18   C19   A    
C26   C40   S    
Cu2   O4    S    
C21   C38   S    
Br2   C8    S    
C12   C32   A    
C16   O6    A    
C14   C15   A    
C38   H15   S    
Cu2   O8    S    
C36   H8    S    
C21   C22   A    
C3    C5    A    
C2    C42   S    
C43   C48   S    
C39   H16   S    
C43   H30   S    
C1    C13   S    
C41   H22   S    
C6    C11   A    
C35   H4    S    
C44   C45   A    
C18   C36   S    
C25   C35   S    
C36   H6    S    
C47   C48   A    
Cu1   O1    S    
C42   H26   S    
C38   H13   S    
C47   H34   S    
C43   H31   S    
C45   C46   A    
C9    H23   S    
C11   C13   A    
Cu1   N2    S    
Cu1   Cu2   S    
C7    H12   S    
C33   H37   S    
C25   C26   A    
C22   N2    A    
C10   C17   A    
Cu2   O2    S    
C42   H28   S    
C8    C9    A    
C23   C34   A    
C12   C28   A    
C3    C4    S    
Cu2   O6    S    
C22   C24   A    
C4    O3    A    
C42   H27   S    
Cu1   O7    S    
C37   H11   S    
C29   C30   A    
C41   H25   S    
C33   H2    S    
C27   C29   S    
C1    O2    A    
C36   H7    S    
C27   O7    A    
C39   H18   S    
C30   C31   A    
C25   N1    A    
C5    H33   S    
C7    C8    A    
C1    O1    A    
C35   H3    S    
C9    C10   A    
C46   C47   A    
C19   C20   A    
C6    H1    S    
C10   C11   A    
C15   C33   S    
C5    C46   A    
C26   N2    A    
