data_mof_unit_50846.cif
_audit_creation_date              2012-12-10T17:24:52-0500
_audit_creation_method            fapswitch 2.2
_symmetry_space_group_name_H-M    P1
_symmetry_Int_Tables_number       1
_space_group_crystal_system       triclinic
_cell_length_a                    10.221914
_cell_length_b                    10.579722
_cell_length_c                    19.176943
_cell_angle_alpha                 92.472496
_cell_angle_beta                  79.773632
_cell_angle_gamma                 95.601418
_cell_volume                      2030.4938569

loop_
_atom_site_label
_atom_site_type_symbol
_atom_type_description
_atom_site_fract_x
_atom_site_fract_y
_atom_site_fract_z
_atom_type_partial_charge
C1    C     C_R   0.556501 0.734779 0.493483 0.747523
C2    C     C_R   0.443822 0.265331 0.503422 0.792727
C3    C     C_2   0.588731 0.870724 0.477953 0.356177
C4    C     C_2   0.412556 0.127974 0.496935 0.328199
C5    C     C_2   0.494123 0.927969 0.454587 -0.193175
C6    C     C_2   0.500949 0.064606 0.452189 -0.218229
C7    C     C_2   0.920952 0.496124 0.514981 0.580103
C8    C     C_2   0.066934 0.469464 0.506671 0.502958
C9    C     C_R   0.498245 0.503275 0.634585 0.910829
C10   C     C_R   0.504023 0.504518 0.364977 0.846197
C11   C     C_R   0.407699 0.584605 0.757601 0.086627
C12   C     C_R   0.636934 0.531400 0.239151 0.081104
C13   C     C_R   0.389520 0.565632 0.831640 0.033093
C14   C     C_R   0.635049 0.515407 0.165240 0.029748
C15   C     C_R   0.469455 0.481596 0.856655 -0.088551
C16   C     C_R   0.509825 0.497088 0.142507 -0.083722
C17   C     C_R   0.554173 0.407405 0.810173 0.540971
C18   C     C_R   0.389295 0.492967 0.190226 0.549342
C19   C     C_R   0.559429 0.415311 0.737916 -0.352650
C20   C     C_R   0.392781 0.494775 0.262160 -0.372971
C21   C     C_R   0.490190 0.504045 0.711203 -0.166148
C22   C     C_R   0.513118 0.511365 0.287616 -0.163796
C23   C     C_R   0.501338 0.490906 0.068134 0.340234
C24   C     C_R   0.479964 0.483274 0.930788 0.316687
H1    H     H_    0.619092 0.352090 0.702462 0.178545
H2    H     H_    0.299893 0.482099 0.298352 0.164944
H3    H     H_    0.585101 0.113285 0.417935 0.134496
H4    H     H_    0.399837 0.877234 0.447755 0.142528
N1    N     N_R   0.446681 0.377116 0.969388 -0.121065
N2    N     N_R   0.534710 0.596754 0.029475 -0.192459
N3    N     N_R   0.456865 0.381050 0.037522 -0.135613
N4    N     N_R   0.524859 0.592749 0.961485 -0.199701
N5    N     N_2   0.842710 0.448880 0.471430 0.041896
N6    N     N_2   0.157290 0.551120 0.528570 0.047615
O1    O     O_R   0.431050 0.692470 0.505750 -0.603009
O2    O     O_R   0.568950 0.307530 0.494250 -0.638170
O3    O     O_R   0.651120 0.659650 0.487410 -0.580639
O4    O     O_R   0.348880 0.340350 0.512590 -0.581125
O5    O     O_R   0.389930 0.516430 0.611030 -0.607213
O6    O     O_R   0.610070 0.483570 0.388970 -0.614127
O7    O     O_R   0.610000 0.483610 0.592700 -0.571652
O8    O     O_R   0.390000 0.516390 0.407300 -0.645715
Zn1   Zn    Zn3+2 0.353060 0.521920 0.512240 0.976822
Zn2   Zn    Zn3+2 0.646940 0.478080 0.487760 0.983710
C25   C     C_3   0.347045 0.694017 0.728607 -0.399522
C26   C     C_3   0.455875 0.794806 0.695414 -0.405695
C27   C     C_3   0.395779 0.900565 0.663706 -0.739382
H5    H     H_    0.339158 0.860518 0.622229 0.306667
H6    H     H_    0.327819 0.949814 0.705508 0.253450
H7    H     H_    0.476826 0.970955 0.639203 0.258284
H8    H     H_    0.512375 0.836515 0.736654 0.231162
H9    H     H_    0.527116 0.751676 0.652875 0.212579
H10   H     H_    0.281606 0.658340 0.690501 0.236604
H11   H     H_    0.279384 0.743862 0.769566 0.201723
C28   C     C_3   0.767690 0.575364 0.265328 -0.392703
C29   C     C_3   0.764156 0.709228 0.299691 -0.296735
C30   C     C_3   0.885665 0.744278 0.335054 -0.863023
H12   H     H_    0.979155 0.741269 0.295606 0.235685
H13   H     H_    0.881486 0.841783 0.358672 0.266231
H14   H     H_    0.886453 0.677056 0.377814 0.281241
H15   H     H_    0.763017 0.779227 0.258249 0.205506
H16   H     H_    0.672916 0.716562 0.340082 0.215113
H17   H     H_    0.792277 0.505140 0.300908 0.247158
H18   H     H_    0.855954 0.580028 0.222902 0.181114
C31   C     C_3   0.283077 0.630052 0.883775 -0.387283
C32   C     C_3   0.141659 0.575299 0.875215 -0.365665
C33   C     C_3   0.035614 0.646846 0.922831 -0.886533
H19   H     H_    0.047513 0.643701 0.979158 0.265404
H20   H     H_    0.043815 0.747472 0.907024 0.267154
H21   H     H_    0.934749 0.602283 0.917712 0.246836
H22   H     H_    0.126645 0.580027 0.819503 0.219578
H23   H     H_    0.127391 0.473641 0.889768 0.228933
H24   H     H_    0.290426 0.616078 0.939778 0.218737
H25   H     H_    0.297220 0.734671 0.878191 0.202453
C34   C     C_3   0.764194 0.512059 0.110704 -0.414313
C35   C     C_3   0.829862 0.388719 0.115190 -0.360199
C36   C     C_3   0.953510 0.380785 0.057862 -0.831841
H26   H     H_    0.925957 0.380765 0.004361 0.255184
H27   H     H_    0.028224 0.462364 0.063296 0.269314
H28   H     H_    0.999403 0.291556 0.063103 0.262140
H29   H     H_    0.859132 0.381786 0.167824 0.222330
H30   H     H_    0.757172 0.305938 0.108057 0.233204
H31   H     H_    0.746881 0.516725 0.055583 0.218159
H32   H     H_    0.833850 0.597544 0.116368 0.190605
O9    O     O_3   0.627278 0.322275 0.836008 -0.588909
C37   C     C_3   0.761064 0.374617 0.829357 -0.329275
H33   H     H_    0.768837 0.470753 0.855170 0.155433
H34   H     H_    0.809956 0.378411 0.772807 0.149983
H35   H     H_    0.816472 0.312464 0.856479 0.199378
O10   O     O_3   0.269316 0.476264 0.164594 -0.596765
C38   C     C_3   0.179102 0.562588 0.198011 -0.344056
H36   H     H_    0.229409 0.658587 0.207307 0.155561
H37   H     H_    0.121564 0.523847 0.248430 0.176683
H38   H     H_    0.106308 0.574827 0.162904 0.189593
O11   O     O_3   0.317164 0.061285 0.546208 -0.630665
C39   C     C_3   0.189273 0.100101 0.546575 -0.269622
H39   H     H_    0.168332 0.107953 0.491998 0.172566
H40   H     H_    0.175452 0.189611 0.578225 0.219738
H41   H     H_    0.114336 0.026693 0.573234 0.176251
O12   O     O_3   0.711256 0.939781 0.481505 -0.630166
C40   C     C_3   0.775633 0.896013 0.533810 -0.263417
H42   H     H_    0.832790 0.814498 0.512929 0.217425
H43   H     H_    0.705368 0.872289 0.583659 0.148952
H44   H     H_    0.849146 0.973313 0.547254 0.174021
O13   O     O_3   0.097962 0.346137 0.488795 -0.663026
C41   C     C_3   0.149757 0.333117 0.415631 -0.187197
H45   H     H_    0.253947 0.308314 0.407239 0.166380
H46   H     H_    0.144496 0.418005 0.384452 0.157824
H47   H     H_    0.093800 0.250825 0.393320 0.165232
O14   O     O_3   0.866245 0.571779 0.571507 -0.599742
C42   C     C_3   0.880146 0.519822 0.636159 -0.303724
H48   H     H_    0.850323 0.415693 0.637655 0.134208
H49   H     H_    0.813350 0.565843 0.679790 0.193030
H50   H     H_    0.983305 0.539965 0.647026 0.175569
O15   O     O_3   0.124618 0.671558 0.542207 -0.535602
C43   C     C_3   0.146557 0.734659 0.477194 -0.228531
H51   H     H_    0.057508 0.716461 0.451367 0.116379
H52   H     H_    0.235366 0.705743 0.439824 0.170234
H53   H     H_    0.161121 0.838291 0.487925 0.180466
O16   O     O_3   0.902155 0.402071 0.408716 -0.623401
C44   C     C_3   0.828612 0.287566 0.394398 -0.177384
H54   H     H_    0.734435 0.304505 0.377383 0.183704
H55   H     H_    0.810138 0.223735 0.440496 0.191971
H56   H     H_    0.887513 0.237225 0.349391 0.127898

loop_
_geom_bond_atom_site_label_1
_geom_bond_atom_site_label_2
_ccdc_geom_bond_type
C28   C29   S    
C40   H42   S    
C12   C22   A    
C10   O8    A    
O11   C39   S    
C34   H31   S    
C8    O13   S    
C30   H12   S    
C7    C8    S    
C27   H6    S    
C13   C31   S    
C36   H26   S    
C10   C22   S    
C41   H46   S    
C17   O9    S    
C19   C21   A    
C5    C6    S    
C37   H34   S    
C34   H32   S    
C30   H13   S    
C41   H45   S    
O15   C43   S    
C4    O11   S    
C39   H41   S    
C26   H9    S    
C9    O5    A    
C31   H24   S    
C43   H51   S    
C10   O6    A    
O14   C42   S    
C44   H56   S    
C24   N1    A    
C3    O12   S    
C32   H23   S    
C6    H3    S    
C39   H40   S    
C27   H5    S    
O1    Zn1   S    
C18   C20   A    
C1    O3    A    
C32   C33   S    
C25   H10   S    
C40   H43   S    
C39   H39   S    
C7    N5    D    
C27   H7    S    
C36   H27   S    
C33   H19   S    
C18   O10   S    
C23   N2    A    
C35   C36   S    
C4    C6    D    
C35   H30   S    
C38   H36   S    
C37   H33   S    
C30   H14   S    
O5    Zn1   S    
N6    O15   S    
O9    C37   S    
C26   H8    S    
C11   C21   A    
C31   H25   S    
C28   H17   S    
C33   H20   S    
C23   N3    A    
C2    C4    S    
C34   C35   S    
C24   N4    A    
C38   H37   S    
C5    H4    S    
C2    O4    A    
C32   H22   S    
C28   H18   S    
C42   H49   S    
C8    N6    D    
C44   H54   S    
C15   C24   S    
C12   C14   A    
C25   H11   S    
C40   H44   S    
C13   C15   A    
O7    Zn2   S    
C29   H16   S    
O2    Zn2   S    
O8    Zn1   S    
O16   C44   S    
C1    O1    A    
C36   H28   S    
C2    O2    A    
C29   C30   S    
C26   C27   S    
C42   H48   S    
N5    Zn2   S    
N6    Zn1   S    
C20   C22   A    
C3    C5    D    
C37   H35   S    
C35   H29   S    
C7    O14   S    
C15   C17   A    
C16   C23   S    
O13   C41   S    
C9    O7    A    
C43   H53   S    
C33   H21   S    
C14   C34   S    
O3    Zn2   S    
O4    Zn1   S    
N1    N3    A    
C38   H38   S    
N2    N4    A    
C11   C13   A    
C9    C21   S    
O10   C38   S    
C20   H2    S    
O12   C40   S    
C17   C19   A    
C43   H52   S    
C42   H50   S    
C14   C16   A    
C19   H1    S    
C44   H55   S    
C12   C28   S    
C11   C25   S    
C25   C26   S    
O6    Zn2   S    
N5    O16   S    
C16   C18   A    
C31   C32   S    
C29   H15   S    
C1    C3    S    
C41   H47   S    
