data_mof_unit_61229.cif
_audit_creation_date              2012-10-26T17:40:14-0400
_audit_creation_method            fapswitch 2.2
_symmetry_space_group_name_H-M    P1
_symmetry_Int_Tables_number       1
_space_group_crystal_system       triclinic
_cell_length_a                    37.404435
_cell_length_b                    30.356525
_cell_length_c                    21.720295
_cell_angle_alpha                 89.955446
_cell_angle_beta                  54.270911
_cell_angle_gamma                 89.950293
_cell_volume                      20020.8662017

loop_
_atom_site_label
_atom_site_type_symbol
_atom_type_description
_atom_site_fract_x
_atom_site_fract_y
_atom_site_fract_z
_atom_type_partial_charge
C1    C     C_R   0.085183 0.499979 0.415314 0.546339
C2    C     C_R   0.977857 0.465731 0.240978 -0.036119
C3    C     C_R   0.202508 0.982583 0.746289 -0.121391
C4    C     C_R   0.274336 0.499889 0.227257 0.029719
C5    C     C_R   0.725664 0.499992 0.772710 0.029714
C6    C     C_R   0.774324 0.000046 0.227174 0.030072
C7    C     C_R   0.225685 0.999998 0.773166 0.029606
C8    C     C_R   0.000009 0.414773 0.999974 0.557439
C9    C     C_R   0.500022 0.914902 0.999715 0.550864
C10   C     C_R   0.000088 0.499183 0.881159 0.555064
C11   C     C_R   0.999914 0.499208 0.118842 0.555063
C12   C     C_R   0.500101 0.998798 0.881251 0.555406
C13   C     C_R   0.515965 0.961887 0.765552 -0.036411
C14   C     C_R   0.499928 0.998997 0.118984 0.548224
C15   C     C_R   0.999991 0.585083 0.000014 0.541570
C16   C     C_R   0.499990 0.085083 0.999981 0.543875
C17   C     C_R   0.500004 0.414922 0.000013 0.549166
C18   C     C_R   0.999999 0.914922 0.000021 0.549310
C19   C     C_R   0.414932 0.499976 0.085188 0.549256
C20   C     C_R   0.585068 0.499983 0.914811 0.549178
C21   C     C_R   0.914929 0.000001 0.085188 0.548534
C22   C     C_R   0.085071 0.999998 0.914816 0.548805
C23   C     C_R   0.500003 0.585115 0.999960 0.549266
C24   C     C_R   0.470363 0.971359 0.249170 -0.030669
C25   C     C_R   0.000000 0.085086 0.999979 0.547878
C26   C     C_R   0.039779 0.296974 0.964965 -0.136181
C27   C     C_R   0.960288 0.297013 0.034743 -0.136278
C28   C     C_R   0.536218 0.797567 0.986992 -0.135611
C29   C     C_R   0.464185 0.797591 0.011171 -0.135181
C30   C     C_R   0.961495 0.611336 0.730319 -0.082825
C31   C     C_R   0.038498 0.611320 0.269569 -0.082781
C32   C     C_R   0.476221 0.116386 0.720948 -0.087783
C33   C     C_R   0.557257 0.097428 0.267274 -0.067248
C34   C     C_R   0.039754 0.342890 0.965739 -0.133176
C35   C     C_R   0.020750 0.466432 0.696430 -0.149009
C36   C     C_R   0.960300 0.342928 0.034042 -0.133172
C37   C     C_R   0.536299 0.843446 0.986618 -0.133559
C38   C     C_R   0.463986 0.843477 0.011856 -0.135867
C39   C     C_R   0.000024 0.366295 0.999912 0.024394
C40   C     C_R   0.500101 0.866672 0.999378 0.023485
C41   C     C_R   0.000036 0.273941 0.999839 0.021593
C42   C     C_R   0.500221 0.774375 0.999053 0.024913
C43   C     C_R   0.510797 0.702813 0.042452 -0.122709
C44   C     C_R   0.489580 0.702714 0.956182 -0.124115
C45   C     C_R   0.981355 0.202673 0.068011 -0.122362
C46   C     C_R   0.979134 0.466567 0.303754 -0.149003
C47   C     C_R   0.018696 0.202675 0.931745 -0.122274
C48   C     C_R   0.510453 0.656911 0.043118 -0.130649
C49   C     C_R   0.489745 0.656810 0.956092 -0.130248
C50   C     C_R   0.981788 0.156731 0.067957 -0.130345
C51   C     C_R   0.018235 0.156731 0.931872 -0.130248
C52   C     C_R   0.500047 0.633533 0.999762 0.017130
C53   C     C_R   0.000005 0.133448 0.999933 0.018051
C54   C     C_R   0.500220 0.725972 0.999194 0.031505
C55   C     C_R   0.000033 0.225735 0.999861 0.029189
C56   C     C_R   0.037595 0.702615 0.943564 -0.122610
C57   C     C_R   0.514448 0.963038 0.703009 -0.148403
C58   C     C_R   0.962352 0.702618 0.056641 -0.122598
C59   C     C_R   0.537582 0.202613 0.943437 -0.122651
C60   C     C_R   0.462338 0.202622 0.056513 -0.121998
C61   C     C_R   0.037727 0.656718 0.943857 -0.131158
C62   C     C_R   0.962224 0.656719 0.056281 -0.131174
C63   C     C_R   0.537715 0.156715 0.943748 -0.131688
C64   C     C_R   0.462211 0.156723 0.056171 -0.129897
C65   C     C_R   0.999976 0.633434 0.000050 0.016184
C66   C     C_R   0.499969 0.133435 0.999964 0.016294
C67   C     C_R   0.948274 0.567049 0.742151 0.053404
C68   C     C_R   0.471176 0.972809 0.312492 -0.150120
C69   C     C_R   0.051725 0.567020 0.257733 0.053339
C70   C     C_R   0.458266 0.073957 0.733395 0.055717
C71   C     C_R   0.565161 0.052970 0.245628 0.043619
C72   C     C_R   0.999973 0.725805 0.000116 0.030513
C73   C     C_R   0.499962 0.225806 0.999991 0.030596
C74   C     C_R   0.486384 0.297345 0.066176 -0.121739
C75   C     C_R   0.513574 0.297404 0.933860 -0.121979
C76   C     C_R   0.986385 0.797362 0.066256 -0.121961
C77   C     C_R   0.013564 0.797385 0.933946 -0.121963
C78   C     C_R   0.486728 0.343245 0.066038 -0.129900
C79   C     C_R   0.998081 0.499954 0.688113 0.000256
C80   C     C_R   0.513272 0.343301 0.934006 -0.129922
C81   C     C_R   0.986722 0.843262 0.066088 -0.129996
C82   C     C_R   0.013254 0.843282 0.934061 -0.129886
C83   C     C_R   0.500008 0.366562 0.000024 0.018391
C84   C     C_R   0.999995 0.866562 0.000060 0.018368
C85   C     C_R   0.499969 0.274186 0.000014 0.031148
C86   C     C_R   0.999970 0.774185 0.000111 0.031138
C87   C     C_R   0.907764 0.555787 0.756075 -0.069966
C88   C     C_R   0.092252 0.555694 0.243746 -0.070068
C89   C     C_R   0.417966 0.068291 0.743188 -0.060833
C90   C     C_R   0.001850 0.500031 0.311957 0.000336
C91   C     C_R   0.606499 0.034466 0.216888 -0.090596
C92   C     C_R   0.880651 0.588605 0.758731 -0.109899
C93   C     C_R   0.119377 0.588463 0.241033 -0.109958
C94   C     C_R   0.395970 0.104703 0.740567 -0.105167
C95   C     C_R   0.639690 0.060297 0.209597 -0.112605
C96   C     C_R   0.894196 0.632595 0.745970 -0.106558
C97   C     C_R   0.105829 0.632467 0.253797 -0.106562
C98   C     C_R   0.414251 0.146783 0.727306 -0.106905
C99   C     C_R   0.631607 0.104509 0.231748 -0.109140
C100  C     C_R   0.977034 0.531925 0.806973 -0.149515
C101  C     C_R   0.497519 0.999905 0.688963 -0.003261
C102  C     C_R   0.022983 0.531932 0.192948 -0.149559
C103  C     C_R   0.482517 0.034779 0.802031 -0.148087
C104  C     C_R   0.530152 0.024907 0.186486 -0.149201
C105  C     C_R   0.914817 0.499998 0.584683 0.546240
C106  C     C_R   0.501040 0.000058 0.313230 0.006971
C107  C     C_R   0.975599 0.532849 0.744361 -0.031531
C108  C     C_R   0.024381 0.532872 0.255598 -0.031613
C109  C     C_R   0.480508 0.035886 0.740041 -0.029863
C110  C     C_R   0.530961 0.026198 0.249691 -0.035214
C111  C     C_R   0.088673 0.431808 0.740326 -0.029799
C112  C     C_R   0.911123 0.431766 0.260719 -0.030420
C113  C     C_R   0.571998 0.920231 0.770861 -0.028271
C114  C     C_R   0.394417 0.944319 0.302447 -0.051073
C115  C     C_R   0.110123 0.396100 0.746730 0.123895
C116  C     C_R   0.585182 0.999988 0.415250 0.553494
C117  C     C_R   0.889707 0.396078 0.254311 0.123950
C118  C     C_R   0.586655 0.881442 0.784669 0.125832
C119  C     C_R   0.365627 0.913728 0.304635 0.121894
C120  C     C_R   0.086817 0.356751 0.780405 -0.086199
C121  C     C_R   0.913206 0.356924 0.219768 -0.086202
C122  C     C_R   0.560650 0.843216 0.807430 -0.078389
C123  C     C_R   0.382971 0.878173 0.253555 -0.084606
C124  C     C_R   0.042608 0.353392 0.807593 -0.133804
C125  C     C_R   0.957563 0.353734 0.191762 -0.134044
C126  C     C_R   0.520457 0.843985 0.816597 -0.135329
C127  C     C_R   0.414828 0.999997 0.584819 0.543069
C128  C     C_R   0.428490 0.873354 0.201316 -0.128358
C129  C     C_R   0.021333 0.389134 0.801459 -0.109722
C130  C     C_R   0.978805 0.389464 0.197877 -0.109321
C131  C     C_R   0.505850 0.882783 0.803329 -0.117428
C132  C     C_R   0.457038 0.904160 0.198791 -0.082644
C133  C     C_R   0.998947 0.500012 0.620080 0.551639
C134  C     C_R   0.001029 0.500039 0.379944 0.551661
C135  C     C_R   0.498754 0.000020 0.620369 0.549456
C136  C     C_R   0.500710 0.000033 0.380420 0.557465
C137  C     C_R   0.044305 0.428449 0.767675 0.007828
C138  C     C_R   0.000211 0.498833 0.814366 0.010593
C139  C     C_R   0.955643 0.428580 0.232520 0.008186
C140  C     C_R   0.531431 0.921193 0.780713 -0.002873
C141  C     C_R   0.440151 0.939844 0.249366 0.020087
C142  C     C_R   0.202885 0.460258 0.305445 -0.122329
C143  C     C_R   0.797139 0.460346 0.694568 -0.122415
C144  C     C_R   0.702903 0.960411 0.305682 -0.123616
C145  C     C_R   0.297196 0.960631 0.692252 -0.122521
C146  C     C_R   0.156978 0.460204 0.350570 -0.131927
C147  C     C_R   0.843044 0.460271 0.649450 -0.131986
C148  C     C_R   0.657000 0.960314 0.350825 -0.133518
C149  C     C_R   0.999791 0.498874 0.185636 0.010594
C150  C     C_R   0.343097 0.960538 0.647059 -0.132051
C151  C     C_R   0.133640 0.499962 0.368014 0.014297
C152  C     C_R   0.866360 0.500016 0.631975 0.014304
C153  C     C_R   0.633637 0.000017 0.367901 0.017276
C154  C     C_R   0.366388 0.000012 0.632482 0.014379
C155  C     C_R   0.157040 0.539742 0.340022 -0.139724
C156  C     C_R   0.842938 0.539805 0.659930 -0.139760
C157  C     C_R   0.657005 0.039795 0.339449 -0.131913
C158  C     C_R   0.342972 0.039541 0.663664 -0.137580
C159  C     C_R   0.202930 0.539657 0.293497 -0.128723
C160  C     C_R   0.500296 0.998427 0.814553 0.013049
C161  C     C_R   0.797046 0.539739 0.706452 -0.128699
C162  C     C_R   0.702894 0.039744 0.292934 -0.131923
C163  C     C_R   0.297086 0.039454 0.710168 -0.125006
C164  C     C_R   0.226036 0.499932 0.276117 0.030962
C165  C     C_R   0.773964 0.500026 0.723860 0.030999
C166  C     C_R   0.726026 0.000069 0.275978 0.028852
C167  C     C_R   0.274000 0.000023 0.724512 0.031379
C168  C     C_R   0.297317 0.518219 0.154378 -0.121727
C169  C     C_R   0.702660 0.518302 0.845583 -0.121743
C170  C     C_R   0.797333 0.018182 0.154156 -0.122298
C171  C     C_R   0.499935 0.998087 0.185951 0.005070
C172  C     C_R   0.202577 0.017386 0.846693 -0.121844
C173  C     C_R   0.343228 0.517772 0.107594 -0.129358
C174  C     C_R   0.656749 0.517823 0.892380 -0.129382
C175  C     C_R   0.843246 0.017702 0.107413 -0.129200
C176  C     C_R   0.156675 0.016955 0.893252 -0.129221
C177  C     C_R   0.366625 0.499875 0.133889 0.019748
C178  C     C_R   0.633375 0.499912 0.866104 0.019703
C179  C     C_R   0.866617 0.999960 0.133875 0.018946
C180  C     C_R   0.133384 0.999971 0.866182 0.018665
C181  C     C_R   0.934639 0.643944 0.731606 -0.113506
C182  C     C_R   0.022077 0.465620 0.759161 -0.036177
C183  C     C_R   0.065368 0.643879 0.268222 -0.113477
C184  C     C_R   0.454373 0.152614 0.717410 -0.115587
C185  C     C_R   0.590384 0.123030 0.260751 -0.109457
C186  C     C_R   0.343521 0.481945 0.207193 -0.129304
C187  C     C_R   0.656502 0.482009 0.792803 -0.129453
C188  C     C_R   0.843481 0.982238 0.207323 -0.130452
C189  C     C_R   0.156605 0.982988 0.792248 -0.129923
C190  C     C_R   0.297617 0.481515 0.253301 -0.121290
C191  C     C_R   0.702407 0.481612 0.746682 -0.121418
C192  C     C_R   0.797577 0.981847 0.253399 -0.121537
Cu1   Cu    Cu3+1 0.000000 0.544040 0.500000 0.945333
Cu2   Cu    Cu3+1 0.500010 0.500000 0.938190 0.917138
Cu3   Cu    Cu3+1 0.999990 0.000000 0.061810 0.917657
Cu4   Cu    Cu3+1 0.000010 0.000000 0.938190 0.918298
Cu5   Cu    Cu3+1 0.500000 0.044040 0.500000 0.938475
Cu6   Cu    Cu3+1 0.000000 0.455940 0.500000 0.912975
Cu7   Cu    Cu3+1 0.500000 0.955940 0.500000 0.913736
Cu8   Cu    Cu3+1 0.955940 0.499960 0.044050 0.946683
Cu9   Cu    Cu3+1 0.044060 0.499960 0.955950 0.946653
Cu10  Cu    Cu3+1 0.455940 0.999960 0.044050 0.946774
Cu11  Cu    Cu3+1 0.544060 0.999960 0.955950 0.936882
Cu12  Cu    Cu3+1 0.499990 0.500000 0.061810 0.917935
H1    H     H_    0.873214 0.657910 0.747760 0.103086
H2    H     H_    0.975548 0.323578 0.164945 0.119948
H3    H     H_    0.553129 0.045080 0.137518 0.131309
H4    H     H_    0.037755 0.440931 0.653676 0.132553
H5    H     H_    0.962091 0.441105 0.346596 0.132442
H6    H     H_    0.526994 0.935078 0.664755 0.136964
H7    H     H_    0.448675 0.952286 0.361264 0.121388
H8    H     H_    0.106532 0.462136 0.714090 0.122175
H9    H     H_    0.893123 0.461947 0.287601 0.121827
H10   H     H_    0.592285 0.949547 0.752258 0.131913
H11   H     H_    0.381157 0.971644 0.341983 0.118141
H12   H     H_    0.166222 0.371598 0.729808 0.221025
H13   H     H_    0.500498 0.814497 0.834382 0.110723
H14   H     H_    0.173990 0.403947 0.660312 0.220524
H15   H     H_    0.833476 0.371446 0.272019 0.220907
H16   H     H_    0.825963 0.403430 0.341627 0.220367
H17   H     H_    0.633263 0.850869 0.790836 0.220543
H18   H     H_    0.652756 0.886203 0.718415 0.217867
H19   H     H_    0.302068 0.894554 0.352306 0.222960
H20   H     H_    0.311798 0.915204 0.412806 0.220795
H21   H     H_    0.441653 0.845505 0.163087 0.122736
H22   H     H_    0.987067 0.386167 0.822704 0.115249
H23   H     H_    0.013192 0.386634 0.175966 0.115165
H24   H     H_    0.474567 0.882962 0.810824 0.115595
H25   H     H_    0.492268 0.899905 0.158184 0.103132
H26   H     H_    0.220388 0.429319 0.292370 0.108967
H27   H     H_    0.779655 0.429414 0.707666 0.108743
H28   H     H_    0.720428 0.929509 0.292908 0.109270
H29   H     H_    0.126819 0.657745 0.251964 0.103016
H30   H     H_    0.279736 0.929906 0.702997 0.108173
H31   H     H_    0.139823 0.429071 0.371854 0.128440
H32   H     H_    0.860215 0.429131 0.628197 0.128337
H33   H     H_    0.639867 0.929193 0.372428 0.128328
H34   H     H_    0.360293 0.929625 0.623305 0.127553
H35   H     H_    0.139927 0.570928 0.353483 0.129856
H36   H     H_    0.860036 0.570981 0.646436 0.129781
H37   H     H_    0.639873 0.070924 0.352258 0.134942
H38   H     H_    0.360081 0.070515 0.652254 0.124288
H39   H     H_    0.220450 0.570596 0.271723 0.107113
H40   H     H_    0.397192 0.174902 0.725175 0.104233
H41   H     H_    0.779507 0.570684 0.728198 0.107100
H42   H     H_    0.720386 0.070665 0.270735 0.106364
H43   H     H_    0.279555 0.070208 0.734145 0.106815
H44   H     H_    0.279676 0.532379 0.133520 0.107209
H45   H     H_    0.720282 0.532464 0.866430 0.107279
H46   H     H_    0.779712 0.032202 0.133158 0.104830
H47   H     H_    0.220106 0.030786 0.868243 0.108339
H48   H     H_    0.360428 0.531948 0.051351 0.123059
H49   H     H_    0.639529 0.531982 0.948620 0.123180
H50   H     H_    0.860467 0.031719 0.051055 0.124700
H51   H     H_    0.657279 0.124384 0.226460 0.100338
H52   H     H_    0.139406 0.030395 0.949993 0.125596
H53   H     H_    0.360950 0.467780 0.228435 0.123157
H54   H     H_    0.639093 0.467837 0.771572 0.123009
H55   H     H_    0.860881 0.968199 0.228708 0.122936
H56   H     H_    0.139278 0.969542 0.770360 0.123987
H57   H     H_    0.944989 0.678048 0.722166 0.103076
H58   H     H_    0.055015 0.677994 0.277666 0.103037
H59   H     H_    0.468393 0.185245 0.707519 0.103805
H60   H     H_    0.584191 0.157280 0.277753 0.100073
H61   H     H_    0.280223 0.467370 0.309604 0.108895
H62   H     H_    0.102745 0.328783 0.785914 0.097315
H63   H     H_    0.719818 0.467479 0.690387 0.108746
H64   H     H_    0.780161 0.967853 0.309812 0.108842
H65   H     H_    0.219978 0.969196 0.689472 0.109229
H66   H     H_    0.070691 0.279371 0.937885 0.109726
H67   H     H_    0.929379 0.279441 0.061812 0.109546
H68   H     H_    0.564466 0.780150 0.976924 0.107077
H69   H     H_    0.436006 0.780192 0.021022 0.106881
H70   H     H_    0.070857 0.360010 0.939049 0.137038
H71   H     H_    0.929191 0.360076 0.060775 0.136898
H72   H     H_    0.564473 0.860745 0.976961 0.133228
H73   H     H_    0.897309 0.328975 0.214238 0.097103
H74   H     H_    0.435816 0.860812 0.021472 0.128050
H75   H     H_    0.518795 0.720278 0.076417 0.106096
H76   H     H_    0.481651 0.720103 0.922009 0.101176
H77   H     H_    0.966892 0.220282 0.120935 0.105274
H78   H     H_    0.033168 0.220286 0.878796 0.105389
H79   H     H_    0.518639 0.639759 0.077103 0.126485
H80   H     H_    0.481508 0.639577 0.922287 0.126175
H81   H     H_    0.967361 0.139413 0.121132 0.124212
H82   H     H_    0.032653 0.139412 0.878725 0.124472
H83   H     H_    0.067005 0.720057 0.899764 0.107772
H84   H     H_    0.571355 0.812924 0.818352 0.111496
H85   H     H_    0.932941 0.720064 0.100460 0.107744
H86   H     H_    0.566992 0.220052 0.899633 0.107449
H87   H     H_    0.432927 0.220070 0.100326 0.108199
H88   H     H_    0.067189 0.639476 0.899745 0.127076
H89   H     H_    0.932765 0.639475 0.100368 0.127057
H90   H     H_    0.567177 0.139470 0.899644 0.126282
H91   H     H_    0.432752 0.139483 0.100265 0.128283
H92   H     H_    0.476028 0.279875 0.117614 0.107145
H93   H     H_    0.523915 0.279984 0.882418 0.106102
H94   H     H_    0.976036 0.779907 0.117702 0.106396
H95   H     H_    0.361347 0.854063 0.254486 0.100118
H96   H     H_    0.023904 0.779950 0.882516 0.106468
H97   H     H_    0.476207 0.360464 0.117726 0.125125
H98   H     H_    0.523804 0.360560 0.882318 0.124901
H99   H     H_    0.976203 0.860495 0.117762 0.124901
H100  H     H_    0.023781 0.860528 0.882365 0.125148
H101  H     H_    0.992501 0.620516 0.720173 0.103506
H102  H     H_    0.007478 0.620547 0.279764 0.103497
H103  H     H_    0.507088 0.121324 0.713923 0.102846
H104  H     H_    0.525565 0.112144 0.289041 0.107035
H105  H     H_    0.896883 0.521813 0.766262 0.100978
H106  H     H_    0.024765 0.323089 0.833775 0.119702
H107  H     H_    0.103134 0.521709 0.233559 0.101041
H108  H     H_    0.403394 0.035855 0.753812 0.099347
H109  H     H_    0.613081 0.000253 0.199525 0.106738
H110  H     H_    0.848943 0.580010 0.771427 0.103843
H111  H     H_    0.151096 0.579820 0.228294 0.103866
H112  H     H_    0.364543 0.100405 0.749561 0.096491
H113  H     H_    0.671651 0.046015 0.186937 0.113078
H114  H     H_    0.959682 0.556949 0.850585 0.122431
H115  H     H_    0.040371 0.556914 0.149248 0.122508
H116  H     H_    0.469476 0.062154 0.841614 0.117879
N1    N     N_3   0.155359 0.400461 0.719234 -0.637700
N2    N     N_3   0.844305 0.400262 0.282690 -0.637749
N3    N     N_3   0.627720 0.881586 0.775997 -0.632359
N4    N     N_3   0.319009 0.919335 0.358837 -0.634789
O1    O     O_R   0.064270 0.537190 0.435730 -0.509314
O2    O     O_R   0.564280 0.500010 0.987920 -0.510879
O3    O     O_R   0.935720 0.000010 0.012080 -0.509360
O4    O     O_R   0.064280 0.000010 0.987920 -0.509512
O5    O     O_R   0.500000 0.564270 0.052190 -0.512672
O6    O     O_R   0.500000 0.564270 0.947810 -0.513022
O7    O     O_R   0.000000 0.064270 0.052190 -0.511363
O8    O     O_R   0.000000 0.064270 0.947810 -0.511344
O9    O     O_R   0.064260 0.462790 0.435740 -0.515966
O10   O     O_R   0.935740 0.462790 0.564260 -0.516076
O11   O     O_R   0.564260 0.962790 0.435740 -0.515543
O12   O     O_R   0.935730 0.537190 0.564270 -0.509336
O13   O     O_R   0.435740 0.962790 0.564260 -0.516147
O14   O     O_R   0.000000 0.537190 0.590180 -0.496885
O15   O     O_R   0.000000 0.537190 0.409820 -0.496897
O16   O     O_R   0.500000 0.037190 0.590180 -0.496033
O17   O     O_R   0.500000 0.037190 0.409820 -0.503093
O18   O     O_R   0.999990 0.462790 0.590190 -0.516156
O19   O     O_R   0.000010 0.462790 0.409810 -0.516142
O20   O     O_R   0.499990 0.962790 0.590190 -0.517943
O21   O     O_R   0.500010 0.962790 0.409810 -0.512529
O22   O     O_R   0.962800 0.435700 0.037190 -0.506368
O23   O     O_R   0.564270 0.037190 0.435730 -0.507708
O24   O     O_R   0.037200 0.435700 0.962810 -0.506227
O25   O     O_R   0.462800 0.935700 0.037190 -0.510349
O26   O     O_R   0.537200 0.935700 0.962810 -0.498487
O27   O     O_R   0.962790 0.499970 0.947030 -0.512086
O28   O     O_R   0.037210 0.499970 0.052970 -0.512176
O29   O     O_R   0.462790 0.999970 0.947030 -0.508899
O30   O     O_R   0.537210 0.999970 0.052970 -0.517862
O31   O     O_R   0.037190 0.499990 0.872630 -0.505043
O32   O     O_R   0.962810 0.499990 0.127370 -0.504658
O33   O     O_R   0.537190 0.999990 0.872630 -0.514477
O34   O     O_R   0.435730 0.037190 0.564270 -0.512327
O35   O     O_R   0.462810 0.999990 0.127370 -0.495490
O36   O     O_R   0.962790 0.564230 0.037210 -0.515776
O37   O     O_R   0.037210 0.564230 0.962790 -0.515797
O38   O     O_R   0.462790 0.064230 0.037210 -0.514100
O39   O     O_R   0.537210 0.064230 0.962790 -0.514943
O40   O     O_R   0.499980 0.435740 0.052200 -0.512396
O41   O     O_R   0.500020 0.435740 0.947800 -0.512529
O42   O     O_R   0.999980 0.935740 0.052200 -0.512426
O43   O     O_R   0.000020 0.935740 0.947800 -0.512352
O44   O     O_R   0.435720 0.500010 0.116470 -0.511289
O45   O     O_R   0.564280 0.500010 0.883530 -0.511446
O46   O     O_R   0.935720 0.000010 0.116470 -0.513616
O47   O     O_R   0.064280 0.000010 0.883530 -0.513439
O48   O     O_R   0.435720 0.500010 0.012080 -0.510941

loop_
_geom_bond_atom_site_label_1
_geom_bond_atom_site_label_2
_ccdc_geom_bond_type
C187  H54   S    
C29   C42   A    
C142  C146  A    
C163  H43   S    
C91   H109  S    
C133  O14   A    
C19   O48   A    
C25   C53   S    
C154  C158  A    
C3    C189  A    
C90   C134  S    
C95   C99   A    
C23   O6    A    
Cu7   O20   S    
C192  H64   S    
C169  H45   S    
C89   C94   A    
Cu5   Cu7   S    
C24   C171  A    
C131  C140  A    
C18   O42   A    
Cu10  O35   S    
C56   C72   A    
C129  H22   S    
C18   C84   S    
C169  C174  A    
Cu11  O39   S    
C151  C155  A    
C59   C73   A    
C13   C160  A    
C98   H40   S    
Cu7   O11   S    
C105  O10   A    
C145  H30   S    
C14   O35   A    
H17   N3    S    
H14   N1    S    
C80   C83   A    
C97   C183  A    
C173  H48   S    
C50   C53   A    
Cu10  Cu11  S    
C179  C188  A    
C177  C186  A    
C4    C168  A    
C64   C66   A    
C186  C190  A    
C47   H78   S    
C4    C190  A    
C174  H49   S    
C24   C141  S    
C19   O44   A    
Cu6   O9    S    
Cu10  O25   S    
C69   C88   A    
C21   O3    A    
C104  C171  A    
Cu6   O19   S    
C82   C84   A    
C148  C153  A    
C95   H113  S    
C61   H88   S    
C99   C185  A    
C111  C137  A    
C103  H116  S    
C191  H63   S    
Cu11  O30   S    
C123  H95   S    
C121  H73   S    
C12   O33   A    
C119  C123  A    
Cu8   O22   S    
C49   H80   S    
C59   C63   A    
C135  O20   A    
C16   O38   A    
C60   C64   A    
C104  C110  A    
Cu3   O46   S    
C77   C82   A    
C188  H55   S    
C190  H61   S    
C138  C182  A    
C33   C71   A    
C102  C149  A    
H18   N3    S    
C61   C65   A    
C35   H4    S    
C48   C52   A    
C60   H87   S    
C43   H75   S    
C105  O12   A    
C134  O15   A    
C10   C138  S    
C157  C162  A    
C127  O13   A    
C161  C165  A    
C11   O32   A    
C87   H105  S    
C76   H94   S    
C32   H103  S    
C162  H42   S    
C28   H68   S    
C51   H82   S    
C96   C181  A    
C132  H25   S    
C115  N1    S    
Cu5   O16   S    
C161  H41   S    
Cu1   O14   S    
C45   C50   A    
C37   C40   A    
H16   N2    S    
C180  C189  A    
C142  H26   S    
C13   C57   A    
C9    O25   A    
C92   C96   A    
C118  C122  A    
C104  H3    S    
Cu11  O33   S    
C111  H8    S    
Cu5   O23   S    
C58   H85   S    
C131  H24   S    
C41   C55   S    
C7    C172  A    
Cu7   O13   S    
C29   C38   A    
Cu2   O45   S    
C173  C177  A    
C19   C177  S    
C30   C67   A    
C147  H32   S    
C15   O37   A    
C106  C136  S    
C102  H115  S    
C26   H66   S    
C116  O23   A    
C113  H10   S    
C81   H99   S    
C127  C154  S    
C129  C137  A    
C82   H100  S    
C101  C135  S    
C29   H69   S    
C120  H62   S    
C155  C159  A    
C34   C39   A    
Cu2   O6    S    
C114  C141  A    
C152  C156  A    
C5    C191  A    
Cu3   O4    S    
C32   C70   A    
C117  N2    S    
Cu3   Cu4   S    
C51   C53   A    
C121  C125  A    
C1    O9    A    
C21   C179  S    
Cu2   Cu12  S    
C71   C91   A    
C73   C85   S    
C158  C163  A    
C156  C161  A    
C50   H81   S    
Cu8   O32   S    
C70   C89   A    
C93   C97   A    
C175  H50   S    
C6    C170  A    
C132  C141  A    
C7    C167  S    
C146  H31   S    
Cu8   O36   S    
H12   N1    S    
C36   C39   A    
C14   C171  S    
C8    O24   A    
C15   O36   A    
C57   C101  A    
Cu3   O42   S    
Cu9   O37   S    
C3    H65   S    
C188  C192  A    
C90   C108  A    
C23   C52   S    
C44   H76   S    
C28   C37   A    
C23   O5    A    
C1    O1    A    
C93   H111  S    
C35   C79   A    
C94   H112  S    
C74   C85   A    
C98   C184  A    
Cu3   O7    S    
C91   C95   A    
C146  C151  A    
C116  O11   A    
C44   C54   A    
C176  C180  A    
C18   O43   A    
C45   C55   A    
C159  C164  A    
C143  H27   S    
Cu5   O34   S    
C172  C176  A    
Cu9   O24   S    
C58   C62   A    
C6    C166  S    
Cu4   O8    S    
C27   H67   S    
C80   H98   S    
C2    C139  S    
C47   C55   A    
C22   O47   A    
C3    C7    A    
C37   H72   S    
C142  C164  A    
C112  C117  A    
C103  C160  A    
C94   C98   A    
C186  H53   S    
C101  C109  A    
Cu1   Cu6   S    
C15   C65   S    
C71   C110  S    
C60   C73   A    
C170  H46   S    
C143  C165  A    
C136  O21   A    
C162  C166  A    
C145  C150  A    
C78   C83   A    
C11   C149  S    
C21   O46   A    
C17   O41   A    
C124  H106  S    
Cu6   O10   S    
C174  C178  A    
C16   O39   A    
C25   O8    A    
C63   C66   A    
C155  H35   S    
C87   C92   A    
Cu2   O48   S    
C130  C139  A    
C159  H39   S    
C48   H79   S    
C170  C175  A    
C10   O31   A    
C148  H33   S    
C13   C140  S    
C22   C180  S    
Cu12  O5    S    
C47   C51   A    
Cu8   O27   S    
Cu4   O43   S    
C9    C40   S    
C156  H36   S    
C144  C166  A    
C75   H93   S    
C49   C52   A    
C79   C107  A    
Cu12  O40   S    
C12   C160  S    
C33   H104  S    
C116  C153  S    
C100  C138  A    
C178  C187  A    
C130  H23   S    
C58   C72   A    
C30   C181  A    
C16   C66   S    
C89   H108  S    
C76   C86   A    
C145  C167  A    
C105  C152  S    
C57   H6    S    
C88   H107  S    
C172  H47   S    
C189  H56   S    
C114  H11   S    
C144  H28   S    
C72   C86   S    
C185  H60   S    
C46   C90   A    
C27   C36   A    
C183  H58   S    
Cu7   O21   S    
C103  C109  A    
C42   C54   S    
C38   C40   A    
C118  N3    S    
C133  O18   A    
C124  C129  A    
C1    C151  S    
C64   H91   S    
C153  C157  A    
C24   C68   A    
Cu6   O18   S    
H20   N4    S    
C181  H57   S    
C74   C78   A    
C6    C192  A    
H15   N2    S    
C5    C169  A    
C56   C61   A    
C33   C185  A    
C31   H102  S    
C100  H114  S    
C44   C49   A    
C78   H97   S    
C144  C148  A    
C20   O2    A    
C184  H59   S    
C96   H1    S    
C59   H86   S    
C2    C46   A    
C35   C182  A    
C143  C147  A    
C34   H70   S    
C12   O29   A    
Cu4   O3    S    
Cu1   O1    S    
C30   H101  S    
Cu2   O41   S    
C158  H38   S    
Cu4   O47   S    
C125  H2    S    
C62   H89   S    
C22   O4    A    
C117  C121  A    
C157  H37   S    
C43   C54   A    
Cu9   O28   S    
C125  C130  A    
C38   H74   S    
C127  O34   A    
Cu11  O26   S    
Cu8   Cu9   S    
C150  H34   S    
C99   H51   S    
C4    C164  S    
C102  C108  A    
C8    C39   S    
C5    C165  S    
C75   C80   A    
C36   H71   S    
C187  C191  A    
C126  H13   S    
C8    O22   A    
C2    C149  A    
C112  C139  A    
C68   C106  A    
C10   O27   A    
C128  C132  A    
C69   C108  S    
C26   C34   A    
C168  C173  A    
C79   C133  S    
C92   H110  S    
Cu1   O15   S    
C45   H77   S    
C46   H5    S    
C136  O17   A    
C128  H21   S    
C175  C179  A    
C137  C182  S    
C9    O26   A    
C63   H90   S    
C17   C83   S    
C11   O28   A    
C122  C126  A    
C163  C167  A    
H19   N4    S    
C70   C109  S    
C176  H52   S    
C27   C41   A    
C31   C69   A    
C97   H29   S    
C135  O16   A    
C113  C140  A    
Cu1   O12   S    
C112  H9    S    
C77   H96   S    
C168  H44   S    
C77   C86   A    
C115  C120  A    
Cu10  O29   S    
C20   O45   A    
C81   C84   A    
C75   C85   A    
C43   C48   A    
C88   C93   A    
C100  C107  A    
C62   C65   A    
C31   C183  A    
C32   C184  A    
C134  O19   A    
C114  C119  A    
Cu5   O17   S    
C76   C81   A    
Cu10  O38   S    
C67   C87   A    
Cu12  O44   S    
C74   H92   S    
C147  C152  A    
Cu12  O2    S    
C67   C107  S    
C123  C128  A    
C126  C131  A    
C28   C42   A    
C14   O30   A    
C56   H83   S    
C122  H84   S    
C113  C118  A    
C106  C110  A    
C119  N4    S    
C150  C154  A    
C17   O40   A    
Cu9   O31   S    
C111  C115  A    
C68   H7    S    
C20   C178  S    
C120  C124  A    
C26   C41   A    
C25   O7    A    
