data_mof_unit_24261.cif
_audit_creation_date              2012-12-11T14:00:01-0500
_audit_creation_method            fapswitch 2.2
_symmetry_space_group_name_H-M    P1
_symmetry_Int_Tables_number       1
_space_group_crystal_system       triclinic
_cell_length_a                    11.234839
_cell_length_b                    11.28877
_cell_length_c                    18.84893
_cell_angle_alpha                 89.764137
_cell_angle_beta                  90.151991
_cell_angle_gamma                 119.960509
_cell_volume                      2071.09353401

loop_
_atom_site_label
_atom_site_type_symbol
_atom_type_description
_atom_site_fract_x
_atom_site_fract_y
_atom_site_fract_z
_atom_type_partial_charge
C1    C     C_R   0.543356 0.478055 0.853334 0.562210
C2    C     C_R   0.481283 0.546566 0.352242 0.572368
C3    C     C_R   0.062253 0.518274 0.350467 0.574251
C4    C     C_R   0.420839 0.873681 0.359985 0.583211
C5    C     C_2   0.925165 0.455057 0.569122 -0.101549
C6    C     C_2   0.556311 0.474472 0.567634 -0.113087
C7    C     C_2   0.480596 0.984247 0.584298 -0.099569
C8    C     C_2   0.450852 0.921563 0.431935 -0.096642
C9    C     C_2   0.521930 0.509068 0.417596 -0.104381
C10   C     C_2   0.979267 0.479406 0.413263 -0.089271
C11   C     C_2   0.003045 0.409222 0.463449 0.105237
C12   C     C_R   0.546956 0.125329 0.861635 0.556110
C13   C     C_2   0.615552 0.609144 0.460759 0.096292
C14   C     C_2   0.351223 0.909731 0.475051 0.076353
C15   C     C_2   0.388860 0.988372 0.539283 0.089638
C16   C     C_2   0.654217 0.576597 0.528443 0.063919
C17   C     C_2   0.917384 0.360620 0.524506 0.063846
C18   C     C_2   0.001298 0.499199 0.922200 -0.107111
C19   C     C_2   0.499740 0.500302 0.922224 -0.104983
C20   C     C_2   0.530072 0.076251 0.934428 -0.104889
C21   C     C_2   0.511481 0.028362 0.086711 -0.109421
C22   C     C_2   0.502714 0.500027 0.078356 -0.109266
C23   C     C_R   0.934854 0.456186 0.853314 0.560104
C24   C     C_2   0.997331 0.498558 0.078181 -0.109093
C25   C     C_2   0.017409 0.604831 0.037486 -0.162826
C26   C     C_2   0.396624 0.410958 0.038407 -0.164895
C27   C     C_2   0.613694 0.036100 0.046823 -0.162004
C28   C     C_2   0.636277 0.091685 0.974198 -0.167402
C29   C     C_2   0.414252 0.393561 0.962945 -0.169745
C30   C     C_2   0.982816 0.587199 0.961942 -0.163072
C31   C     C_R   0.478740 0.543585 0.146830 0.557060
C32   C     C_R   0.064722 0.521640 0.146827 0.555522
C33   C     C_R   0.458430 0.939002 0.148360 0.565785
C34   C     C_R   0.580693 0.453638 0.640311 0.553827
C35   C     C_R   0.519320 0.065368 0.647970 0.572132
C36   C     C_R   0.874417 0.421550 0.640196 0.553143
Cr1   Cr    Cr6+3 0.464030 0.233680 0.750360 1.065843
Cr2   Cr    Cr6+3 0.766320 0.230350 0.750360 1.068690
Cr3   Cr    Cr6+3 0.769650 0.535970 0.750360 1.066313
Cr4   Cr    Cr6+3 0.233680 0.464030 0.249640 1.063950
Cr5   Cr    Cr6+3 0.230350 0.766320 0.249640 1.063652
Cr6   Cr    Cr6+3 0.535970 0.769650 0.249640 1.066644
H1    H     H_    0.895506 0.501064 0.417646 0.096270
H2    H     H_    0.738658 0.136263 0.951662 0.151002
H3    H     H_    0.358022 0.290825 0.941374 0.152258
H4    H     H_    0.938723 0.645530 0.939514 0.158536
H5    H     H_    0.947601 0.395556 0.056708 0.107750
H6    H     H_    0.605845 0.555404 0.056399 0.110217
H7    H     H_    0.454669 0.078052 0.069644 0.108081
H8    H     H_    0.426374 0.025417 0.955663 0.115171
H9    H     H_    0.552698 0.603282 0.943712 0.115154
H10   H     H_    0.049340 0.444354 0.944481 0.111599
H11   H     H_    0.476350 0.401323 0.430669 0.105321
H12   H     H_    0.557650 0.980264 0.448068 0.130354
H13   H     H_    0.525672 0.920490 0.573590 0.122535
H14   H     H_    0.452568 0.414147 0.547849 0.140816
H15   H     H_    0.984624 0.562158 0.554533 0.146106
H16   H     H_    0.063330 0.707506 0.059039 0.158629
H17   H     H_    0.293990 0.351961 0.060517 0.157841
H18   H     H_    0.675227 0.992349 0.065151 0.153781
I1    I     I_    0.183136 0.392244 0.473196 -0.245709
I2    I     I_    0.704586 0.827572 0.444827 -0.214591
I3    I     I_    0.139653 0.814331 0.448377 -0.236028
I4    I     I_    0.301533 0.120395 0.545596 -0.217391
I5    I     I_    0.858165 0.723442 0.566584 -0.195314
I6    I     I_    0.830136 0.148924 0.545220 -0.232209
O1    O     O_R   0.434100 0.092480 0.829780 -0.507068
O2    O     O_R   0.362730 0.477510 0.175360 -0.500411
O3    O     O_R   0.114780 0.637270 0.175360 -0.501568
O4    O     O_R   0.522490 0.885220 0.175360 -0.494613
O5    O     O_R   0.432250 0.092620 0.670380 -0.477070
O6    O     O_R   0.907380 0.339630 0.670380 -0.451824
O7    O     O_R   0.660370 0.567750 0.670380 -0.463910
O8    O     O_R   0.092620 0.432250 0.329620 -0.477768
O9    O     O_R   0.339630 0.907380 0.329620 -0.471171
O10   O     O_R   0.567750 0.660370 0.329620 -0.488352
O11   O     O_R   0.475790 0.362860 0.676880 -0.468918
O12   O     O_R   0.907520 0.341620 0.829780 -0.517785
O13   O     O_R   0.637140 0.112930 0.676880 -0.488562
O14   O     O_R   0.887070 0.524210 0.676880 -0.486721
O15   O     O_R   0.362860 0.475790 0.323120 -0.476347
O16   O     O_R   0.112930 0.637140 0.323120 -0.491868
O17   O     O_R   0.524210 0.887070 0.323120 -0.482019
O18   O     O_3   0.666667 0.333333 0.749450 -0.335777
O19   O     O_3   0.333333 0.666667 0.250550 -0.290971
O20   O     O_R   0.658380 0.565900 0.829780 -0.507901
O21   O     O_R   0.092480 0.434100 0.170220 -0.517034
O22   O     O_R   0.341620 0.907520 0.170220 -0.515318
O23   O     O_R   0.565900 0.658380 0.170220 -0.514847
O24   O     O_R   0.477510 0.362730 0.824640 -0.508743
O25   O     O_R   0.637270 0.114780 0.824640 -0.485525
O26   O     O_R   0.885220 0.522490 0.824640 -0.494979

loop_
_geom_bond_atom_site_label_1
_geom_bond_atom_site_label_2
_ccdc_geom_bond_type
C22   H6    S    
C1    O24   A    
C12   O25   A    
C7    H13   S    
C4    C8    S    
C21   H7    S    
C18   H10   S    
C17   I6    S    
Cr1   O24   S    
Cr4   O21   S    
C33   O22   A    
Cr3   O18   S    
C27   H18   S    
C34   O11   A    
C21   C33   S    
Cr2   O13   S    
Cr5   O16   S    
C5    C36   S    
Cr6   O4    S    
C3    O8    A    
C9    C13   D    
C4    O9    A    
C20   H8    S    
C13   I2    S    
C31   O23   A    
C15   I4    S    
Cr1   O18   S    
C18   C30   D    
C26   H17   S    
C20   C28   D    
C7    C15   D    
C21   C27   D    
C35   O5    A    
C31   O2    A    
C12   O1    A    
Cr2   O6    S    
C1    C19   S    
C22   C31   S    
C18   C23   S    
C24   C25   D    
C36   O14   A    
C8    H12   S    
Cr2   O12   S    
C32   O21   A    
Cr1   O11   S    
Cr2   O25   S    
C28   H2    S    
C6    C34   S    
C29   H3    S    
Cr4   O19   S    
C24   C32   S    
Cr5   O9    S    
C12   C20   S    
C3    O16   A    
Cr6   O19   S    
C33   O4    A    
Cr1   O5    S    
C22   C26   D    
C9    H11   S    
C25   H16   S    
C19   C29   D    
Cr3   O26   S    
C2    O10   A    
Cr5   O3    S    
C25   C30   S    
Cr5   O22   S    
C11   C17   S    
C8    C14   D    
Cr2   O18   S    
C10   H1    S    
C14   C15   S    
C24   H5    S    
C7    C35   S    
Cr4   O15   S    
C30   H4    S    
Cr6   O17   S    
C6    H14   S    
C11   I1    S    
C32   O3    A    
Cr5   O19   S    
Cr6   O10   S    
C5    H15   S    
Cr6   O23   S    
Cr3   O14   S    
C3    C10   S    
C4    O17   A    
C14   I3    S    
Cr1   O1    S    
C35   O13   A    
Cr4   O8    S    
Cr3   O7    S    
C23   O12   A    
C10   C11   D    
C34   O7    A    
C6    C16   D    
C19   H9    S    
C1    O20   A    
C5    C17   D    
C26   C29   S    
Cr4   O2    S    
C13   C16   S    
C27   C28   S    
C23   O26   A    
C2    O15   A    
C16   I5    S    
Cr3   O20   S    
C2    C9    S    
C36   O6    A    
