data_mof_unit_49495.cif
_audit_creation_date              2012-12-11T14:29:36-0500
_audit_creation_method            fapswitch 2.2
_symmetry_space_group_name_H-M    P1
_symmetry_Int_Tables_number       1
_space_group_crystal_system       triclinic
_cell_length_a                    6.941217
_cell_length_b                    14.739117
_cell_length_c                    16.239804
_cell_angle_alpha                 90.511721
_cell_angle_beta                  89.933822
_cell_angle_gamma                 90.019424
_cell_volume                      1661.38481604

loop_
_atom_site_label
_atom_site_type_symbol
_atom_type_description
_atom_site_fract_x
_atom_site_fract_y
_atom_site_fract_z
_atom_type_partial_charge
O1    O     O_R   0.494400 0.416610 0.413880 -0.549927
O2    O     O_R   0.823920 0.406790 0.585520 -0.542259
O3    O     O_R   0.994250 0.583390 0.586120 -0.540475
C1    C     C_R   0.654616 0.385139 0.613587 0.776875
O4    O     O_R   0.824110 0.405730 0.414490 -0.547929
O5    O     O_R   0.994440 0.582310 0.413870 -0.568378
C2    C     C_R   0.654915 0.383691 0.386334 0.719709
O6    O     O_R   0.494210 0.417690 0.586130 -0.512788
O7    O     O_3   0.660810 0.557940 0.500000 -0.372223
V1    V     V_3+5 0.935650 0.489250 0.500000 1.459071
O8    O     O_R   0.324160 0.593210 0.414480 -0.516331
C3    C     C_R   0.155563 0.615810 0.387114 0.614710
O9    O     O_R   0.323970 0.594270 0.585510 -0.519765
C4    C     C_R   0.155070 0.615561 0.614372 0.829039
V2    V     V_3+5 0.435660 0.510750 0.500000 1.531003
O10   O     O_3   0.160630 0.442060 0.500000 -0.373298
C5    C     C_R   0.271495 0.569719 0.783399 0.498277
C6    C     C_R   0.331559 0.548395 0.862866 0.634034
C7    C     C_R   0.323723 0.613034 0.925396 -0.297854
C8    C     C_R   0.254543 0.699611 0.909469 -0.247715
C9    C     C_R   0.193993 0.724251 0.829549 0.015318
C10   C     C_R   0.204370 0.658489 0.764447 -0.131170
C11   C     C_R   0.119968 0.812345 0.814715 -0.119719
C12   C     C_R   0.057382 0.835355 0.734531 0.074419
C13   C     C_R   0.070481 0.770752 0.668966 0.050155
C14   C     C_R   0.144338 0.682460 0.683558 -0.155339
C15   C     C_R   0.984585 0.923007 0.717703 -0.153195
C16   C     C_R   0.925410 0.946244 0.638727 -0.126256
C17   C     C_R   0.938787 0.883441 0.574693 -0.096313
C18   C     C_R   0.011020 0.796853 0.589177 -0.133112
H1    H     H_    0.369404 0.595713 0.987021 0.174955
H2    H     H_    0.247832 0.746617 0.960914 0.149229
H3    H     H_    0.869957 0.013580 0.627095 0.116256
H4    H     H_    0.020459 0.751061 0.536915 0.093736
C19   C     C_2   0.990371 0.707721 0.281055 -0.230880
C20   C     C_2   0.151258 0.687758 0.324137 0.452961
H5    H     H_    0.858072 0.671396 0.294612 0.121920
C21   C     C_2   0.975869 0.779641 0.217206 -0.089149
C22   C     C_2   0.126253 0.810348 0.173001 -0.264804
H6    H     H_    0.832646 0.805459 0.204289 0.148856
C23   C     C_2   0.779337 0.207926 0.781177 -0.119431
C24   C     C_2   0.614302 0.179679 0.816706 -0.274500
H7    H     H_    0.915380 0.179817 0.801856 0.138622
C25   C     C_2   0.791238 0.276377 0.714193 -0.126548
C26   C     C_2   0.638087 0.317744 0.680095 -0.246801
H8    H     H_    0.934800 0.292840 0.692236 0.154328
C27   C     C_2   0.779161 0.208982 0.213891 -0.121410
C28   C     C_2   0.614035 0.181909 0.177364 -0.294056
H9    H     H_    0.914924 0.180230 0.193002 0.138435
H10   H     H_    0.476587 0.209998 0.196071 0.128624
C29   C     C_2   0.791718 0.277510 0.281808 -0.130189
C30   C     C_2   0.638386 0.315398 0.319578 -0.298231
H11   H     H_    0.935654 0.296704 0.301528 0.133946
O11   O     O_R   0.770210 0.079270 0.910680 -0.542593
O12   O     O_R   0.440150 0.091160 0.082270 -0.542883
O13   O     O_R   0.269970 0.914530 0.082860 -0.540954
C31   C     C_R   0.608778 0.113266 0.110480 0.754820
O14   O     O_R   0.440480 0.090100 0.911240 -0.542256
O15   O     O_R   0.270310 0.913460 0.910610 -0.538867
C32   C     C_R   0.609238 0.111755 0.883135 0.745108
O16   O     O_R   0.769870 0.080340 0.082930 -0.539023
O17   O     O_3   0.603660 0.938980 0.996790 -0.371302
V3    V     V_3+5 0.328750 0.007610 0.996740 1.438940
O18   O     O_R   0.940600 0.902510 0.911180 -0.540448
C33   C     C_R   0.109543 0.880719 0.882793 0.684178
O19   O     O_R   0.940270 0.903570 0.082200 -0.539790
C34   C     C_R   0.109504 0.881180 0.109614 0.707439
V4    V     V_3+5 0.828770 0.986010 0.996670 1.438925
O20   O     O_3   0.103730 0.054750 0.996710 -0.370801
H12   H     H_    0.893778 0.902013 0.513297 0.124317
F1    F     F_    0.315813 0.736473 0.313910 -0.697033
H13   H     H_    0.268667 0.782129 0.181576 0.205277
H14   H     H_    0.476359 0.206227 0.797444 0.143712
H15   H     H_    0.493279 0.302632 0.700590 0.160777
F2    F     F_    0.275882 0.501590 0.726725 -0.675787
H16   H     H_    0.493313 0.296837 0.301775 0.128949
F3    F     F_    0.396007 0.463641 0.879588 -0.649019
H17   H     H_    0.973460 0.974806 0.765080 0.103881

loop_
_geom_bond_atom_site_label_1
_geom_bond_atom_site_label_2
_ccdc_geom_bond_type
O19   V4    S    
C23   C24   D    
C7    C8    A    
C12   C15   A    
C1    O6    A    
C15   H17   S    
C7    H1    S    
C28   C31   S    
C27   H9    S    
O11   C32   A    
C17   C18   A    
O18   V4    S    
C16   C17   A    
C19   H5    S    
C2    C30   S    
O5    C3    A    
C21   C22   D    
O11   V4    S    
O14   C32   A    
V2    O10   S    
O14   V3    S    
C6    C7    A    
O8    V2    S    
V3    O20   S    
V4    O20   S    
O12   V3    S    
C11   C12   A    
O1    V2    S    
C3    C20   S    
O7    V1    S    
C20   F1    S    
C28   H10   S    
O19   C34   A    
O9    C4    A    
C23   H7    S    
C25   H8    S    
C1    C26   S    
C9    C11   A    
C18   H4    S    
C29   C30   D    
C19   C21   S    
C12   C13   A    
C24   C32   S    
O4    C2    A    
C27   C29   S    
C13   C14   A    
C26   H15   S    
C29   H11   S    
C19   C20   D    
O2    C1    A    
O17   V3    S    
C27   C28   D    
C22   H13   S    
C5    C6    A    
O13   V3    S    
C4    C14   S    
O3    C4    A    
C16   H3    S    
O6    V2    S    
O12   C31   A    
C23   C25   S    
O2    V1    S    
C25   C26   D    
C17   H12   S    
C8    H2    S    
C13   C18   A    
C24   H14   S    
O1    C2    A    
C22   C34   S    
C30   H16   S    
O5    V1    S    
O8    C3    A    
C31   O16   A    
O13   C34   A    
O15   V3    S    
C5    C10   A    
O17   V4    S    
O18   C33   A    
C11   C33   S    
O9    V2    S    
O7    V2    S    
O4    V1    S    
O3    V1    S    
V1    O10   S    
O15   C33   A    
C21   H6    S    
O16   V4    S    
C6    F3    S    
C8    C9    A    
C10   C14   A    
C15   C16   A    
C5    F2    S    
C9    C10   A    
