data_mof_unit_39258.cif
_audit_creation_date              2012-12-10T18:03:34-0500
_audit_creation_method            fapswitch 2.2
_symmetry_space_group_name_H-M    P1
_symmetry_Int_Tables_number       1
_space_group_crystal_system       triclinic
_cell_length_a                    10.828667
_cell_length_b                    9.634579
_cell_length_c                    19.382071
_cell_angle_alpha                 89.712472
_cell_angle_beta                  92.672636
_cell_angle_gamma                 90.006171
_cell_volume                      2019.89963976

loop_
_atom_site_label
_atom_site_type_symbol
_atom_type_description
_atom_site_fract_x
_atom_site_fract_y
_atom_site_fract_z
_atom_type_partial_charge
C1    C     C_R   0.871627 0.500004 0.500070 -0.038179
C2    C     C_R   0.128373 0.499995 0.499930 -0.038178
C3    C     C_R   0.571618 0.598776 0.965349 0.280307
C4    C     C_R   0.428385 0.401222 0.034651 0.280305
C5    C     C_R   0.570404 0.599124 0.038312 0.280313
C6    C     C_R   0.429599 0.400874 0.961688 0.280315
C7    C     C_R   0.501277 0.498094 0.072035 -0.006581
C8    C     C_R   0.498726 0.501905 0.927965 -0.006581
C9    C     C_R   0.262398 0.499997 0.499861 0.792318
C10   C     C_R   0.737602 0.500003 0.500139 0.792319
C11   C     C_R   0.500760 0.500320 0.368025 0.869714
C12   C     C_R   0.499239 0.499680 0.631975 0.869713
C13   C     C_R   0.063796 0.373923 0.499180 -0.137123
C14   C     C_R   0.936204 0.626077 0.500820 -0.137123
C15   C     C_R   0.936019 0.373927 0.499219 -0.130763
C16   C     C_R   0.063981 0.626073 0.500782 -0.130763
C17   C     C_R   0.587736 0.422404 0.745789 0.328058
C18   C     C_R   0.412266 0.577599 0.254210 0.328056
C19   C     C_R   0.593127 0.423594 0.258295 0.289406
C20   C     C_R   0.406870 0.576403 0.741706 0.289412
C21   C     C_R   0.588056 0.421936 0.818782 0.099225
C22   C     C_R   0.411948 0.578067 0.181217 0.099219
C23   C     C_R   0.589141 0.420449 0.186195 0.215167
C24   C     C_R   0.410858 0.579548 0.813806 0.215167
C25   C     C_R   0.499777 0.501562 0.852162 0.022385
C26   C     C_R   0.500225 0.498437 0.147838 0.022388
C27   C     C_R   0.406808 0.073703 0.466300 0.428338
C28   C     C_R   0.593192 0.926297 0.533699 0.428337
C29   C     C_R   0.593191 0.072964 0.533680 0.422420
C30   C     C_R   0.406809 0.927036 0.466320 0.422419
C31   C     C_R   0.496722 0.498747 0.707605 -0.235400
C32   C     C_R   0.503277 0.501253 0.292395 -0.235395
Cu1   Cu    Cu3+1 0.500000 0.640660 0.500000 0.987290
Cu2   Cu    Cu3+1 0.500000 0.359340 0.500000 0.987292
H1    H     H_    0.111652 0.275276 0.498564 0.201944
H2    H     H_    0.888348 0.724724 0.501436 0.201945
H3    H     H_    0.888011 0.275290 0.498531 0.201773
H4    H     H_    0.111989 0.724710 0.501470 0.201773
N1    N     N_R   0.500000 0.852070 0.500000 -0.336683
N2    N     N_R   0.500000 0.147930 0.500000 -0.336683
O1    O     O_R   0.319640 0.618740 0.500000 -0.581582
O2    O     O_R   0.680360 0.381260 0.500000 -0.581581
O3    O     O_R   0.680360 0.618740 0.500000 -0.581909
O4    O     O_R   0.319640 0.381260 0.500000 -0.581909
O5    O     O_R   0.500020 0.618830 0.400190 -0.562249
O6    O     O_R   0.499980 0.381170 0.599810 -0.562249
O7    O     O_R   0.499980 0.618830 0.599810 -0.602172
O8    O     O_R   0.500020 0.381170 0.400190 -0.602168
O9    O     O_3   0.310578 0.137751 0.429974 -0.664605
H5    H     H_    0.342603 0.222842 0.409217 0.369764
O10   O     O_3   0.689422 0.862248 0.570026 -0.664605
H6    H     H_    0.657397 0.777158 0.590783 0.369764
O11   O     O_3   0.689234 0.136259 0.570111 -0.655227
H7    H     H_    0.657187 0.221690 0.590003 0.395080
O12   O     O_3   0.310765 0.863741 0.429889 -0.655228
H8    H     H_    0.342812 0.778309 0.409997 0.395080
O13   O     O_3   0.675239 0.352232 0.709611 -0.710760
H9    H     H_    0.741684 0.316619 0.741397 0.368919
O14   O     O_3   0.324765 0.647772 0.290389 -0.710762
H10   H     H_    0.258329 0.683401 0.258601 0.368921
O15   O     O_3   0.687031 0.351116 0.293274 -0.662981
H11   H     H_    0.699856 0.388074 0.340576 0.326335
O16   O     O_3   0.312964 0.648878 0.706727 -0.662985
H12   H     H_    0.300145 0.611928 0.659423 0.326338
I1    I     I_    0.718181 0.300148 0.880256 -0.207935
I2    I     I_    0.281826 0.699857 0.119742 -0.207941
I3    I     I_    0.723401 0.299679 0.136005 -0.116023
I4    I     I_    0.276595 0.700313 0.863996 -0.116023
O17   O     O_3   0.644601 0.688322 0.929050 -0.682418
H13   H     H_    0.718236 0.713382 0.958559 0.358575
O18   O     O_3   0.355403 0.311676 0.070950 -0.682418
H14   H     H_    0.281766 0.286619 0.041442 0.358574
O19   O     O_3   0.632386 0.697880 0.078104 -0.683068
H15   H     H_    0.638373 0.784432 0.050717 0.358323
O20   O     O_3   0.367618 0.302118 0.921895 -0.683068
H16   H     H_    0.361626 0.215567 0.949284 0.358324

loop_
_geom_bond_atom_site_label_1
_geom_bond_atom_site_label_2
_ccdc_geom_bond_type
O12   H8    S    
C10   O2    A    
Cu1   O5    S    
O19   H15   S    
Cu2   O2    S    
C6    O20   S    
O11   H7    S    
Cu1   N1    S    
C7    C26   S    
Cu2   N2    S    
C28   C29   A    
C3    O17   S    
C13   H1    S    
C12   O7    A    
C14   H2    S    
C28   O10   S    
C23   C26   A    
C23   I3    S    
C2    C13   A    
C22   I2    S    
C15   H3    S    
C20   C24   A    
C1    C15   A    
C2    C16   A    
O14   H10   S    
C27   C30   A    
C8    C25   S    
C11   O8    A    
O15   H11   S    
C4    C7    A    
C19   C32   A    
O10   H6    S    
Cu1   O3    S    
Cu2   O4    S    
C24   C25   A    
C4    C6    A    
C3    C8    A    
C5    C7    A    
C6    C8    A    
C28   N1    A    
C17   C21   A    
C19   C23   A    
O20   H16   S    
C27   N2    A    
Cu1   Cu2   S    
Cu2   O6    S    
C12   O6    A    
C11   C32   S    
C13   C15   A    
C12   C31   S    
C17   C31   A    
C14   C16   A    
C11   O5    A    
Cu2   O8    S    
C21   C25   A    
C9    O4    A    
C21   I1    S    
C10   O3    A    
C18   C22   A    
C1    C10   S    
C3    C5    A    
C30   O12   S    
C9    O1    A    
Cu1   O1    S    
C20   O16   S    
O18   H14   S    
O13   H9    S    
C29   O11   S    
C19   O15   S    
Cu1   O7    S    
C29   N2    A    
C30   N1    A    
C5    O19   S    
O17   H13   S    
C24   I4    S    
O16   H12   S    
C18   O14   S    
C18   C32   A    
O9    H5    S    
C22   C26   A    
C17   O13   S    
C1    C14   A    
C2    C9    S    
C4    O18   S    
C27   O9    S    
C16   H4    S    
C20   C31   A    
