data_mof_unit_62870.cif
_audit_creation_date              2012-12-10T20:00:26-0500
_audit_creation_method            fapswitch 2.2
_symmetry_space_group_name_H-M    P1
_symmetry_Int_Tables_number       1
_space_group_crystal_system       triclinic
_cell_length_a                    14.957378
_cell_length_b                    14.175124
_cell_length_c                    15.869822
_cell_angle_alpha                 89.9937
_cell_angle_beta                  90.030779
_cell_angle_gamma                 89.988438
_cell_volume                      3364.76174199

loop_
_atom_site_label
_atom_site_type_symbol
_atom_type_description
_atom_site_fract_x
_atom_site_fract_y
_atom_site_fract_z
_atom_type_partial_charge
C1    C     C_R   0.328122 0.500007 0.500023 0.874185
C2    C     C_R   0.541874 0.795480 0.563112 0.036437
C3    C     C_R   0.570316 0.204426 0.533851 0.039409
C4    C     C_R   0.458129 0.795515 0.436889 0.036979
C5    C     C_R   0.500001 0.053334 0.500001 0.135907
C6    C     C_R   0.500002 0.946603 0.500001 0.129812
C7    C     C_R   0.499920 0.500011 0.339376 0.914379
C8    C     C_R   0.500060 0.499999 0.660620 0.913994
C9    C     C_R   0.511154 0.585809 0.955942 -0.053336
C10   C     C_R   0.487777 0.414418 0.044027 -0.053555
C11   C     C_R   0.510915 0.585851 0.044015 -0.052992
C12   C     C_R   0.671875 0.499992 0.500037 0.874242
C13   C     C_R   0.487809 0.414408 0.955958 -0.055092
C14   C     C_R   0.499588 0.500088 0.912729 0.030664
C15   C     C_R   0.499341 0.500136 0.087248 0.031653
C16   C     C_1   0.499807 0.500043 0.823404 -0.018839
C17   C     C_1   0.499504 0.500105 0.176580 -0.017630
C18   C     C_1   0.499699 0.500051 0.251252 -0.143988
C19   C     C_1   0.499958 0.500009 0.748736 -0.144568
C20   C     C_R   0.093473 0.542111 0.433345 -0.200012
C21   C     C_R   0.906442 0.458093 0.433274 -0.202665
C22   C     C_R   0.906395 0.541807 0.567226 -0.199976
C23   C     C_R   0.048010 0.500053 0.500266 0.085100
C24   C     C_R   0.093671 0.458031 0.567133 -0.202712
C25   C     C_R   0.185983 0.542855 0.432994 -0.019632
C26   C     C_R   0.813936 0.457366 0.432918 -0.024389
C27   C     C_R   0.813879 0.542585 0.567422 -0.020001
C28   C     C_R   0.186183 0.457271 0.567335 -0.024735
C29   C     C_R   0.232280 0.500031 0.500112 -0.111947
C30   C     C_R   0.767713 0.499971 0.500132 -0.111868
C31   C     C_1   0.522495 0.673571 0.090064 0.198321
C32   C     C_1   0.475821 0.326747 0.909908 0.201254
C33   C     C_1   0.523298 0.673432 0.909861 0.201165
C34   C     C_R   0.951980 0.499955 0.500277 0.085072
C35   C     C_1   0.475973 0.326731 0.090081 0.199423
C36   C     C_1   0.231954 0.585656 0.362514 0.158413
C37   C     C_1   0.767900 0.414931 0.362274 0.168102
C38   C     C_1   0.767767 0.585288 0.637868 0.157809
C39   C     C_1   0.232353 0.414564 0.637795 0.167687
C40   C     C_R   0.428206 0.105230 0.465742 -0.261701
C41   C     C_R   0.542435 0.894711 0.564468 -0.261903
C42   C     C_R   0.571796 0.105191 0.534258 -0.262215
C43   C     C_R   0.457570 0.894747 0.435533 -0.261756
C44   C     C_R   0.429685 0.204464 0.466147 0.040849
H1    H     H_    0.056626 0.574590 0.382056 0.148451
H2    H     H_    0.574836 0.756719 0.612954 0.146037
H3    H     H_    0.625865 0.243061 0.560529 0.132819
H4    H     H_    0.425167 0.756780 0.387047 0.144869
H5    H     H_    0.943227 0.425782 0.381906 0.147488
H6    H     H_    0.943147 0.574162 0.618622 0.148364
H7    H     H_    0.056978 0.425562 0.618480 0.147392
H8    H     H_    0.370406 0.069751 0.439762 0.140361
H9    H     H_    0.574893 0.930189 0.616499 0.146161
H10   H     H_    0.629597 0.069681 0.560236 0.140246
H11   H     H_    0.425112 0.930252 0.383502 0.145784
H12   H     H_    0.374138 0.243128 0.439464 0.133383
N1    N     N_R   0.500000 0.252470 0.500000 -0.096568
N2    N     N_1   0.269402 0.380461 0.694137 -0.184960
N3    N     N_R   0.500000 0.747530 0.500000 -0.101104
N4    N     N_1   0.531692 0.743416 0.126819 -0.185462
N5    N     N_1   0.466272 0.256955 0.873155 -0.177729
N6    N     N_1   0.532977 0.743183 0.873070 -0.186397
N7    N     N_1   0.466586 0.256910 0.126832 -0.183034
N8    N     N_1   0.268853 0.619840 0.306169 -0.204796
N9    N     N_1   0.730958 0.381053 0.305779 -0.187105
N10   N     N_1   0.730760 0.619401 0.694184 -0.202302
O1    O     O_R   0.369060 0.579480 0.500010 -0.612581
O2    O     O_R   0.630940 0.420520 0.499990 -0.626596
O3    O     O_R   0.630940 0.579480 0.499990 -0.612099
O4    O     O_R   0.369060 0.420520 0.500010 -0.626287
O5    O     O_R   0.499980 0.579460 0.378020 -0.619580
O6    O     O_R   0.500020 0.420540 0.621980 -0.607761
O7    O     O_R   0.500020 0.579460 0.621980 -0.619878
O8    O     O_R   0.499980 0.420540 0.378020 -0.607504
Zn1   Zn    Zn3+2 0.500000 0.606140 0.500000 0.972076
Zn2   Zn    Zn3+2 0.500000 0.393860 0.500000 0.972969

loop_
_geom_bond_atom_site_label_1
_geom_bond_atom_site_label_2
_ccdc_geom_bond_type
C5    C42   A    
C3    C42   A    
C13   C32   S    
C12   O3    A    
C21   H5    S    
C2    H2    S    
C12   O2    A    
O8    Zn2   S    
N1    Zn2   S    
C28   C29   A    
C32   N5    T    
C10   C15   A    
C7    O5    A    
C5    C6    S    
C20   C25   A    
C2    C41   A    
C11   C15   A    
C38   N10   T    
C33   N6    T    
C6    C41   A    
C37   N9    T    
C23   C24   A    
C10   C35   S    
C20   H1    S    
O6    Zn2   S    
C22   H6    S    
C23   C34   S    
C24   H7    S    
C11   C31   S    
C13   C14   A    
C27   C30   A    
C9    C33   S    
O7    Zn1   S    
C21   C26   A    
C7    O8    A    
C25   C29   A    
C22   C34   A    
C8    O6    A    
C8    C19   S    
C2    N3    A    
C21   C34   A    
C28   C39   S    
C40   H8    S    
C39   N2    T    
C31   N4    T    
C9    C14   A    
C44   H12   S    
C20   C23   A    
C44   N1    A    
C7    C18   S    
C1    C29   S    
C17   C18   T    
C9    C11   A    
C41   H9    S    
C3    N1    A    
C43   H11   S    
C26   C30   A    
C22   C27   A    
O4    Zn2   S    
C14   C16   S    
O1    Zn1   S    
N3    Zn1   S    
C4    H4    S    
C15   C17   S    
C12   C30   S    
C24   C28   A    
C10   C13   A    
C26   C37   S    
C4    C43   A    
O2    Zn2   S    
C1    O4    A    
C6    C43   A    
C42   H10   S    
O5    Zn1   S    
C16   C19   T    
C4    N3    A    
C3    H3    S    
C8    O7    A    
C1    O1    A    
O3    Zn1   S    
C25   C36   S    
C40   C44   A    
C5    C40   A    
C35   N7    T    
C27   C38   S    
C36   N8    T    
