data_mof_unit_35438.cif
_audit_creation_date              2012-12-10T17:32:35-0500
_audit_creation_method            fapswitch 2.2
_symmetry_space_group_name_H-M    P1
_symmetry_Int_Tables_number       1
_space_group_crystal_system       triclinic
_cell_length_a                    12.13122
_cell_length_b                    12.786333
_cell_length_c                    14.122534
_cell_angle_alpha                 91.084967
_cell_angle_beta                  87.493231
_cell_angle_gamma                 94.734036
_cell_volume                      2180.77951005

loop_
_atom_site_label
_atom_site_type_symbol
_atom_type_description
_atom_site_fract_x
_atom_site_fract_y
_atom_site_fract_z
_atom_type_partial_charge
C1    C     C_R   0.523057 0.699900 0.498896 0.874347
C2    C     C_R   0.137814 0.451967 0.464866 0.048715
C3    C     C_R   0.979066 0.540745 0.529725 -0.029490
C4    C     C_R   0.021590 0.465127 0.465420 -0.028012
C5    C     C_R   0.500737 0.500017 0.670464 0.881324
C6    C     C_R   0.499106 0.499617 0.329533 0.878323
C7    C     C_1   0.501545 0.498993 0.771936 -0.195343
C8    C     C_1   0.497443 0.499167 0.228057 -0.226023
C9    C     C_1   0.500839 0.498445 0.857298 -0.020826
C10   C     C_1   0.497353 0.498749 0.142708 -0.018449
C11   C     C_1   0.499524 0.498286 0.957300 -0.006485
C12   C     C_R   0.477104 0.300142 0.501596 0.875314
C13   C     C_1   0.498329 0.498399 0.042694 0.002988
C14   C     C_R   0.462455 0.188843 0.509837 -0.093609
C15   C     C_R   0.538661 0.811292 0.491479 -0.123005
C16   C     C_R   0.579609 0.960730 0.391560 -0.162137
C17   C     C_R   0.422499 0.039641 0.610236 -0.170910
C18   C     C_R   0.587339 0.855450 0.407620 0.030731
C19   C     C_R   0.415184 0.145023 0.594346 0.029168
C20   C     C_R   0.488194 0.872705 0.561546 0.006897
C21   C     C_R   0.513187 0.127421 0.439881 0.008311
C22   C     C_R   0.181976 0.356690 0.422800 0.175712
C23   C     C_R   0.478278 0.978074 0.543853 0.089817
C24   C     C_R   0.233282 0.357144 0.331711 -0.117455
C25   C     C_R   0.270001 0.264682 0.291733 -0.186497
C26   C     C_R   0.254685 0.171047 0.341913 -0.121258
C27   C     C_R   0.202588 0.169687 0.432159 -0.136864
C28   C     C_R   0.166191 0.262085 0.472576 -0.163143
C29   C     C_R   0.810671 0.598066 0.622244 0.173901
C30   C     C_R   0.779318 0.700585 0.613294 -0.121095
C31   C     C_R   0.737684 0.754486 0.692278 -0.184456
C32   C     C_R   0.727790 0.706764 0.780786 -0.123777
C33   C     C_R   0.760357 0.605324 0.790579 -0.143442
C34   C     C_R   0.523119 0.022097 0.457627 0.083839
C35   C     C_R   0.801437 0.550874 0.711634 -0.148931
C36   C     C_R   0.945673 0.406698 0.404949 -0.002551
C37   C     C_R   0.056931 0.610452 0.579237 -0.005011
C38   C     C_R   0.832681 0.417208 0.416268 0.014463
C39   C     C_R   0.169456 0.597337 0.569909 0.018717
C40   C     C_R   0.861132 0.542183 0.541177 0.048166
H1    H     H_    0.616077 0.993281 0.326025 0.184292
H2    H     H_    0.423616 0.266664 0.688772 0.181296
H3    H     H_    0.706657 0.761098 0.364415 0.204821
H4    H     H_    0.583022 0.733552 0.313338 0.185968
H5    H     H_    0.241946 0.428292 0.290739 0.133011
H6    H     H_    0.309600 0.265476 0.221545 0.140148
H7    H     H_    0.283250 0.099556 0.310901 0.141337
H8    H     H_    0.190762 0.097131 0.470926 0.141729
H9    H     H_    0.125160 0.259994 0.542268 0.118596
H10   H     H_    0.790001 0.739675 0.545739 0.128324
H11   H     H_    0.714186 0.833682 0.684997 0.143304
H12   H     H_    0.386703 0.007244 0.676059 0.186242
H13   H     H_    0.695653 0.748639 0.841906 0.138443
H14   H     H_    0.753546 0.568779 0.859318 0.142457
H15   H     H_    0.826990 0.472521 0.720125 0.125365
H16   H     H_    0.008066 0.274727 0.347000 0.211849
H17   H     H_    0.035109 0.388241 0.281149 0.194435
H18   H     H_    0.987765 0.750302 0.590494 0.194251
H19   H     H_    0.985476 0.680580 0.695616 0.212588
H20   H     H_    0.227671 0.650178 0.606872 0.144484
H21   H     H_    0.775812 0.374191 0.369863 0.145169
H22   H     H_    0.625818 0.223009 0.363808 0.205390
H23   H     H_    0.495964 0.213287 0.321992 0.183999
H24   H     H_    0.376948 0.776721 0.638399 0.203784
H25   H     H_    0.507017 0.787439 0.679409 0.181872
H26   H     H_    0.298429 0.241104 0.640126 0.207925
N1    N     N_R   0.207800 0.519340 0.515940 -0.131820
N2    N     N_R   0.792200 0.480660 0.484060 -0.131513
N3    N     N_3   0.556321 0.171666 0.351443 -0.481195
N4    N     N_3   0.446068 0.828599 0.650295 -0.479857
N5    N     N_3   0.365301 0.207010 0.667566 -0.456379
N6    N     N_3   0.639880 0.794012 0.335472 -0.455163
N7    N     N_3   0.978322 0.344123 0.325067 -0.478920
N8    N     N_3   0.029114 0.701471 0.632680 -0.481072
O1    O     O_R   0.421690 0.658830 0.504250 -0.617643
O2    O     O_R   0.578310 0.341170 0.495750 -0.622311
O3    O     O_R   0.609320 0.646410 0.494030 -0.621377
O4    O     O_R   0.390680 0.353590 0.505970 -0.601711
O5    O     O_R   0.406170 0.506210 0.631400 -0.609665
O6    O     O_R   0.593830 0.493790 0.368600 -0.605744
O7    O     O_R   0.593790 0.493790 0.621170 -0.579434
O8    O     O_R   0.406210 0.506210 0.378830 -0.596319
Zn1   Zn    Zn3+2 0.374720 0.508290 0.506830 0.928801
Zn2   Zn    Zn3+2 0.625280 0.491710 0.493170 0.928284

loop_
_geom_bond_atom_site_label_1
_geom_bond_atom_site_label_2
_ccdc_geom_bond_type
C27   H8    S    
C15   C18   A    
C37   N8    S    
C4    C36   A    
N1    Zn1   S    
H3    N6    S    
C6    O8    A    
C1    O3    A    
C19   N5    S    
O6    Zn2   S    
O2    Zn2   S    
C26   C27   A    
C17   C23   A    
C24   H5    S    
C14   C21   A    
C30   C31   A    
C38   N2    A    
H25   N4    S    
H17   N7    S    
C16   C34   A    
O4    Zn1   S    
C31   C32   A    
C12   O4    A    
C2    C22   S    
C1    C15   S    
H24   N4    S    
C5    O5    A    
C38   H21   S    
C30   H10   S    
C22   C28   A    
C20   N4    S    
C17   H12   S    
C18   N6    S    
C15   C20   A    
C35   H15   S    
N2    Zn2   S    
H23   N3    S    
C24   C25   A    
C2    N1    A    
C5    C7    S    
C17   C19   A    
C6    C8    S    
C21   C34   A    
O3    Zn2   S    
C25   C26   A    
H22   N3    S    
C21   N3    S    
C1    O1    A    
C2    C4    A    
C29   C30   A    
C5    O7    A    
C28   H9    S    
C6    O6    A    
H26   N5    S    
C20   C23   A    
C23   C34   A    
C9    C11   S    
H19   N8    S    
C26   H7    S    
C16   C18   A    
C12   C14   S    
C3    C40   A    
C12   O2    A    
C22   C24   A    
C3    C4    A    
C32   H13   S    
O7    Zn2   S    
H18   N8    S    
C33   H14   S    
C7    C9    T    
H16   N7    S    
C39   N1    A    
C14   C19   A    
C31   H11   S    
C10   C13   S    
C29   C35   A    
C32   C33   A    
C36   C38   A    
C37   C39   A    
O5    Zn1   S    
C11   C13   T    
O1    Zn1   S    
C39   H20   S    
C25   H6    S    
C29   C40   S    
H2    N5    S    
C33   C35   A    
H4    N6    S    
C36   N7    S    
C3    C37   A    
C8    C10   T    
O8    Zn1   S    
C40   N2    A    
C27   C28   A    
C16   H1    S    
