data_mof_unit_12278.cif
_audit_creation_date              2012-12-11T15:10:44-0500
_audit_creation_method            fapswitch 2.2
_symmetry_space_group_name_H-M    P1
_symmetry_Int_Tables_number       1
_space_group_crystal_system       triclinic
_cell_length_a                    21.57825
_cell_length_b                    7.205171
_cell_length_c                    17.848967
_cell_angle_alpha                 90.000077
_cell_angle_beta                  93.112908
_cell_angle_gamma                 90.0
_cell_volume                      2770.97308877

loop_
_atom_site_label
_atom_site_type_symbol
_atom_type_description
_atom_site_fract_x
_atom_site_fract_y
_atom_site_fract_z
_atom_type_partial_charge
O1    O     O_R   0.448880 0.506250 0.415280 -0.519102
O2    O     O_R   0.551120 0.006250 0.584720 -0.519103
O3    O     O_R   0.434830 0.174000 0.557310 -0.527726
O4    O     O_R   0.565170 0.674000 0.442690 -0.527726
C1    C     C_R   0.417015 0.344744 0.579809 0.749905
C2    C     C_R   0.582985 0.844744 0.420191 0.749905
O5    O     O_R   0.441680 0.176440 0.414130 -0.549459
O6    O     O_R   0.558320 0.676440 0.585870 -0.549459
O7    O     O_R   0.558020 0.007570 0.440520 -0.517753
O8    O     O_R   0.441980 0.507570 0.559480 -0.517753
C3    C     C_R   0.428131 0.344954 0.387638 0.851966
C4    C     C_R   0.571869 0.844954 0.612362 0.851967
O9    O     O_3   0.538160 0.339670 0.508820 -0.382552
O10   O     O_3   0.461840 0.839670 0.491180 -0.382552
V1    V     V_3+5 0.492920 0.064260 0.498360 1.401585
V2    V     V_3+5 0.507080 0.564260 0.501640 1.401586
C5    C     C_R   0.876024 0.960714 0.679289 -0.014275
C6    C     C_R   0.123976 0.460715 0.320711 -0.014275
C7    C     C_R   0.887352 0.937227 0.816380 -0.137102
C8    C     C_R   0.112648 0.437228 0.183620 -0.137102
C9    C     C_R   0.587085 0.796172 0.749202 0.380379
C10   C     C_R   0.412915 0.296171 0.250798 0.380379
C11   C     C_R   0.625948 0.755278 0.812802 -0.043006
C12   C     C_R   0.374052 0.255277 0.187198 -0.043007
C13   C     C_R   0.690063 0.762476 0.808165 -0.215673
C14   C     C_R   0.309937 0.262476 0.191835 -0.215673
C15   C     C_R   0.717965 0.846951 0.747576 0.006314
C16   C     C_R   0.282035 0.346950 0.252424 0.006314
C17   C     C_R   0.679290 0.879488 0.681169 -0.148512
C18   C     C_R   0.320710 0.379488 0.318831 -0.148512
C19   C     C_R   0.783589 0.891440 0.749992 -0.015495
C20   C     C_R   0.216411 0.391440 0.250008 -0.015495
C21   C     C_R   0.811255 0.922123 0.680315 -0.099489
C22   C     C_R   0.188745 0.422124 0.319685 -0.099488
C23   C     C_R   0.772719 0.918395 0.612956 0.362362
C24   C     C_R   0.227280 0.418396 0.387044 0.362361
C25   C     C_R   0.708213 0.931325 0.615594 0.321200
C26   C     C_R   0.291787 0.431326 0.384406 0.321200
C27   C     C_R   0.822107 0.911535 0.818595 -0.031147
C28   C     C_R   0.177893 0.411535 0.181405 -0.031147
C29   C     C_R   0.913867 0.960021 0.746467 -0.077853
C30   C     C_R   0.086133 0.460021 0.253532 -0.077853
C31   C     C_R   0.613483 0.849398 0.681809 -0.175506
C32   C     C_R   0.386517 0.349398 0.318191 -0.175506
H1    H     H_    0.717419 0.698752 0.852917 0.154800
H2    H     H_    0.282580 0.198752 0.147083 0.154800
C33   C     C_1   0.866106 0.939997 0.134315 -0.184509
C34   C     C_1   0.133894 0.439997 0.865685 -0.184509
C35   C     C_1   0.823542 0.926858 0.178537 -0.029546
C36   C     C_1   0.176458 0.426858 0.821463 -0.029547
C37   C     C_1   0.772914 0.907959 0.230548 -0.033691
C38   C     C_1   0.227085 0.407959 0.769452 -0.033691
C39   C     C_1   0.730074 0.891002 0.274161 -0.007629
C40   C     C_1   0.269925 0.391002 0.725839 -0.007629
C41   C     C_1   0.679044 0.871279 0.325584 -0.003329
C42   C     C_1   0.320956 0.371279 0.674416 -0.003329
C43   C     C_1   0.635726 0.856666 0.368655 -0.191218
C44   C     C_1   0.364274 0.356667 0.631345 -0.191219
O11   O     O_R   0.058070 0.289240 0.940580 -0.517808
O12   O     O_R   0.941930 0.789240 0.059420 -0.517808
O13   O     O_R   0.058330 0.616740 0.085880 -0.530583
O14   O     O_R   0.941670 0.116740 0.914120 -0.530583
C45   C     C_R   0.071729 0.448201 0.112884 0.723029
C46   C     C_R   0.928271 0.948201 0.887116 0.723031
O15   O     O_R   0.065180 0.619040 0.942700 -0.521940
O16   O     O_R   0.934820 0.119040 0.057300 -0.521940
O17   O     O_R   0.948870 0.787780 0.915270 -0.537218
O18   O     O_R   0.051130 0.287780 0.084730 -0.537218
C47   C     C_R   0.082590 0.450462 0.919265 0.721994
C48   C     C_R   0.917410 0.950462 0.080735 0.721994
O19   O     O_3   0.961870 0.453310 0.991210 -0.369359
O20   O     O_3   0.038130 0.953310 0.008790 -0.369359
V3    V     V_3+5 0.007070 0.728770 0.001630 1.414524
V4    V     V_3+5 0.992930 0.228770 0.998370 1.414524
C49   C     C_R   0.981711 0.989314 0.742832 0.090522
C50   C     C_R   0.005015 0.165716 0.726153 -0.128034
C51   C     C_R   0.068063 0.188919 0.714631 -0.129528
C52   C     C_R   0.108383 0.037213 0.721117 -0.086407
C53   C     C_R   0.085642 0.861982 0.739027 -0.132950
C54   C     C_R   0.022439 0.837619 0.749694 -0.136063
H3    H     H_    0.974094 0.283855 0.720219 0.094198
H4    H     H_    0.085532 0.324299 0.700090 0.111972
H5    H     H_    0.157180 0.055228 0.711934 0.113630
H6    H     H_    0.116827 0.744513 0.743383 0.119950
H7    H     H_    0.005034 0.700317 0.761624 0.096137
C55   C     C_R   0.018289 0.489314 0.257168 0.090522
C56   C     C_R   0.994985 0.665717 0.273848 -0.128034
C57   C     C_R   0.931936 0.688920 0.285369 -0.129528
C58   C     C_R   0.891617 0.537215 0.278883 -0.086407
C59   C     C_R   0.914358 0.361983 0.260973 -0.132950
C60   C     C_R   0.977561 0.337620 0.250305 -0.136062
H8    H     H_    0.025906 0.783856 0.279782 0.094198
H9    H     H_    0.914468 0.824300 0.299911 0.111972
H10   H     H_    0.842819 0.555229 0.288065 0.113630
H11   H     H_    0.883173 0.244514 0.256616 0.119950
H12   H     H_    0.994965 0.200318 0.238376 0.096138
O21   O     O_3   0.797049 0.915827 0.542828 -0.536689
C61   C     C_3   0.792042 0.733826 0.513837 -0.195663
H13   H     H_    0.742692 0.692865 0.502663 0.146536
H14   H     H_    0.816237 0.631680 0.552064 0.099017
H15   H     H_    0.814794 0.729420 0.459591 0.158457
O22   O     O_3   0.202951 0.415829 0.457172 -0.536689
C62   C     C_3   0.207958 0.233827 0.486163 -0.195664
H16   H     H_    0.257308 0.192867 0.497337 0.146537
H17   H     H_    0.183763 0.131681 0.447936 0.099017
H18   H     H_    0.185206 0.229421 0.540408 0.158457
C63   C     C_R   0.903828 0.016410 0.608270 0.181961
C64   C     C_R   0.932599 0.883606 0.564269 -0.077109
C65   C     C_R   0.947674 0.927737 0.491108 -0.133401
C66   C     C_R   0.935651 0.105246 0.462336 -0.096512
C67   C     C_R   0.909004 0.239997 0.506833 -0.104574
C68   C     C_R   0.893252 0.196178 0.579688 -0.112840
H19   H     H_    0.939639 0.743456 0.584925 0.085596
H20   H     H_    0.966977 0.822896 0.455824 0.125383
H21   H     H_    0.946761 0.138111 0.405452 0.106878
H22   H     H_    0.899809 0.377573 0.484500 0.104858
H23   H     H_    0.870480 0.299410 0.612702 0.081658
C69   C     C_R   0.096171 0.516410 0.391730 0.181962
C70   C     C_R   0.067401 0.383605 0.435730 -0.077110
C71   C     C_R   0.052326 0.427736 0.508892 -0.133400
C72   C     C_R   0.064348 0.605245 0.537664 -0.096513
C73   C     C_R   0.090996 0.739996 0.493167 -0.104574
C74   C     C_R   0.106748 0.696178 0.420312 -0.112840
H24   H     H_    0.060361 0.243455 0.415075 0.085596
H25   H     H_    0.033023 0.322893 0.544176 0.125383
H26   H     H_    0.053238 0.638109 0.594548 0.106877
H27   H     H_    0.100190 0.877572 0.515501 0.104859
H28   H     H_    0.129520 0.799411 0.387299 0.081658
C75   C     C_R   0.794498 0.931481 0.892569 0.071119
C76   C     C_R   0.801694 0.790155 0.946737 -0.180238
C77   C     C_R   0.767019 0.794640 0.010593 -0.115077
C78   C     C_R   0.727866 0.944822 0.022974 -0.063431
C79   C     C_R   0.723205 0.090598 0.971397 -0.133783
C80   C     C_R   0.755993 0.083725 0.906068 -0.103299
H29   H     H_    0.830567 0.670658 0.936872 0.129205
H30   H     H_    0.770489 0.681546 0.050512 0.123226
H31   H     H_    0.701229 0.948387 0.072612 0.116086
H32   H     H_    0.693235 0.207082 0.981322 0.103295
H33   H     H_    0.750069 0.193978 0.865038 0.103856
C81   C     C_R   0.205502 0.431482 0.107431 0.071119
C82   C     C_R   0.198306 0.290156 0.053263 -0.180238
C83   C     C_R   0.232981 0.294641 0.989407 -0.115076
C84   C     C_R   0.272133 0.444823 0.977026 -0.063431
C85   C     C_R   0.276795 0.590600 0.028603 -0.133784
C86   C     C_R   0.244007 0.583726 0.093933 -0.103299
H34   H     H_    0.169433 0.170658 0.063128 0.129204
H35   H     H_    0.229511 0.181547 0.949487 0.123226
H36   H     H_    0.298771 0.448389 0.927388 0.116086
H37   H     H_    0.306764 0.707083 0.018678 0.103296
H38   H     H_    0.249930 0.693978 0.134962 0.103856
O23   O     O_3   0.523036 0.787682 0.752068 -0.566031
C87   C     C_3   0.503656 0.600326 0.751587 -0.250625
H39   H     H_    0.528624 0.512864 0.711484 0.126604
H40   H     H_    0.453614 0.595488 0.733893 0.158627
H41   H     H_    0.508736 0.539781 0.808732 0.144464
O24   O     O_3   0.476963 0.287681 0.247932 -0.566031
C88   C     C_3   0.496344 0.100325 0.248413 -0.250627
H42   H     H_    0.471376 0.012864 0.288517 0.126605
H43   H     H_    0.546387 0.095488 0.266105 0.158628
H44   H     H_    0.491263 0.039779 0.191268 0.144463
C89   C     C_R   0.601389 0.714340 0.886686 0.144742
C90   C     C_R   0.612294 0.540992 0.920942 -0.180319
C91   C     C_R   0.594638 0.509654 0.994127 -0.120156
C92   C     C_R   0.567045 0.651767 0.033902 -0.110267
C93   C     C_R   0.556372 0.824713 0.000271 -0.159821
C94   C     C_R   0.572987 0.855830 0.926667 -0.071607
H45   H     H_    0.634779 0.431172 0.891109 0.102538
H46   H     H_    0.602534 0.375624 0.020262 0.113617
H47   H     H_    0.553987 0.627892 0.090802 0.121141
H48   H     H_    0.536069 0.935389 0.031719 0.131171
H49   H     H_    0.565709 0.991780 0.901798 0.106365
C95   C     C_R   0.398610 0.214340 0.113314 0.144742
C96   C     C_R   0.387706 0.040991 0.079058 -0.180320
C97   C     C_R   0.405362 0.009654 0.005873 -0.120157
C98   C     C_R   0.432954 0.151767 0.966098 -0.110266
C99   C     C_R   0.443627 0.324713 0.999729 -0.159821
C100  C     C_R   0.427012 0.355830 0.073333 -0.071606
H50   H     H_    0.365221 0.931171 0.108891 0.102538
H51   H     H_    0.397466 0.875624 0.979738 0.113617
H52   H     H_    0.446012 0.127893 0.909197 0.121141
H53   H     H_    0.463930 0.435389 0.968280 0.131171
H54   H     H_    0.434290 0.491780 0.098202 0.106364
O25   O     O_3   0.674122 0.980274 0.550818 -0.562186
C101  C     C_3   0.680238 0.173661 0.540101 -0.142244
H55   H     H_    0.729349 0.216014 0.534396 0.132072
H56   H     H_    0.659971 0.252256 0.586577 0.113507
H57   H     H_    0.654538 0.213061 0.487064 0.163889
O26   O     O_3   0.325878 0.480275 0.449182 -0.562186
C102  C     C_3   0.319762 0.673662 0.459899 -0.142244
H58   H     H_    0.270650 0.716014 0.465605 0.132072
H59   H     H_    0.340029 0.752257 0.413423 0.113506
H60   H     H_    0.345462 0.713062 0.512936 0.163889

loop_
_geom_bond_atom_site_label_1
_geom_bond_atom_site_label_2
_ccdc_geom_bond_type
C95   C100  A    
C54   H7    S    
C56   C57   A    
C88   H42   S    
C15   C17   A    
C63   C68   A    
C67   C68   A    
O1    C3    A    
C34   C47   S    
O25   C101  S    
O2    C4    A    
C2    O7    A    
C89   C90   A    
C74   H28   S    
C59   H11   S    
C33   C35   T    
C10   O24   S    
C51   C52   A    
C64   C65   A    
O5    C3    A    
C93   C94   A    
C1    C44   S    
C96   H50   S    
C92   C93   A    
C23   C25   A    
C95   C96   A    
C12   C14   A    
C90   C91   A    
C4    C31   S    
C23   O21   S    
C55   C60   A    
C5    C63   S    
C53   H6    S    
C8    C28   A    
O15   C47   A    
O18   V4    S    
C100  H54   S    
O16   V4    S    
O12   V3    S    
C58   H10   S    
O15   V3    S    
C101  H55   S    
C18   C26   A    
C24   O22   S    
C73   H27   S    
C102  H59   S    
C66   C67   A    
O14   C46   A    
C60   H12   S    
C9    C31   A    
C52   H5    S    
C10   C32   A    
C76   H29   S    
C101  H56   S    
C78   C79   A    
C35   C37   S    
C36   C38   S    
C63   C64   A    
C19   C21   A    
C67   H22   S    
C30   C55   S    
C49   C54   A    
C6    C69   S    
C89   C94   A    
C57   C58   A    
C34   C36   T    
O23   C87   S    
C79   H32   S    
O6    V2    S    
C70   H24   S    
C56   H8    S    
C69   C70   A    
C2    C43   S    
C18   C32   A    
C92   H47   S    
C102  H58   S    
C5    C21   A    
C1    O8    A    
C38   C40   T    
O21   C61   S    
C39   C41   S    
C9    C11   A    
C99   H53   S    
C40   C42   S    
C66   H21   S    
C15   C19   A    
C46   O17   A    
C16   C20   A    
C81   C82   A    
O4    C2    A    
C77   H30   S    
C80   H33   S    
C52   C53   A    
O20   V3    S    
C27   C75   S    
O13   V3    S    
C78   H31   S    
C96   C97   A    
C75   C80   A    
C72   H26   S    
O26   C102  S    
C37   C39   T    
C20   C22   A    
C64   H19   S    
O4    V2    S    
C102  H60   S    
C49   C50   A    
C33   C48   S    
C85   H37   S    
C29   C49   S    
C98   C99   A    
O10   V1    S    
C87   H41   S    
O12   C48   A    
C7    C46   S    
O6    C4    A    
O13   C45   A    
C3    C32   S    
C62   H17   S    
O1    V2    S    
C50   C51   A    
O2    V1    S    
C6    C22   A    
O11   V4    S    
C72   C73   A    
C7    C27   A    
C82   H34   S    
O11   C47   A    
O17   V3    S    
C65   H20   S    
C99   C100  A    
C87   H40   S    
C88   H44   S    
C61   H14   S    
C41   C43   T    
C79   C80   A    
C10   C12   A    
C53   C54   A    
C77   C78   A    
C13   H1    S    
C20   C28   A    
O3    V1    S    
C71   C72   A    
C75   C76   A    
C93   H48   S    
C57   H9    S    
O24   C88   S    
C55   C56   A    
C83   H35   S    
C86   H38   S    
C85   C86   A    
O3    C1    A    
C50   H3    S    
O19   V4    S    
C8    C30   A    
C70   C71   A    
C73   C74   A    
C98   H52   S    
C13   C15   A    
C61   H15   S    
C45   O18   A    
C81   C86   A    
C14   C16   A    
C101  H57   S    
C68   H23   S    
C8    C45   S    
C6    C30   A    
C76   C77   A    
O7    V1    S    
C16   C18   A    
O8    V2    S    
C82   C83   A    
C24   C26   A    
C59   C60   A    
O16   C48   A    
C51   H4    S    
C26   O26   S    
C28   C81   S    
O5    V1    S    
C21   C23   A    
C42   C44   T    
C91   H46   S    
C62   H18   S    
C22   C24   A    
C69   C74   A    
C9    O23   S    
C71   H25   S    
O22   C62   S    
C12   C95   S    
C5    C29   A    
C84   H36   S    
C91   C92   A    
C14   H2    S    
C90   H45   S    
C7    C29   A    
C94   H49   S    
C11   C13   A    
C87   H39   S    
C88   H43   S    
C61   H13   S    
O9    V2    S    
C17   C25   A    
C62   H16   S    
C19   C27   A    
C83   C84   A    
O14   V4    S    
C58   C59   A    
C65   C66   A    
C97   H51   S    
C17   C31   A    
C84   C85   A    
C11   C89   S    
C97   C98   A    
C25   O25   S    
