data_mof_unit_60276.cif
_audit_creation_date              2013-03-05T16:29:54-0500
_audit_creation_method            fapswitch 2.2
_symmetry_space_group_name_H-M    P1
_symmetry_Int_Tables_number       1
_space_group_crystal_system       triclinic
_cell_length_a                    38.953745
_cell_length_b                    32.083
_cell_length_c                    21.761683
_cell_angle_alpha                 89.979276
_cell_angle_beta                  124.556079
_cell_angle_gamma                 89.955973
_cell_volume                      22398.4312053

loop_
_atom_site_label
_atom_site_type_symbol
_atom_site_description
_atom_site_fract_x
_atom_site_fract_y
_atom_site_fract_z
_atom_type_partial_charge
O1    O     O_R   0.439010 0.534430 0.439020 -0.624319
O2    O     O_R   0.560990 0.534430 0.560980 -0.613029
O3    O     O_R   0.939010 0.034430 0.439020 -0.623403
O4    O     O_R   0.060990 0.034430 0.560980 -0.613325
O5    O     O_R   0.439010 0.465570 0.438980 -0.607631
O6    O     O_R   0.560990 0.465570 0.561020 -0.621768
O7    O     O_R   0.939010 0.965570 0.438980 -0.611361
O8    O     O_R   0.060990 0.965570 0.561020 -0.618490
C1    C     C_R   0.419307 0.500025 0.419242 0.889447
C2    C     C_R   0.580693 0.499974 0.580762 0.887769
C3    C     C_R   0.919307 0.000025 0.419237 0.888531
C4    C     C_R   0.080691 0.999955 0.580754 0.888375
O9    O     O_R   0.500010 0.534430 0.590460 -0.630758
O10   O     O_R   0.499990 0.534430 0.409540 -0.571745
O11   O     O_R   0.000010 0.034430 0.590460 -0.630823
O12   O     O_R   0.999990 0.034430 0.409540 -0.570661
O13   O     O_R   0.500010 0.465570 0.590420 -0.568646
O14   O     O_R   0.499990 0.465570 0.409580 -0.626936
O15   O     O_R   0.000010 0.965570 0.590420 -0.570720
O16   O     O_R   0.999990 0.965570 0.409580 -0.627345
C5    C     C_R   0.503609 0.500020 0.622560 0.966051
C6    C     C_R   0.496402 0.499954 0.377463 0.963470
C7    C     C_R   0.003601 0.000018 0.622554 0.963013
C8    C     C_R   0.996404 0.999953 0.377458 0.965161
Zn1   Zn    Zn3+2 0.500000 0.545980 0.500000 1.006400
Zn2   Zn    Zn3+2 1.000000 0.045980 0.500000 1.006357
Zn3   Zn    Zn3+2 0.500000 0.454020 0.500000 1.021537
Zn4   Zn    Zn3+2 1.000000 0.954020 0.500000 1.013935
C9    C     C_2   0.526426 0.470812 0.810784 0.151108
C10   C     C_2   0.473546 0.528985 0.189201 0.142167
C11   C     C_2   0.026384 0.970787 0.810742 0.137116
C12   C     C_2   0.973255 0.028934 0.188945 0.144206
C13   C     C_2   0.497605 0.494141 0.811539 0.192056
C14   C     C_2   0.502348 0.505631 0.188409 0.191206
C15   C     C_2   0.997594 0.994147 0.811535 0.189019
C16   C     C_2   0.002369 0.005983 0.188448 0.185914
C17   C     C_2   0.524438 0.466976 0.741393 0.499260
C18   C     C_2   0.475498 0.532849 0.258540 0.496312
C19   C     C_2   0.024355 0.966938 0.741320 0.495719
C20   C     C_2   0.975206 0.032780 0.258295 0.497805
C21   C     C_2   0.514268 0.500985 0.697977 -0.409748
C22   C     C_2   0.485772 0.498904 0.302095 -0.403649
C23   C     C_2   0.014266 0.000968 0.697977 -0.405472
C24   C     C_2   0.985791 0.998891 0.302091 -0.406347
H1    H     H_    0.514636 0.531526 0.719903 0.139526
H2    H     H_    0.485493 0.468342 0.280322 0.144711
H3    H     H_    0.014706 0.031510 0.719970 0.140271
H4    H     H_    0.985772 0.968355 0.280496 0.142463
C25   C     C_R   0.226944 0.519739 0.176670 -0.219515
C26   C     C_R   0.773028 0.478015 0.821263 -0.230878
C27   C     C_R   0.726964 0.021692 0.178478 -0.231901
C28   C     C_R   0.273034 0.985668 0.826770 -0.228777
H5    H     H_    0.208728 0.534410 0.122203 0.196021
H6    H     H_    0.791220 0.461679 0.874139 0.190531
H7    H     H_    0.708767 0.037835 0.125405 0.191693
H8    H     H_    0.291228 0.975897 0.884680 0.191811
C29   C     C_R   0.206564 0.500498 0.205131 0.095779
C30   C     C_R   0.793436 0.499445 0.794869 0.099299
C31   C     C_R   0.706564 0.000508 0.205129 0.098795
C32   C     C_R   0.293440 0.998793 0.794162 0.096442
C33   C     C_R   0.229233 0.481006 0.274690 -0.156833
C34   C     C_R   0.770795 0.521100 0.727430 -0.156418
C35   C     C_R   0.729214 0.979106 0.272831 -0.159386
C36   C     C_R   0.270787 0.011151 0.719579 -0.150927
H9    H     H_    0.213456 0.466056 0.296787 0.158336
H10   H     H_    0.786593 0.537755 0.706949 0.156562
H11   H     H_    0.713422 0.962642 0.293515 0.155845
H12   H     H_    0.286587 0.021355 0.694259 0.161616
C37   C     C_R   0.272523 0.480819 0.316258 -0.214560
C38   C     C_R   0.727504 0.521254 0.685890 -0.220440
C39   C     C_R   0.772504 0.978957 0.314374 -0.220932
C40   C     C_R   0.227484 0.010556 0.677297 -0.217363
H13   H     H_    0.289888 0.465901 0.370555 0.169683
H14   H     H_    0.710162 0.537862 0.633206 0.166695
H15   H     H_    0.789853 0.962546 0.367260 0.166229
H16   H     H_    0.210135 0.020552 0.619540 0.168848
C41   C     C_R   0.293302 0.499927 0.288313 0.025672
C42   C     C_R   0.706699 0.499947 0.711770 0.026812
C43   C     C_R   0.793301 0.000016 0.288236 0.027369
C44   C     C_R   0.206682 0.997438 0.709306 0.026001
C45   C     C_R   0.270600 0.519524 0.217515 0.316417
C46   C     C_R   0.729374 0.478152 0.780452 0.320228
C47   C     C_R   0.770617 0.021554 0.219292 0.318848
C48   C     C_R   0.229366 0.984481 0.784779 0.318412
C49   C     C_1   0.162166 0.500356 0.162208 -0.013602
C50   C     C_1   0.837834 0.499605 0.837790 -0.019926
C51   C     C_1   0.662167 0.000345 0.162211 -0.022951
C52   C     C_1   0.337839 0.999392 0.837529 -0.015381
C53   C     C_1   0.337796 0.500076 0.334704 0.045583
C54   C     C_1   0.662206 0.499874 0.665343 0.041698
C55   C     C_1   0.837794 0.000110 0.334658 0.041278
C56   C     C_1   0.162201 0.998810 0.663911 0.044486
C57   C     C_1   0.375093 0.500076 0.373655 -0.123631
C58   C     C_1   0.624909 0.499916 0.626372 -0.127007
C59   C     C_1   0.875091 0.000081 0.373627 -0.128038
C60   C     C_1   0.124907 0.999670 0.625714 -0.124298
C61   C     C_1   0.124868 0.500190 0.125461 -0.149374
C62   C     C_1   0.875131 0.499777 0.874537 -0.156806
C63   C     C_1   0.624869 0.000176 0.125463 -0.159382
C64   C     C_1   0.375136 0.999754 0.874490 -0.150607
O17   O     O_R   0.534430 0.439010 0.034350 -0.603316
O18   O     O_R   0.465570 0.439010 0.965650 -0.606550
O19   O     O_R   0.034430 0.939010 0.034350 -0.578597
O20   O     O_R   0.965570 0.939010 0.965650 -0.628662
C65   C     C_R   0.500056 0.419335 0.000096 0.915651
C66   C     C_R   0.000001 0.919326 0.000016 0.909545
O21   O     O_R   0.534420 0.500000 0.943920 -0.597797
O22   O     O_R   0.465580 0.500000 0.056080 -0.594418
O23   O     O_R   0.034420 0.000000 0.943920 -0.594146
O24   O     O_R   0.965580 0.000000 0.056080 -0.594939
O25   O     O_R   0.465560 0.500000 0.875080 -0.604649
O26   O     O_R   0.534440 0.500000 0.124920 -0.608338
O27   O     O_R   0.965560 0.000000 0.875080 -0.610074
O28   O     O_R   0.034440 0.000000 0.124920 -0.606339
C67   C     C_R   0.499594 0.498762 0.880161 0.869324
C68   C     C_R   0.500399 0.501170 0.119826 0.869561
C69   C     C_R   0.999593 0.998764 0.880162 0.865187
C70   C     C_R   0.000401 0.001271 0.119843 0.868999
Zn5   Zn    Zn3+2 0.545980 0.500000 0.045940 1.044507
Zn6   Zn    Zn3+2 0.454020 0.500000 0.954060 1.069770
Zn7   Zn    Zn3+2 0.045980 1.000000 0.045940 1.066615
Zn8   Zn    Zn3+2 0.954020 0.000000 0.954060 1.048640
O29   O     O_R   0.534430 0.560990 0.034430 -0.622105
O30   O     O_R   0.465570 0.560990 0.965570 -0.589745
O31   O     O_R   0.034430 0.060990 0.034430 -0.620320
O32   O     O_R   0.965570 0.060990 0.965570 -0.589894
C71   C     C_R   0.499974 0.580709 0.999931 0.919341
C72   C     C_R   0.999974 0.080709 0.999935 0.919213
O33   O     O_R   0.000000 0.439050 0.051090 -0.613793
O34   O     O_R   0.000000 0.439050 0.948910 -0.614729
O35   O     O_R   0.500000 0.939050 0.051090 -0.613443
O36   O     O_R   0.500000 0.939050 0.948910 -0.614514
C73   C     C_R   0.999998 0.419404 0.000009 0.897834
C74   C     C_R   0.499998 0.919404 0.000009 0.896689
O37   O     O_R   0.060990 0.500040 0.112010 -0.613309
O38   O     O_R   0.939010 0.500040 0.887990 -0.617214
O39   O     O_R   0.560990 0.000040 0.112010 -0.614310
O40   O     O_R   0.439010 0.000040 0.887990 -0.611274
O41   O     O_R   0.060980 0.499970 0.009870 -0.605213
O42   O     O_R   0.939020 0.499970 0.990130 -0.604399
O43   O     O_R   0.560980 0.999970 0.009870 -0.608353
O44   O     O_R   0.439020 0.999970 0.990130 -0.604581
C75   C     C_R   0.080626 0.500017 0.080845 0.906567
C76   C     C_R   0.919374 0.499963 0.919155 0.900859
C77   C     C_R   0.580626 0.000009 0.080846 0.895894
C78   C     C_R   0.419375 0.000016 0.919153 0.904290
Zn9   Zn    Zn3+2 0.000010 0.500050 0.068180 1.027839
Zn10  Zn    Zn3+2 0.999990 0.500050 0.931820 1.013204
Zn11  Zn    Zn3+2 0.500010 0.000050 0.068180 1.027402
Zn12  Zn    Zn3+2 0.499990 0.000050 0.931820 1.027029
O45   O     O_R   0.000010 0.561020 0.051000 -0.592683
O46   O     O_R   0.999990 0.561020 0.949000 -0.609914
O47   O     O_R   0.500010 0.061020 0.051000 -0.597080
O48   O     O_R   0.499990 0.061020 0.949000 -0.595628
C79   C     C_R   0.000094 0.580661 0.000082 0.894940
C80   C     C_R   0.499926 0.080659 0.999913 0.887722
C81   C     C_R   0.972023 0.728451 0.008268 0.196148
C82   C     C_R   0.027462 0.728234 0.986581 0.194767
C83   C     C_R   0.498410 0.228315 0.054805 0.195202
C84   C     C_R   0.502498 0.228355 0.946151 0.196439
C85   C     C_R   0.000823 0.706785 0.000317 -0.257962
C86   C     C_R   0.498983 0.206775 0.998864 -0.258913
C87   C     C_R   0.506537 0.271946 0.950784 0.374442
C88   C     C_R   0.502446 0.271904 0.059038 0.391562
C89   C     C_R   0.024523 0.771832 0.979137 0.375644
C90   C     C_R   0.969253 0.772016 0.000668 0.384412
C91   C     C_R   0.504382 0.293457 0.004800 -0.213091
C92   C     C_R   0.996958 0.793465 0.990002 -0.216329
C93   C     C_1   0.000780 0.662163 0.000607 0.186268
C94   C     C_1   0.499153 0.162156 0.999048 0.186543
C95   C     C_1   0.501892 0.337932 0.002096 0.127020
C96   C     C_1   0.998786 0.837938 0.994696 0.123040
C97   C     C_1   0.500481 0.375174 0.000574 -0.142757
C98   C     C_1   0.999775 0.875169 0.997900 -0.142069
C99   C     C_1   0.000474 0.624865 0.000410 -0.096578
C100  C     C_1   0.499528 0.124860 0.999470 -0.094511
H17   H     H_    0.472634 0.711707 0.881699 0.143853
H18   H     H_    0.526921 0.711597 0.118181 0.157910
H19   H     H_    0.984824 0.211692 0.888086 0.142819
H20   H     H_    0.014722 0.211610 0.111716 0.161081
C101  C     C_R   0.991372 0.271785 0.936945 -0.164481
C102  C     C_R   0.008211 0.271741 0.062876 -0.169621
C103  C     C_R   0.484510 0.771794 0.933363 -0.164094
C104  C     C_R   0.515083 0.771733 0.066530 -0.170413
H21   H     H_    0.984853 0.288477 0.888101 0.148553
H22   H     H_    0.014759 0.288399 0.111738 0.152777
H23   H     H_    0.472664 0.788492 0.881708 0.149182
H24   H     H_    0.526960 0.788384 0.118195 0.151157
C105  C     C_R   0.999813 0.293394 0.999923 0.158456
C106  C     C_R   0.499819 0.793394 0.999953 0.158921
C107  C     C_R   0.515061 0.728298 0.066523 -0.150701
C108  C     C_R   0.484491 0.728360 0.933357 -0.174405
C109  C     C_R   0.008189 0.228305 0.062865 -0.148144
C110  C     C_R   0.991353 0.228351 0.936935 -0.176227
C111  C     C_R   0.499777 0.706700 0.999940 0.158961
C112  C     C_R   0.999774 0.206700 0.999902 0.157930
C113  C     C_1   0.999883 0.337825 0.999961 -0.054452
C114  C     C_1   0.499887 0.837825 0.999974 -0.054659
C115  C     C_1   0.499837 0.662274 0.999954 -0.044622
C116  C     C_1   0.999835 0.162273 0.999935 -0.044190
C117  C     C_1   0.499904 0.624962 0.999951 -0.131613
C118  C     C_1   0.999903 0.124961 0.999944 -0.131627
C119  C     C_1   0.999943 0.375141 0.999986 -0.160671
C120  C     C_1   0.499945 0.875141 0.999989 -0.160510
N1    N     N_R   0.557827 0.447674 0.875160 0.201194
O49   O     O_R   0.547191 0.418930 0.903516 -0.396285
O50   O     O_R   0.597046 0.453750 0.902868 -0.381438
N2    N     N_R   0.442139 0.552113 0.124825 0.204620
O51   O     O_R   0.452759 0.581001 0.096674 -0.372814
O52   O     O_R   0.402912 0.545787 0.096770 -0.366285
N3    N     N_R   0.057799 0.947653 0.875109 0.202843
O53   O     O_R   0.047183 0.918921 0.903517 -0.393578
O54   O     O_R   0.097010 0.953690 0.902706 -0.364818
N4    N     N_R   0.941476 0.051589 0.124255 0.204360
O55   O     O_R   0.951633 0.080537 0.095462 -0.372828
O56   O     O_R   0.902366 0.044884 0.096703 -0.371959
N5    N     N_R   0.946441 0.706485 0.026056 0.248170
O57   O     O_R   0.907565 0.716719 0.994507 -0.347642
O58   O     O_R   0.962533 0.677557 0.077008 -0.356082
N6    N     N_R   0.058205 0.706028 0.982225 0.252717
O59   O     O_R   0.065653 0.716321 0.933021 -0.336682
O60   O     O_R   0.080556 0.676802 0.030180 -0.355952
N7    N     N_R   0.492604 0.206198 0.105939 0.251101
O61   O     O_R   0.513601 0.216506 0.176066 -0.343131
O62   O     O_R   0.464591 0.177036 0.081791 -0.353166
N8    N     N_R   0.500819 0.206277 0.886816 0.251883
O63   O     O_R   0.525171 0.216641 0.866267 -0.338077
O64   O     O_R   0.473290 0.177100 0.850225 -0.352685
O65   O     O_3   0.462069 0.507599 0.744227 -0.594373
C121  C     C_3   0.454054 0.550133 0.748381 -0.290683
H25   H     H_    0.483055 0.569211 0.779457 0.122702
H26   H     H_    0.436130 0.553748 0.773478 0.197180
H27   H     H_    0.434486 0.562775 0.690824 0.201498
O66   O     O_3   0.537800 0.491936 0.255621 -0.597491
C122  C     C_3   0.545623 0.449390 0.251035 -0.301315
H28   H     H_    0.563471 0.445787 0.225790 0.193315
H29   H     H_    0.516540 0.430437 0.219858 0.134606
H30   H     H_    0.565184 0.436574 0.308464 0.200254
O67   O     O_3   0.962067 0.007639 0.744241 -0.598870
C123  C     C_3   0.954103 0.050183 0.748438 -0.294785
H31   H     H_    0.983125 0.069231 0.779483 0.125519
H32   H     H_    0.936214 0.053827 0.773595 0.196943
H33   H     H_    0.934523 0.062836 0.690890 0.200082
O68   O     O_3   0.038081 0.992980 0.255922 -0.600646
C124  C     C_3   0.046548 0.950505 0.252424 -0.273374
H34   H     H_    0.064662 0.947011 0.227673 0.199247
H35   H     H_    0.017750 0.931127 0.221385 0.132165
H36   H     H_    0.066107 0.938110 0.310159 0.201659
O69   O     O_3   0.527040 0.427684 0.717766 -0.580636
C125  C     C_3   0.567353 0.422016 0.734029 -0.102239
H37   H     H_    0.590249 0.415731 0.794322 0.212481
H38   H     H_    0.577847 0.448919 0.716245 0.144655
H39   H     H_    0.566854 0.394268 0.703144 0.179690
O70   O     O_3   0.472602 0.572125 0.281858 -0.586478
C126  C     C_3   0.432268 0.577465 0.265668 -0.099973
H40   H     H_    0.422086 0.550543 0.283973 0.144471
H41   H     H_    0.409247 0.583398 0.205290 0.217095
H42   H     H_    0.432531 0.605307 0.296134 0.176111
O71   O     O_3   0.026800 0.927628 0.717561 -0.593936
C127  C     C_3   0.067108 0.921773 0.733899 -0.106917
H43   H     H_    0.089926 0.915316 0.794154 0.215562
H44   H     H_    0.077779 0.948652 0.716386 0.148407
H45   H     H_    0.066493 0.894064 0.702823 0.178751
O72   O     O_3   0.972011 0.072013 0.281377 -0.586199
C128  C     C_3   0.931677 0.076983 0.265349 -0.100254
H46   H     H_    0.921804 0.049974 0.284020 0.144474
H47   H     H_    0.908533 0.082692 0.204936 0.216921
H48   H     H_    0.931737 0.104832 0.295596 0.176083
N9    N     N_R   0.290876 0.539258 0.186570 0.213391
O73   O     O_R   0.327002 0.526363 0.203760 -0.396250
O74   O     O_R   0.271539 0.567956 0.135649 -0.348535
N10   N     N_R   0.709065 0.456130 0.809271 0.212863
O75   O     O_R   0.673017 0.468237 0.793519 -0.399168
O76   O     O_R   0.728317 0.425966 0.857069 -0.364136
N11   N     N_R   0.790919 0.043314 0.190206 0.212408
O77   O     O_R   0.826960 0.031092 0.206074 -0.399272
O78   O     O_R   0.771663 0.073328 0.142067 -0.361872
N12   N     N_R   0.209056 0.970395 0.819541 0.214580
O79   O     O_R   0.172757 0.952395 0.780671 -0.402270
O80   O     O_R   0.228526 0.972100 0.891721 -0.350691
O81   O     O_3   0.499741 0.293520 0.111235 -0.544088
C129  C     C_3   0.540142 0.306174 0.169984 -0.202767
H49   H     H_    0.552272 0.331108 0.151746 0.124438
H50   H     H_    0.562457 0.279563 0.193730 0.174047
H51   H     H_    0.538470 0.319216 0.215423 0.193146
O82   O     O_3   0.507845 0.293610 0.897080 -0.544995
C130  C     C_3   0.549316 0.306220 0.927929 -0.092788
H52   H     H_    0.571498 0.279527 0.952486 0.150193
H53   H     H_    0.559303 0.330920 0.970633 0.149607
H54   H     H_    0.551031 0.319543 0.882692 0.219653
O83   O     O_3   0.942561 0.793732 0.012019 -0.548970
C131  C     C_3   0.907183 0.806194 0.942080 -0.179468
H55   H     H_    0.892258 0.779463 0.902847 0.167026
H56   H     H_    0.915042 0.830992 0.916375 0.132585
H57   H     H_    0.883857 0.819323 0.950673 0.200775
O84   O     O_3   0.051999 0.793377 0.969628 -0.539432
C132  C     C_3   0.030744 0.806090 0.894365 -0.088797
H58   H     H_    0.007562 0.830911 0.880894 0.140955
H59   H     H_    0.015152 0.779466 0.855137 0.145231
H60   H     H_    0.053796 0.819296 0.885161 0.219904

loop_
_geom_bond_atom_site_label_1
_geom_bond_atom_site_label_2
_geom_bond_distance
_ccdc_geom_bond_type
C30   C34   1.394372 A    
O1    Zn1   1.991947 S    
C126  H41   1.108918 S    
C73   C119  1.420099 S    
C124  H34   1.109785 S    
C27   C47   1.402541 A    
C38   C42   1.399863 A    
O36   Zn12  1.991913 S    
C132  H58   1.110813 S    
O22   Zn6   1.999404 S    
C37   C41   1.399895 A    
O83   C131  1.412362 S    
C112  C116  1.425322 S    
O35   C74   1.278015 A    
O39   Zn11  1.995505 S    
C103  C108  1.393491 A    
O24   C70   1.277460 A    
O20   C66   1.271810 A    
C32   C52   1.425018 S    
O23   C69   1.277478 A    
C24   H4    1.086537 S    
C94   C100  1.196611 T    
N1    O49   1.301189 A    
O40   Zn12  1.995506 S    
O7    C3    1.272753 A    
C95   C97   1.195656 T    
C41   C53   1.427670 S    
C129  H49   1.110747 S    
C26   H6    1.083905 S    
O81   C129  1.412440 S    
O18   C65   1.273184 A    
C111  C115  1.425326 S    
C12   C16   1.356869 D    
O44   Zn11  1.987857 S    
O39   C77   1.278084 A    
C131  H55   1.113839 S    
N11   O78   1.301581 A    
O67   C123  1.413942 S    
O40   C78   1.278005 A    
C18   C22   1.346419 D    
C74   C120  1.420093 S    
C102  H22   1.083630 S    
O82   C130  1.412425 S    
O38   C76   1.278089 A    
C83   N7    1.441565 S    
C13   O65   1.395246 S    
C125  H38   1.114289 S    
O20   Zn8   1.991089 S    
C2    C58   1.418571 S    
C14   C68   1.457873 S    
C9    C13   1.356656 D    
C56   C60   1.196740 T    
C9    N1    1.436576 S    
O68   C124  1.414009 S    
C34   C38   1.389800 A    
C121  H27   1.109251 S    
C46   N10   1.442843 S    
C22   H2    1.086526 S    
C81   C85   1.410925 A    
C25   C45   1.402608 A    
C28   C48   1.402410 A    
O44   C78   1.276891 A    
C61   C75   1.419385 S    
Zn11  O47   1.991372 S    
C28   C32   1.397456 A    
C82   C85   1.411587 A    
O5    Zn3   1.991080 S    
O28   Zn7   2.008136 S    
O41   C75   1.276856 A    
O2    C2    1.272762 A    
O27   Zn8   2.008136 S    
N7    O61   1.300785 A    
C64   C78   1.419292 S    
N10   O75   1.301222 A    
C43   C47   1.415506 A    
C48   N12   1.442805 S    
C38   H14   1.084038 S    
O31   C72   1.273039 A    
O32   C72   1.272886 A    
C122  H28   1.109854 S    
C130  H53   1.110770 S    
C37   H13   1.084060 S    
C17   O69   1.386796 S    
C102  C105  1.398930 A    
O45   C79   1.276135 A    
O4    C4    1.273289 A    
C16   C70   1.458783 S    
C128  H46   1.114190 S    
C43   C55   1.427675 S    
C131  H57   1.109189 S    
C49   C61   1.196815 T    
O43   C77   1.276864 A    
O71   C127  1.411810 S    
C12   N4    1.436467 S    
Zn8   O32   1.991948 S    
C125  H39   1.109187 S    
O11   C7    1.270696 A    
C63   C77   1.419397 S    
C87   O82   1.385134 S    
Zn12  O48   1.991638 S    
O12   C8    1.273039 A    
H17   C108  1.083647 S    
C65   C97   1.416844 S    
N9    O73   1.301246 A    
C90   C92   1.406184 A    
C122  H29   1.114889 S    
O9    Zn1   2.002786 S    
C101  C105  1.398887 A    
C127  H45   1.109187 S    
C47   N11   1.442826 S    
C30   C50   1.425120 S    
O42   Zn9   1.987857 S    
C39   C43   1.399860 A    
N6    O59   1.300794 A    
O65   C121  1.413950 S    
C96   C98   1.195920 T    
O43   Zn12  1.987850 S    
C54   C58   1.196775 T    
C89   O84   1.385111 S    
C51   C63   1.196822 T    
C88   C91   1.406213 A    
C15   C69   1.458290 S    
O12   Zn2   2.003050 S    
C35   H11   1.083701 S    
O41   Zn10  1.987850 S    
C104  C107  1.393516 A    
O17   C65   1.271370 A    
C13   C67   1.458391 S    
C10   C14   1.356866 D    
O34   Zn10  1.991913 S    
C44   C48   1.415527 A    
O13   Zn3   2.002194 S    
C108  C111  1.398869 A    
O16   C8    1.270199 A    
O1    C1    1.272638 A    
C31   C51   1.425118 S    
C127  H44   1.114326 S    
C110  C112  1.398872 A    
C126  H42   1.109188 S    
C102  C109  1.393532 A    
C11   C15   1.356568 D    
C34   H10   1.083703 S    
N4    O55   1.301197 A    
N2    O51   1.301183 A    
O11   Zn2   2.002786 S    
C19   C23   1.346903 D    
O16   Zn4   2.001931 S    
C26   C46   1.402554 A    
C125  H37   1.108914 S    
C1    C57   1.418530 S    
C123  H33   1.109249 S    
O13   C5    1.272805 A    
O7    Zn4   1.991080 S    
C104  H24   1.083630 S    
O25   Zn6   2.008136 S    
O17   Zn5   1.991948 S    
C44   C56   1.427630 S    
O15   C7    1.272741 A    
C84   C87   1.404724 A    
N3    O53   1.301197 A    
Zn7   O31   1.991090 S    
O70   C126  1.411955 S    
O15   Zn4   2.002194 S    
C103  H23   1.083631 S    
C128  H47   1.108940 S    
C42   C46   1.415519 A    
C92   C96   1.429443 S    
O29   C71   1.273032 A    
O6    Zn3   1.991935 S    
C86   C94   1.431509 S    
O46   C79   1.276010 A    
C41   C45   1.415583 A    
C87   C91   1.406252 A    
O8    C4    1.272061 A    
C109  C112  1.398869 A    
C10   N2    1.436491 S    
C81   N5    1.441547 S    
C123  H32   1.109822 S    
O69   C125  1.411856 S    
C83   C86   1.411214 A    
O9    C5    1.270615 A    
C40   H16   1.084035 S    
C132  H59   1.113737 S    
C72   C118  1.419744 S    
O27   C69   1.266848 A    
O47   C80   1.276080 A    
C121  H26   1.109822 S    
C101  C110  1.393481 A    
C71   C117  1.419751 S    
O21   C67   1.277470 A    
O28   C70   1.267161 A    
C19   O71   1.386771 S    
C129  H50   1.113792 S    
C15   O67   1.395242 S    
C5    C21   1.447044 S    
C3    C59   1.418571 S    
O25   C67   1.266907 A    
O36   C74   1.278057 A    
C90   O83   1.384907 S    
C18   O70   1.386840 S    
N11   O77   1.301215 A    
C35   C39   1.389804 A    
O33   C73   1.278015 A    
C89   C92   1.406233 A    
N8    O64   1.301389 A    
N9    O74   1.301648 A    
C130  H52   1.113705 S    
C114  C120  1.197222 T    
C8    C24   1.446695 S    
C122  H30   1.109243 S    
N12   O80   1.301596 A    
C31   C35   1.394373 A    
O35   Zn11  1.992179 S    
O34   C73   1.278057 A    
C27   C31   1.397543 A    
O66   C122  1.414212 S    
C52   C64   1.196762 T    
C9    C17   1.472724 S    
C126  H40   1.114232 S    
C14   O66   1.395245 S    
C103  C106  1.398888 A    
C36   H12   1.083702 S    
C62   C76   1.419397 S    
O26   C68   1.266959 A    
O18   Zn6   1.991089 S    
C115  C117  1.197082 T    
C106  C114  1.425474 S    
C93   C99   1.196685 T    
C16   O68   1.395251 S    
C105  C113  1.425474 S    
C80   C100  1.418153 S    
C104  C106  1.398918 A    
C101  H21   1.083635 S    
N3    O54   1.300419 A    
O14   C6    1.270185 A    
C7    C23   1.447064 S    
O48   C80   1.275999 A    
O3    Zn2   1.991947 S    
O14   Zn3   2.001931 S    
O42   C76   1.276855 A    
O5    C1    1.272749 A    
C127  H43   1.108918 S    
C81   C90   1.404247 A    
O6    C2    1.272637 A    
O26   Zn5   2.008136 S    
O4    Zn2   1.991086 S    
C123  H31   1.114855 S    
N7    O62   1.301394 A    
C29   C33   1.394372 A    
C53   C57   1.196761 T    
Zn5   O29   1.991090 S    
N5    O58   1.301393 A    
C129  H51   1.109269 S    
O37   Zn9   1.995505 S    
O21   Zn5   1.999404 S    
C91   C95   1.429022 S    
N6    O60   1.301397 A    
C32   C36   1.394420 A    
O84   C132  1.412461 S    
C33   C37   1.389787 A    
C26   C30   1.397542 A    
O10   C6    1.272926 A    
C124  H35   1.114891 S    
O72   C128  1.411920 S    
N4    O56   1.300425 A    
C85   C93   1.431623 S    
C40   C44   1.399854 A    
N2    O52   1.300425 A    
Zn10  O46   1.991638 S    
O10   Zn1   2.003050 S    
O24   Zn8   1.999404 S    
C39   H15   1.084037 S    
H18   C107  1.083647 S    
C20   O72   1.386823 S    
O22   C68   1.277148 A    
O2    Zn1   1.991086 S    
C6    C22   1.446456 S    
C28   H8    1.083916 S    
C42   C54   1.427679 S    
C25   H5    1.083940 S    
Zn9   O45   1.991372 S    
N5    O57   1.300781 A    
C131  H56   1.110838 S    
O37   C75   1.278086 A    
C132  H60   1.109295 S    
C84   N8    1.441596 S    
C88   O81   1.385118 S    
C113  C119  1.197226 T    
O19   C66   1.273033 A    
C27   H7    1.083904 S    
C12   C20   1.472640 S    
O19   Zn7   1.991948 S    
C17   C21   1.346873 D    
C121  H25   1.114856 S    
C50   C62   1.196820 T    
C128  H48   1.109184 S    
C107  C111  1.398865 A    
O33   Zn9   1.992179 S    
O3    C3    1.272643 A    
C55   C59   1.196771 T    
C79   C99   1.418277 S    
C25   C29   1.397575 A    
C20   C24   1.346560 D    
C11   N3    1.436581 S    
C82   C89   1.405145 A    
O8    Zn4   1.991935 S    
N10   O76   1.301586 A    
N8    O63   1.300774 A    
O38   Zn10  1.995506 S    
C124  H36   1.109256 S    
O30   C71   1.272893 A    
C11   C19   1.472617 S    
C82   N6    1.441567 S    
C21   H1    1.086541 S    
C83   C88   1.404604 A    
C4    C60   1.418502 S    
C45   N9    1.442918 S    
O23   Zn7   1.999404 S    
C10   C18   1.472393 S    
C130  H54   1.109315 S    
N1    O50   1.300411 A    
C23   H3    1.086553 S    
C29   C49   1.425115 S    
C116  C118  1.197081 T    
N12   O79   1.301210 A    
H20   C109  1.083652 S    
Zn6   O30   1.991948 S    
C36   C40   1.389862 A    
C84   C86   1.411287 A    
C33   H9    1.083737 S    
H19   C110  1.083648 S    
C66   C98   1.417323 S    
