data_mof_unit_21053.cif
_audit_creation_date              2012-12-10T17:29:23-0500
_audit_creation_method            fapswitch 2.2
_symmetry_space_group_name_H-M    P1
_symmetry_Int_Tables_number       1
_space_group_crystal_system       triclinic
_cell_length_a                    12.092482
_cell_length_b                    12.875372
_cell_length_c                    13.145652
_cell_angle_alpha                 85.802387
_cell_angle_beta                  113.014562
_cell_angle_gamma                 94.026038
_cell_volume                      1876.82489026

loop_
_atom_site_label
_atom_site_type_symbol
_atom_type_description
_atom_site_fract_x
_atom_site_fract_y
_atom_site_fract_z
_atom_type_partial_charge
C1    C     C_R   0.477618 0.299557 0.499569 0.884286
C2    C     C_R   0.607422 0.488936 0.827872 -0.170347
C3    C     C_R   0.535810 0.812056 0.500734 -0.049459
C4    C     C_R   0.566435 0.497572 0.708029 0.872427
C5    C     C_R   0.464127 0.187909 0.498845 -0.053970
C6    C     C_R   0.340012 0.029837 0.463376 -0.225945
C7    C     C_R   0.350705 0.137079 0.470485 -0.207293
C8    C     C_R   0.567097 0.131998 0.522670 -0.282149
C9    C     C_R   0.557188 0.025671 0.514733 0.187761
C10   C     C_R   0.442737 0.974304 0.484600 0.187880
C11   C     C_R   0.432849 0.867963 0.476883 -0.284627
C12   C     C_R   0.546182 0.487472 0.982636 0.067321
C13   C     C_R   0.649182 0.862892 0.528699 -0.213129
C14   C     C_R   0.659884 0.970141 0.535785 -0.223560
C15   C     C_R   0.021539 0.613463 0.411977 -0.328870
C16   C     C_R   0.522365 0.700430 0.500359 0.867873
C17   C     C_R   0.137593 0.600126 0.418334 0.006486
C18   C     C_R   0.154567 0.451381 0.539564 -0.031394
C19   C     C_R   0.036256 0.461181 0.534908 0.050924
C20   C     C_R   0.966935 0.541857 0.467667 0.096629
C21   C     C_R   0.845186 0.548192 0.457371 0.243397
C22   C     C_R   0.867893 0.404534 0.587939 -0.026319
C23   C     C_R   0.539450 0.530858 0.879075 0.082968
C24   C     C_R   0.985994 0.392782 0.595469 -0.331329
C25   C     C_R   0.433718 0.504570 0.292101 0.871249
C26   C     C_R   0.303219 0.633027 0.011536 -0.202672
C27   C     C_R   0.394084 0.520348 0.173573 -0.045160
C28   C     C_R   0.699827 0.421849 0.887472 -0.193118
C29   C     C_R   0.717931 0.387309 0.995960 0.231919
C30   C     C_R   0.637485 0.416345 0.040522 -0.277558
C31   C     C_3   0.767858 0.627241 0.372020 -0.399062
C32   C     C_3   0.737869 0.595789 0.253900 -0.860307
C33   C     C_3   0.816734 0.315281 0.066059 -0.408559
C34   C     C_R   0.462464 0.518406 0.024482 0.092477
C35   C     C_3   0.905851 0.291162 0.015392 -0.887795
C36   C     C_R   0.381708 0.598235 0.967405 0.170236
C37   C     C_R   0.384024 0.645739 0.869847 -0.252451
C38   C     C_R   0.462938 0.613559 0.826932 -0.184014
C39   C     C_R   0.459456 0.475269 0.123798 -0.266097
C40   C     C_R   0.311313 0.595729 0.116005 -0.203432
H1    H     H_    0.259505 0.630652 0.154608 0.148619
H2    H     H_    0.177153 0.654991 0.374385 0.124261
H3    H     H_    0.325531 0.708655 0.827112 0.148530
H4    H     H_    0.209129 0.389485 0.590827 0.126045
H5    H     H_    0.241584 0.693825 0.968671 0.136943
H6    H     H_    0.514084 0.411728 0.169436 0.141424
H7    H     H_    0.752381 0.392516 0.846427 0.165002
H8    H     H_    0.651032 0.383186 0.121800 0.127112
H9    H     H_    0.464327 0.654827 0.752627 0.164574
H10   H     H_    0.344609 0.828857 0.453595 0.154231
H11   H     H_    0.816801 0.603944 0.230627 0.252693
H12   H     H_    0.729140 0.819863 0.546969 0.158333
H13   H     H_    0.704477 0.513422 0.246439 0.270181
H14   H     H_    0.667013 0.645465 0.194490 0.255766
H15   H     H_    0.682670 0.636437 0.378092 0.273271
H16   H     H_    0.811640 0.706539 0.385092 0.166734
H17   H     H_    0.859732 0.246683 0.939704 0.252499
H18   H     H_    0.949240 0.364355 0.995431 0.264742
H19   H     H_    0.977170 0.242598 0.075830 0.255274
H20   H     H_    0.868713 0.351656 0.146169 0.210786
H21   H     H_    0.774653 0.240524 0.084270 0.205128
H22   H     H_    0.251995 0.990596 0.440578 0.135932
H23   H     H_    0.747884 0.009388 0.558446 0.136313
H24   H     H_    0.270704 0.180102 0.451998 0.160760
H25   H     H_    0.655362 0.171092 0.546145 0.156353
H26   H     H_    0.831274 0.351629 0.635889 0.133277
H27   H     H_    0.977173 0.680761 0.363412 0.155660
H28   H     H_    0.037951 0.330574 0.648932 0.151287
N1    N     N_R   0.798200 0.480260 0.519790 -0.115622
N2    N     N_R   0.201820 0.519740 0.480210 -0.097046
O1    O     O_R   0.579910 0.341070 0.505280 -0.625324
O2    O     O_R   0.388440 0.353740 0.492580 -0.622624
O3    O     O_R   0.643280 0.490550 0.663120 -0.615487
O4    O     O_R   0.451810 0.503220 0.650420 -0.606366
O5    O     O_R   0.611560 0.646260 0.507420 -0.649819
O6    O     O_R   0.420090 0.658930 0.494720 -0.630887
O7    O     O_R   0.548190 0.496780 0.349580 -0.618648
O8    O     O_R   0.356720 0.509450 0.336880 -0.616408
Zn1   Zn    Zn3+2 0.627850 0.491540 0.508480 0.924284
Zn2   Zn    Zn3+2 0.372150 0.508460 0.491520 0.936998

loop_
_geom_bond_atom_site_label_1
_geom_bond_atom_site_label_2
_ccdc_geom_bond_type
C18   N2    A    
C28   H7    S    
C16   O5    A    
C19   C20   A    
O1    Zn1   S    
C38   H9    S    
C21   C31   S    
C12   C23   A    
C29   C30   A    
C35   H18   S    
C25   O7    A    
C30   H8    S    
C36   C37   A    
O8    Zn2   S    
C29   C33   S    
C35   H19   S    
C18   C19   A    
C17   H2    S    
C22   H26   S    
C26   H5    S    
C27   C39   A    
C8    C9    A    
C31   H16   S    
C9    C10   A    
C22   N1    A    
C4    O4    A    
C3    C13   A    
C8    H25   S    
O4    Zn2   S    
C13   C14   A    
C32   H14   S    
O7    Zn1   S    
C15   C20   A    
C1    O2    A    
N2    Zn2   S    
C34   C39   A    
C5    C7    A    
C25   O8    A    
C21   N1    A    
C37   H3    S    
C2    C4    S    
C9    C14   A    
C32   H11   S    
C37   C38   A    
C18   H4    S    
C13   H12   S    
C31   C32   S    
C27   C40   A    
C15   H27   S    
O3    Zn1   S    
C1    O1    A    
C4    O3    A    
C39   H6    S    
C26   C36   A    
C40   H1    S    
C33   H20   S    
C22   C24   A    
N1    Zn1   S    
C12   C34   A    
C32   H13   S    
C1    C5    S    
C15   C17   A    
C28   C29   A    
C12   C30   A    
C16   O6    A    
O6    Zn2   S    
C6    C10   A    
C5    C8    A    
C6    C7    A    
C25   C27   S    
C23   C38   A    
C35   H17   S    
C6    H22   S    
C19   C24   A    
O2    Zn2   S    
C11   H10   S    
C26   C40   A    
C14   H23   S    
C33   C35   S    
C34   C36   A    
C7    H24   S    
C3    C11   A    
C10   C11   A    
C24   H28   S    
C17   N2    A    
C20   C21   A    
C33   H21   S    
C2    C23   A    
C2    C28   A    
C31   H15   S    
O5    Zn1   S    
C3    C16   S    
