data_mof_unit_52814.cif
_audit_creation_date              2012-12-10T17:14:45-0500
_audit_creation_method            fapswitch 2.2
_symmetry_space_group_name_H-M    P1
_symmetry_Int_Tables_number       1
_space_group_crystal_system       triclinic
_cell_length_a                    10.635769
_cell_length_b                    12.966286
_cell_length_c                    11.844024
_cell_angle_alpha                 100.162064
_cell_angle_beta                  93.974345
_cell_angle_gamma                 92.306276
_cell_volume                      1601.58607

loop_
_atom_site_label
_atom_site_type_symbol
_atom_type_description
_atom_site_fract_x
_atom_site_fract_y
_atom_site_fract_z
_atom_type_partial_charge
C1    C     C_R   0.498472 0.299902 0.478581 0.796744
C2    C     C_R   0.501525 0.700096 0.521421 0.778819
C3    C     C_R   0.586442 0.131636 0.512806 0.088950
C4    C     C_R   0.413560 0.868367 0.487232 0.098568
C5    C     C_R   0.560152 0.025141 0.521325 0.122021
C6    C     C_R   0.439855 0.974859 0.478702 0.120465
C7    C     C_R   0.381893 0.398134 0.019289 -0.312293
C8    C     C_R   0.613017 0.601824 0.979994 -0.270112
C9    C     C_R   0.394300 0.405393 0.140237 0.320804
C10   C     C_R   0.603736 0.594950 0.860146 0.265031
C11   C     C_R   0.547109 0.547079 0.155467 0.549554
C12   C     C_R   0.451342 0.451914 0.839905 0.577191
C13   C     C_R   0.539192 0.536361 0.033226 -0.017957
C14   C     C_R   0.457139 0.460650 0.963350 -0.139249
C15   C     C_R   0.259758 0.500372 0.499961 0.821266
C16   C     C_R   0.740239 0.499622 0.500037 0.804674
C17   C     C_3   0.039763 0.407160 0.522705 -0.300478
C18   C     C_3   0.960217 0.592853 0.477265 -0.316863
C19   C     C_3   0.949662 0.423091 0.420681 0.467612
C20   C     C_3   0.050323 0.576925 0.579292 0.473082
C21   C     C_3   0.876963 0.500039 0.500637 -0.048503
C22   C     C_3   0.123025 0.499973 0.499340 -0.054156
C23   C     C_3   0.966196 0.486002 0.604706 -0.239341
C24   C     C_3   0.033792 0.514012 0.395267 -0.246126
C25   C     C_R   0.511041 0.813093 0.532347 -0.031807
C26   C     C_R   0.488971 0.186901 0.467655 -0.042237
C27   C     C_R   0.349460 0.032012 0.427416 -0.209576
C28   C     C_R   0.650556 0.967978 0.572587 -0.209311
C29   C     C_R   0.373212 0.136802 0.424132 -0.249449
C30   C     C_R   0.626815 0.863179 0.575840 -0.256848
Cu1   Cu    Cu3+1 0.509400 0.507730 0.615930 0.983875
Cu2   Cu    Cu3+1 0.490600 0.492270 0.384070 0.945979
H1    H     H_    0.074731 0.331233 0.539083 0.149849
H2    H     H_    0.925222 0.668767 0.460872 0.144596
H3    H     H_    0.937072 0.476702 0.690729 0.160119
H4    H     H_    0.062918 0.523307 0.309243 0.162385
H5    H     H_    0.701522 0.819585 0.608878 0.138324
H6    H     H_    0.298507 0.180385 0.391083 0.139393
H7    H     H_    0.257936 0.998076 0.391477 0.156573
H8    H     H_    0.742082 0.001912 0.608524 0.156050
H9    H     H_    0.311590 0.342404 0.969978 0.162639
H10   H     H_    0.679017 0.660154 0.031758 0.208142
N1    N     N_R   0.523540 0.519360 0.790140 -0.203174
N2    N     N_R   0.476460 0.480640 0.209860 -0.243826
O1    O     O_R   0.506670 0.354460 0.582000 -0.546908
O2    O     O_R   0.493330 0.645540 0.418000 -0.592836
O3    O     O_R   0.490800 0.341410 0.386200 -0.584307
O4    O     O_R   0.509200 0.658590 0.613800 -0.582167
O5    O     O_R   0.324790 0.506500 0.597880 -0.493553
O6    O     O_R   0.675210 0.493500 0.402120 -0.571352
O7    O     O_R   0.308910 0.493440 0.402080 -0.637100
O8    O     O_R   0.691090 0.506560 0.597920 -0.633280
O9    O     O_3   0.892110 0.342743 0.336495 -0.732607
H11   H     H_    0.962496 0.304895 0.300549 0.306709
O10   O     O_3   0.107875 0.657274 0.663477 -0.731685
H12   H     H_    0.037494 0.695185 0.699337 0.307178
C31   C     C_3   0.282286 0.814885 0.453122 -0.406239
C32   C     C_3   0.189418 0.854569 0.541775 -0.804287
H13   H     H_    0.095345 0.814018 0.515546 0.245891
H14   H     H_    0.222829 0.837851 0.627309 0.283569
H15   H     H_    0.178830 0.940188 0.549701 0.239480
H16   H     H_    0.247408 0.826316 0.365953 0.195623
H17   H     H_    0.281904 0.728640 0.446938 0.219075
C33   C     C_3   0.717704 0.185130 0.546956 -0.415140
C34   C     C_3   0.810599 0.145482 0.458314 -0.790589
H18   H     H_    0.777205 0.162226 0.372788 0.283749
H19   H     H_    0.904667 0.186035 0.484574 0.242773
H20   H     H_    0.821195 0.059862 0.450356 0.240265
H21   H     H_    0.718075 0.271376 0.553166 0.216506
H22   H     H_    0.752564 0.173679 0.634122 0.191843
O11   O     O_3   0.372647 0.377830 0.767972 -0.699814
H23   H     H_    0.371967 0.312205 0.799706 0.293253
O12   O     O_3   0.625319 0.628488 0.215997 -0.762138
H24   H     H_    0.647541 0.615330 0.293131 0.373220
C35   C     C_3   0.686953 0.674934 0.816774 -0.370524
C36   C     C_3   0.641294 0.785907 0.850070 -0.824723
H25   H     H_    0.543831 0.790531 0.811838 0.279650
H26   H     H_    0.642585 0.809476 0.944913 0.248384
H27   H     H_    0.704738 0.842658 0.818288 0.232459
H28   H     H_    0.784982 0.673283 0.855531 0.167175
H29   H     H_    0.695592 0.659354 0.724260 0.245296
C37   C     C_3   0.311221 0.325832 0.184521 -0.365998
C38   C     C_3   0.355235 0.214505 0.149665 -0.837655
H30   H     H_    0.352650 0.191548 0.054677 0.242208
H31   H     H_    0.452937 0.208848 0.186809 0.280377
H32   H     H_    0.291652 0.157956 0.181611 0.235342
H33   H     H_    0.304309 0.340678 0.277183 0.245186
H34   H     H_    0.212667 0.328493 0.147451 0.166296

loop_
_geom_bond_atom_site_label_1
_geom_bond_atom_site_label_2
_ccdc_geom_bond_type
O10   H12   S    
C16   C21   S    
C27   C29   A    
C18   C21   S    
O12   H24   S    
C36   H27   S    
Cu1   O8    S    
C8    H10   S    
C4    C25   A    
C31   H16   S    
O9    H11   S    
C2    O2    A    
C17   C23   S    
Cu1   N1    S    
C18   C24   S    
C19   C21   S    
C36   H26   S    
C12   N1    A    
C5    C6    A    
C28   H8    S    
C32   H14   S    
C37   H33   S    
C15   C22   S    
C38   H30   S    
C27   H7    S    
C34   H19   S    
C29   H6    S    
C33   H22   S    
C35   H28   S    
C18   C20   S    
C6    C27   A    
C9    C37   S    
C19   O9    S    
C32   H15   S    
C15   O5    A    
C13   C14   A    
C17   H1    S    
Cu1   O5    S    
C20   O10   S    
C31   H17   S    
C7    C14   A    
C36   H25   S    
C4    C6    A    
C11   O12   S    
C1    O3    A    
C2    O4    A    
C32   H13   S    
C3    C33   S    
C30   H5    S    
C4    C31   S    
C35   C36   S    
Cu2   O7    S    
C5    C28   A    
C10   C35   S    
Cu1   Cu2   S    
C20   C23   S    
C34   H20   S    
Cu2   N2    S    
C11   N2    A    
C24   H4    S    
C33   H21   S    
C18   H2    S    
Cu2   O6    S    
C38   H31   S    
C12   O11   S    
C12   C14   A    
C37   C38   S    
C23   H3    S    
Cu1   O4    S    
C21   C23   S    
C1    C26   S    
Cu2   O3    S    
C15   O7    A    
C25   C30   A    
C7    C9    A    
C9    N2    A    
C10   N1    A    
Cu2   O2    S    
C3    C26   A    
C35   H29   S    
C16   O8    A    
C20   C22   S    
C3    C5    A    
C17   C22   S    
C33   C34   S    
C28   C30   A    
C19   C24   S    
O11   H23   S    
C11   C13   A    
C1    O1    A    
C31   C32   S    
C37   H34   S    
C17   C19   S    
C2    C25   S    
C22   C24   S    
C7    H9    S    
C16   O6    A    
C8    C13   A    
C38   H32   S    
C26   C29   A    
C8    C10   A    
C34   H18   S    
Cu1   O1    S    
