data_mof_unit_57690.cif
_audit_creation_date              2012-12-10T19:16:26-0500
_audit_creation_method            fapswitch 2.2
_symmetry_space_group_name_H-M    P1
_symmetry_Int_Tables_number       1
_space_group_crystal_system       triclinic
_cell_length_a                    10.618781
_cell_length_b                    9.820522
_cell_length_c                    27.679245
_cell_angle_alpha                 89.866828
_cell_angle_beta                  87.62306
_cell_angle_gamma                 91.220454
_cell_volume                      2883.29366298

loop_
_atom_site_label
_atom_site_type_symbol
_atom_type_description
_atom_site_fract_x
_atom_site_fract_y
_atom_site_fract_z
_atom_type_partial_charge
C1    C     C_R   0.257891 0.498852 0.503625 0.835465
C2    C     C_R   0.365786 0.554374 0.976285 -0.044313
C3    C     C_R   0.582131 0.469616 0.974224 0.041144
C4    C     C_R   0.501639 0.500540 0.406019 0.976075
C5    C     C_R   0.474369 0.509316 0.949806 0.018818
C6    C     C_R   0.251129 0.569483 0.952258 0.455180
C7    C     C_R   0.252822 0.560007 0.901614 -0.240415
C8    C     C_R   0.364477 0.534713 0.874883 -0.075452
C9    C     C_R   0.475139 0.504502 0.898768 -0.050132
C10   C     C_R   0.585858 0.469182 0.871598 -0.089176
C11   C     C_R   0.584569 0.479736 0.820731 0.482383
C12   C     C_R   0.370527 0.479354 0.282189 -0.052300
C13   C     C_R   0.366553 0.534659 0.824366 0.542133
C14   C     C_R   0.412984 0.407996 0.722638 -0.109870
C15   C     C_R   0.420088 0.404439 0.672446 -0.229262
C16   C     C_R   0.740069 0.500364 0.505867 0.851858
C17   C     C_R   0.553137 0.608498 0.670930 -0.246983
C18   C     C_R   0.545405 0.612586 0.721175 -0.082888
C19   C     C_R   0.476469 0.511355 0.747080 0.312809
C20   C     C_R   0.375359 0.581166 0.026291 0.079079
C21   C     C_R   0.476700 0.528268 0.051305 0.080612
C22   C     C_R   0.577155 0.465260 0.025504 0.017140
C23   C     C_R   0.467319 0.542162 0.254137 0.261509
C24   C     C_R   0.291901 0.668194 0.051133 -0.219326
C25   C     C_R   0.669745 0.405031 0.102044 0.009369
C26   C     C_R   0.691208 0.434394 0.946696 -0.217643
C27   C     C_R   0.693664 0.429345 0.896297 -0.002426
C28   C     C_R   0.498466 0.500275 0.593795 0.835783
C29   C     C_R   0.670413 0.401640 0.051703 -0.216322
C30   C     C_3   0.070943 0.623372 0.533539 -0.375240
C31   C     C_3   0.066061 0.369005 0.532710 -0.335241
C32   C     C_3   0.926811 0.621684 0.536343 -0.441854
C33   C     C_3   0.921565 0.366508 0.532011 -0.403491
C34   C     C_R   0.476702 0.537657 0.102344 -0.063177
C35   C     C_3   0.072978 0.496665 0.451594 -0.015667
C36   C     C_3   0.120071 0.497051 0.504815 0.004613
C37   C     C_3   0.876362 0.498637 0.507556 0.120533
C38   C     C_3   0.926927 0.501902 0.454712 -0.396024
C39   C     C_3   0.393495 0.077464 0.471952 -0.266818
C40   C     C_3   0.399362 0.916987 0.468959 -0.264005
C41   C     C_3   0.617475 0.086134 0.474827 0.348884
C42   C     C_3   0.623903 0.921895 0.479382 0.325370
C43   C     C_3   0.490945 0.078347 0.549309 -0.176908
C44   C     C_3   0.481145 0.916405 0.548988 -0.192141
C45   C     C_R   0.383241 0.614369 0.127682 -0.040702
C46   C     C_R   0.379410 0.610978 0.178732 0.556498
C47   C     C_R   0.554435 0.462507 0.178499 0.494857
C48   C     C_R   0.577208 0.587010 0.275687 -0.249717
C49   C     C_R   0.598117 0.554328 0.324180 0.463859
C50   C     C_R   0.383574 0.463717 0.331637 -0.245951
C51   C     C_2   0.782172 0.351571 0.125583 0.492854
C52   C     C_2   0.807301 0.370913 0.871649 0.477394
C53   C     C_2   0.122247 0.623416 0.424027 0.285527
C54   C     C_2   0.118934 0.367511 0.425716 0.420298
C55   C     C_3   0.615576 0.086343 0.386171 0.139832
C56   C     C_R   0.297215 0.689525 0.100780 -0.033037
C57   C     C_3   0.566378 0.183488 0.349141 -0.811489
C58   C     C_3   0.798570 0.874378 0.428373 0.073923
C59   C     C_3   0.839205 0.834994 0.376632 -0.764104
C60   C     C_2   0.389675 0.136733 0.582874 0.587993
C61   C     C_2   0.363485 0.856938 0.575561 0.469615
C62   C     C_2   0.215344 0.797068 0.121324 0.520544
C63   C     C_3   0.050475 0.660922 0.961882 0.080633
C64   C     C_3   0.950207 0.687913 0.001406 -0.780999
C65   C     C_3   0.810514 0.514979 0.307428 0.009228
C66   C     C_3   0.917926 0.446135 0.331322 -0.732508
C67   C     C_R   0.569236 0.468972 0.127915 -0.094899
C68   C     C_R   0.495312 0.504724 0.353270 -0.140666
C69   C     C_R   0.492159 0.502873 0.646416 -0.030572
H1    H     H_    0.307479 0.415873 0.352496 0.176639
H2    H     H_    0.095703 0.371343 0.570818 0.199668
H3    H     H_    0.892364 0.613543 0.574807 0.178389
H4    H     H_    0.880583 0.357601 0.569587 0.163913
H5    H     H_    0.286555 0.440371 0.265602 0.160090
H6    H     H_    0.893012 0.719741 0.522640 0.173554
H7    H     H_    0.890503 0.274654 0.511827 0.203429
H8    H     H_    0.892501 0.594288 0.437252 0.154473
H9    H     H_    0.881594 0.417033 0.434987 0.234252
H10   H     H_    0.391848 0.122051 0.435226 0.162817
H11   H     H_    0.412881 0.882203 0.431144 0.175714
H12   H     H_    0.651739 0.633304 0.252911 0.134358
H13   H     H_    0.301358 0.105280 0.488887 0.220845
H14   H     H_    0.306115 0.871447 0.479532 0.211773
H15   H     H_    0.579792 0.106856 0.567205 0.048688
H16   H     H_    0.559652 0.879885 0.570797 0.071259
H17   H     H_    0.696561 0.122683 0.496870 0.055668
H18   H     H_    0.694322 0.900940 0.507364 0.010061
H19   H     H_    0.366767 0.327280 0.654105 0.162333
H20   H     H_    0.358851 0.330196 0.742611 0.148595
H21   H     H_    0.166122 0.568843 0.882862 0.209126
H22   H     H_    0.228228 0.729575 0.031327 0.165947
H23   H     H_    0.777480 0.410442 0.963665 0.181417
H24   H     H_    0.816529 0.398889 0.157990 0.094908
H25   H     H_    0.798797 0.307423 0.839939 0.119952
H26   H     H_    0.091934 0.723470 0.435516 0.089119
H27   H     H_    0.218933 0.351923 0.420547 0.074793
H28   H     H_    0.546101 0.002554 0.390407 0.164679
H29   H     H_    0.704189 0.049645 0.369385 0.184637
H30   H     H_    0.631648 0.272613 0.344698 0.276042
H31   H     H_    0.560942 0.131516 0.313662 0.231459
H32   H     H_    0.470165 0.215250 0.360316 0.245125
H33   H     H_    0.849894 0.812087 0.453860 0.133838
H34   H     H_    0.607684 0.686635 0.651245 0.141923
H35   H     H_    0.829055 0.982061 0.434206 0.146931
H36   H     H_    0.908332 0.911471 0.361217 0.217859
H37   H     H_    0.885615 0.735595 0.375790 0.251727
H38   H     H_    0.757363 0.828938 0.352970 0.276251
H39   H     H_    0.395539 0.118338 0.621364 -0.021092
H40   H     H_    0.373102 0.796885 0.608085 0.069105
H41   H     H_    0.119749 0.805854 0.109402 0.034345
H42   H     H_    0.001507 0.617025 0.930668 0.203035
H43   H     H_    0.097165 0.759966 0.951304 0.130015
H44   H     H_    0.993821 0.735540 0.033149 0.237678
H45   H     H_    0.594220 0.693001 0.740064 0.145073
H46   H     H_    0.878981 0.757722 0.987591 0.219381
H47   H     H_    0.902172 0.590905 0.012915 0.261158
H48   H     H_    0.849170 0.604938 0.286849 0.175271
H49   H     H_    0.772779 0.438327 0.281736 0.190695
H50   H     H_    0.880593 0.357231 0.352625 0.281019
H51   H     H_    0.987113 0.409825 0.303302 0.225350
H52   H     H_    0.966767 0.519346 0.354668 0.264991
H53   H     H_    0.745300 0.346494 0.033739 0.184940
H54   H     H_    0.105292 0.720445 0.516586 0.211123
H55   H     H_    0.101796 0.273076 0.516466 0.220090
H56   H     H_    0.106582 0.622589 0.570819 0.198759
N1    N     N_R   0.465860 0.538510 0.202479 -0.338972
N2    N     N_R   0.475782 0.509476 0.798670 -0.349102
N3    N     N_3   0.499750 0.138610 0.498940 -0.090079
N4    N     N_3   0.499750 0.861390 0.498940 -0.092099
O1    O     O_R   0.314910 0.616040 0.499990 -0.621224
O2    O     O_2   0.260992 0.562279 0.800932 -0.550776
O3    O     O_2   0.623654 0.376354 0.203980 -0.600576
O4    O     O_2   0.690842 0.463697 0.793163 -0.583707
O5    O     O_2   0.840074 0.256105 0.108143 -0.555421
O6    O     O_2   0.911801 0.389033 0.887640 -0.583519
O7    O     O_2   0.193400 0.616392 0.388454 -0.593601
O8    O     O_2   0.047416 0.276978 0.412757 -0.617967
O9    O     O_3   0.643795 0.155205 0.429507 -0.576299
O10   O     O_3   0.666032 0.854937 0.436352 -0.581599
O11   O     O_2   0.299597 0.197076 0.568414 -0.585584
O12   O     O_R   0.314910 0.383960 0.499990 -0.602520
O13   O     O_2   0.257473 0.882439 0.563286 -0.615703
O14   O     O_2   0.256694 0.882937 0.148652 -0.497160
O15   O     O_3   0.137450 0.567431 0.979408 -0.592938
O16   O     O_3   0.718290 0.557807 0.342700 -0.628656
O17   O     O_R   0.500140 0.616020 0.428740 -0.547997
O18   O     O_R   0.500140 0.383980 0.428740 -0.590894
O19   O     O_R   0.685320 0.616040 0.499970 -0.600847
O20   O     O_R   0.685320 0.383960 0.499970 -0.609842
O21   O     O_R   0.500090 0.616050 0.571230 -0.662763
O22   O     O_R   0.500090 0.383950 0.571230 -0.618109
O23   O     O_2   0.288284 0.674678 0.204737 -0.515478
Zn1   Zn    Zn3+2 0.500150 0.654960 0.499980 0.988186
Zn2   Zn    Zn3+2 0.500150 0.345040 0.499980 0.991973

loop_
_geom_bond_atom_site_label_1
_geom_bond_atom_site_label_2
_ccdc_geom_bond_type
C10   C27   A    
C58   O10   S    
C46   O23   S    
C40   N4    S    
C28   O21   A    
C8    C13   A    
C64   H47   S    
C49   C68   A    
C12   H5    S    
C35   C53   S    
C41   C42   S    
C35   C36   S    
C25   C67   A    
C62   O14   D    
C43   C44   S    
C61   H40   S    
C18   H45   S    
C32   H6    S    
C7    C8    A    
C32   H3    S    
C45   C46   A    
C23   C48   A    
C17   C69   A    
C41   H17   S    
C12   C23   A    
C26   C27   A    
C59   H36   S    
C55   O9    S    
C22   C29   A    
C31   H55   S    
C11   O4    S    
C51   O5    D    
O12   Zn2   S    
C54   O8    D    
C53   H26   S    
C26   H23   S    
C57   H30   S    
C48   H12   S    
C18   C19   A    
O22   Zn2   S    
C63   H43   S    
O18   Zn2   S    
C20   C24   A    
C45   C56   A    
C8    C9    A    
O21   Zn1   S    
C65   O16   S    
C63   O15   S    
C31   C33   S    
C52   H25   S    
C16   O20   A    
C64   H44   S    
C42   N4    S    
C9    C10   A    
C54   H27   S    
C60   H39   S    
N3    Zn2   S    
C16   C37   S    
C31   H2    S    
C30   H56   S    
C64   H46   S    
C66   H51   S    
C21   C22   A    
C35   C54   S    
C43   H15   S    
C40   H14   S    
C2    C6    A    
C53   O7    D    
C47   C67   A    
C25   C29   A    
C15   C69   A    
C59   H37   S    
C2    C20   A    
C35   C38   S    
C1    O1    A    
C39   C40   S    
C4    C68   S    
C21   C34   A    
C38   H9    S    
C44   N4    S    
C7    H21   S    
C33   C37   S    
C39   H10   S    
C43   N3    S    
C11   N2    A    
O20   Zn2   S    
C25   C51   S    
C14   H20   S    
C5    C9    A    
C37   C38   S    
C33   H7    S    
C62   H41   S    
C65   H49   S    
C4    O17   A    
C29   H53   S    
C55   H28   S    
C28   C69   S    
C40   H11   S    
C17   C18   A    
C13   O2    S    
C66   H52   S    
C49   O16   S    
C34   C45   A    
C17   H34   S    
C32   C37   S    
C30   H54   S    
C41   O9    S    
C43   C60   S    
C60   O11   D    
C23   N1    S    
C58   H33   S    
C33   H4    S    
C48   C49   A    
C51   H24   S    
C66   H50   S    
C55   C57   S    
C56   C62   S    
C2    C5    A    
C58   H35   S    
O19   Zn1   S    
C6    O15   S    
C44   H16   S    
C24   H22   S    
C27   C52   S    
C47   N1    A    
C39   N3    S    
N4    Zn1   S    
C42   O10   S    
C14   C15   A    
C14   C19   A    
C46   N1    A    
C3    C26   A    
C39   H13   S    
C3    C5    A    
C34   C67   A    
C12   C50   A    
C6    C7    A    
C4    O18   A    
C38   H8    S    
C44   C61   S    
C24   C56   A    
C57   H32   S    
C30   C36   S    
C47   O3    S    
C16   O19   A    
C58   C59   S    
C30   C32   S    
C57   H31   S    
C50   H1    S    
O17   Zn1   S    
C55   H29   S    
C19   N2    S    
O1    Zn1   S    
C63   H42   S    
C59   H38   S    
C1    O12   A    
C10   C11   A    
C63   C64   S    
C13   N2    A    
C61   O13   D    
C20   C21   A    
C28   O22   A    
C41   N3    S    
C65   C66   S    
C52   O6    D    
C65   H48   S    
C31   C36   S    
C3    C22   A    
C42   H18   S    
C50   C68   A    
C1    C36   S    
C15   H19   S    
