data_mof_unit_11524.cif
_audit_creation_date              2012-10-26T20:38:00-0400
_audit_creation_method            fapswitch 2.2
_symmetry_space_group_name_H-M    P1
_symmetry_Int_Tables_number       1
_space_group_crystal_system       triclinic
_cell_length_a                    9.963034
_cell_length_b                    11.032295
_cell_length_c                    12.92688
_cell_angle_alpha                 88.989016
_cell_angle_beta                  76.450097
_cell_angle_gamma                 111.970304
_cell_volume                      1272.230844

loop_
_atom_site_label
_atom_site_type_symbol
_atom_type_description
_atom_site_fract_x
_atom_site_fract_y
_atom_site_fract_z
_atom_type_partial_charge
C1    C     C_R   0.437764 0.253309 0.508455 0.534246
C2    C     C_R   0.581785 0.376854 0.030408 0.032300
C3    C     C_R   0.425319 0.608938 0.862097 0.152243
C4    C     C_R   0.572206 0.387335 0.139335 0.152883
C5    C     C_R   0.502225 0.424361 0.871555 0.232363
C6    C     C_R   0.504392 0.576250 0.126494 0.227355
C7    C     C_R   0.523066 0.449405 0.974583 -0.018851
C8    C     C_R   0.481169 0.549477 0.024506 -0.022633
C9    C     C_2   0.398034 0.111098 0.515926 0.008830
C10   C     C_2   0.601919 0.888822 0.484301 0.013758
C11   C     C_2   0.510156 0.068513 0.489591 -0.047905
C12   C     C_R   0.562213 0.746665 0.491690 0.543840
C13   C     C_2   0.489957 0.931492 0.511613 -0.041928
C14   C     C_2   0.332698 0.694837 0.026652 0.395751
C15   C     C_2   0.668530 0.301610 0.976256 0.400125
C16   C     C_2   0.763358 0.977070 0.445193 0.280735
C17   C     C_2   0.236468 0.022746 0.553837 0.284221
C18   C     C_2   0.087761 0.520775 0.493768 0.423161
C19   C     C_2   0.933342 0.527123 0.523856 0.422720
C20   C     C_R   0.475366 0.500225 0.701415 0.616631
C21   C     C_R   0.524694 0.499533 0.298579 0.618669
C22   C     C_R   0.533653 0.487190 0.186264 0.042112
C23   C     C_R   0.466953 0.511246 0.813808 0.050497
C24   C     C_R   0.419420 0.620518 0.970376 0.032724
Cl1   Cl    Cl    0.527809 0.731400 0.173753 -0.479322
Cl2   Cl    Cl    0.493855 0.274972 0.817901 -0.495179
Cl3   Cl    Cl    0.617014 0.279863 0.216111 -0.536000
Cl4   Cl    Cl    0.373811 0.713325 0.787488 -0.546091
Cl5   Cl    Cl    0.875701 0.545342 0.660014 -0.405218
Cl6   Cl    Cl    0.220954 0.646485 0.393593 -0.387027
Cl7   Cl    Cl    0.931867 0.524455 0.323185 -0.309968
Cl8   Cl    Cl    0.999218 0.312527 0.637005 -0.320877
Cu1   Cu    Cu3+1 0.647370 0.522180 0.481340 1.229817
Cu2   Cu    Cu3+1 0.352630 0.477820 0.518660 1.229040
H1    H     H_    0.378052 0.860578 0.549309 0.225673
H2    H     H_    0.622227 0.139557 0.452651 0.222738
H3    H     H_    0.345222 0.788941 0.989915 0.175415
H4    H     H_    0.649226 0.204753 0.011770 0.173015
H5    H     H_    0.838093 0.945959 0.386852 0.162610
H6    H     H_    0.160786 0.053977 0.611177 0.172919
N1    N     N_2   0.131210 0.444490 0.546730 -0.059943
N2    N     N_2   0.868790 0.555510 0.453270 -0.065844
O1    O     O_R   0.578710 0.332530 0.490040 -0.473273
O2    O     O_2   0.767925 0.350507 0.893902 -0.347252
O3    O     O_2   0.816156 0.080105 0.482397 -0.438568
O4    O     O_2   0.184697 0.919442 0.516711 -0.440703
O5    O     O_R   0.421290 0.667470 0.509960 -0.465260
O6    O     O_R   0.329810 0.295070 0.521560 -0.499583
O7    O     O_R   0.670190 0.704930 0.478440 -0.510945
O8    O     O_R   0.604230 0.515670 0.637800 -0.453673
O9    O     O_R   0.395770 0.484330 0.362200 -0.464141
O10   O     O_R   0.355330 0.478200 0.669330 -0.443702
O11   O     O_R   0.644670 0.521800 0.330670 -0.426681
O12   O     O_2   0.240933 0.648136 0.112771 -0.355823

loop_
_geom_bond_atom_site_label_1
_geom_bond_atom_site_label_2
_ccdc_geom_bond_type
C16   O3    D    
C2    C4    A    
Cl8   N1    S    
C20   C23   S    
C15   H4    S    
C13   H1    S    
C18   Cl6   S    
Cl7   N2    S    
C4    C22   A    
Cu2   O10   S    
C2    C7    A    
C5    C23   A    
C19   N2    D    
C12   O7    A    
C3    C24   A    
C7    C8    A    
C20   O10   A    
C19   Cl5   S    
C10   C16   S    
C21   C22   S    
C14   H3    S    
C21   O11   A    
C2    C15   S    
C11   C13   S    
Cu2   O9    S    
Cu2   N1    S    
C10   C12   S    
C12   O5    A    
Cu1   N2    S    
C10   C13   D    
C9    C17   S    
C11   H2    S    
C14   O12   D    
C15   O2    D    
Cu1   Cu2   S    
C9    C11   D    
C1    O6    A    
Cu1   O11   S    
C6    Cl1   S    
Cu2   O6    S    
C16   H5    S    
Cu1   O7    S    
C5    Cl2   S    
C6    C22   A    
C21   O9    A    
C4    Cl3   S    
C1    C9    S    
C17   O4    D    
C20   O8    A    
C18   C19   S    
C18   N1    D    
C14   C24   S    
C5    C7    A    
C3    Cl4   S    
C6    C8    A    
Cu2   O5    S    
C8    C24   A    
Cu1   O8    S    
C3    C23   A    
C1    O1    A    
C17   H6    S    
Cu1   O1    S    
