data_mof_unit_10516.cif
_audit_creation_date              2012-12-10T18:11:47-0500
_audit_creation_method            fapswitch 2.2
_symmetry_space_group_name_H-M    P1
_symmetry_Int_Tables_number       1
_space_group_crystal_system       triclinic
_cell_length_a                    15.836694
_cell_length_b                    10.732208
_cell_length_c                    9.430625
_cell_angle_alpha                 89.919902
_cell_angle_beta                  89.842276
_cell_angle_gamma                 90.332621
_cell_volume                      1602.81974661

loop_
_atom_site_label
_atom_site_type_symbol
_atom_type_description
_atom_site_fract_x
_atom_site_fract_y
_atom_site_fract_z
_atom_type_partial_charge
C1    C     C_R   0.496366 0.260047 0.500330 0.820493
C2    C     C_3   0.082621 0.495664 0.499220 0.141358
C3    C     C_3   0.971717 0.522490 0.368608 -0.130761
C4    C     C_3   0.916951 0.492809 0.499319 0.138839
C5    C     C_3   0.028353 0.409595 0.405740 -0.216982
C6    C     C_3   0.971817 0.379117 0.536070 -0.253973
C7    C     C_1   0.174392 0.497232 0.500237 -0.029378
C8    C     C_1   0.825322 0.492681 0.499387 -0.063787
C9    C     C_3   0.585529 0.074913 0.476917 -0.559276
C10   C     C_3   0.587885 0.930536 0.471858 0.295582
C11   C     C_3   0.461891 0.070846 0.646842 0.341521
C12   C     C_R   0.339815 0.499749 0.500177 0.850442
C13   C     C_3   0.436747 0.071864 0.381291 -0.403300
C14   C     C_3   0.494560 0.122082 0.501558 0.032250
C15   C     C_3   0.497110 0.878394 0.499379 -0.002650
C16   C     C_3   0.466458 0.927291 0.646145 -0.537238
C17   C     C_3   0.436876 0.927561 0.380630 0.125388
C18   C     C_3   0.542579 0.615091 0.085898 -0.182640
C19   C     C_3   0.539666 0.619538 0.917611 0.271986
C20   C     C_3   0.547167 0.390555 0.082173 0.474347
C21   C     C_3   0.414700 0.496301 0.084193 -0.331966
C22   C     C_3   0.548497 0.395473 0.914208 -0.244252
C23   C     C_R   0.498979 0.740152 0.499938 0.843998
C24   C     C_3   0.414416 0.493957 0.917076 -0.293863
C25   C     C_R   0.660095 0.497833 0.499890 0.840869
C26   C     C_3   0.971035 0.579686 0.592816 -0.251092
C27   C     C_3   0.026653 0.466563 0.627153 0.512154
C28   C     C_1   0.250035 0.498539 0.500517 -0.175878
C29   C     C_1   0.749750 0.494261 0.499708 -0.196912
C30   C     C_3   0.027505 0.608548 0.462025 -0.213813
Cu1   Cu    Cu3+1 0.500040 0.499860 0.642410 0.922947
Cu2   Cu    Cu3+1 0.499960 0.500140 0.357590 0.951415
H1    H     H_    0.629472 0.895798 0.558701 0.073641
H2    H     H_    0.505370 0.105963 0.731248 0.054771
H3    H     H_    0.511067 0.897690 0.730577 0.120641
H4    H     H_    0.371669 0.108777 0.394315 0.198390
H5    H     H_    0.459942 0.105743 0.276462 0.139414
H6    H     H_    0.462731 0.896898 0.276343 0.173577
H7    H     H_    0.404252 0.885271 0.673973 0.199141
H8    H     H_    0.606798 0.624106 0.130436 0.200867
H9    H     H_    0.946229 0.648729 0.669705 0.126865
H10   H     H_    0.508704 0.698477 0.125571 0.126425
H11   H     H_    0.496294 0.697961 0.891889 0.065875
H12   H     H_    0.613732 0.396869 0.871750 0.177171
H13   H     H_    0.380542 0.412566 0.124651 0.162017
H14   H     H_    0.378516 0.578634 0.121424 0.176941
H15   H     H_    0.375129 0.572218 0.877609 0.166000
H16   H     H_    0.383198 0.406965 0.879850 0.178860
H17   H     H_    0.511154 0.305239 0.114116 0.037666
H18   H     H_    0.947680 0.285480 0.566451 0.126003
H19   H     H_    0.520769 0.307193 0.874662 0.095301
H20   H     H_    0.053491 0.340664 0.329069 0.147670
H21   H     H_    0.947100 0.545693 0.261726 0.134483
H22   H     H_    0.051762 0.701928 0.430846 0.140798
H23   H     H_    0.627564 0.108648 0.563353 0.121179
H24   H     H_    0.610506 0.114642 0.376536 0.204908
N1    N     N_3   0.501840 0.500250 0.143650 -0.160810
N2    N     N_3   0.501160 0.503300 0.856280 -0.141017
O1    O     O_R   0.500050 0.317570 0.620260 -0.592669
O2    O     O_R   0.499980 0.317810 0.379740 -0.593353
O3    O     O_R   0.379110 0.499870 0.620240 -0.582501
O4    O     O_R   0.379040 0.500110 0.379720 -0.592762
O5    O     O_R   0.500020 0.682190 0.620260 -0.613229
O6    O     O_R   0.499950 0.682430 0.379740 -0.566357
O7    O     O_R   0.620960 0.499890 0.620280 -0.560964
O8    O     O_R   0.620890 0.500130 0.379760 -0.520183
O9    O     O_3   0.061369 0.438217 0.760952 -0.583196
C31   C     C_3   0.995579 0.412554 0.858015 0.068060
H25   H     H_    0.958015 0.330015 0.823726 0.135602
H26   H     H_    0.953117 0.494235 0.869850 0.134296
C32   C     C_3   0.033266 0.383665 0.002433 -0.807554
H27   H     H_    0.069134 0.465622 0.042286 0.249070
H28   H     H_    0.981904 0.360890 0.078746 0.193384
H29   H     H_    0.076389 0.302698 0.994470 0.249502
N3    N     N_2   0.351674 0.877077 0.397231 -0.430176
H30   H     H_    0.317801 0.912312 0.481515 0.284034
C33   C     C_3   0.302531 0.866594 0.268625 -0.741827
H31   H     H_    0.241050 0.820950 0.292880 0.233820
H32   H     H_    0.336221 0.808415 0.189497 0.223717
H33   H     H_    0.290599 0.960427 0.223247 0.222612
O10   O     O_3   0.377560 0.110936 0.669556 -0.574698
C34   C     C_3   0.358021 0.113975 0.815882 0.052012
H34   H     H_    0.400382 0.179488 0.873153 0.117603
H35   H     H_    0.363347 0.019699 0.864165 0.131679
C35   C     C_3   0.267803 0.158891 0.834944 -0.772425
H36   H     H_    0.223323 0.093981 0.781425 0.246549
H37   H     H_    0.251898 0.162816 0.949617 0.186627
H38   H     H_    0.260838 0.253478 0.788534 0.261618
N4    N     N_2   0.620323 0.651020 0.849133 -0.378006
H39   H     H_    0.619958 0.732931 0.791783 0.236474
C36   C     C_3   0.701275 0.627987 0.915329 -0.739315
H40   H     H_    0.715566 0.702284 0.993701 0.209643
H41   H     H_    0.751407 0.629960 0.832785 0.225404
H42   H     H_    0.703219 0.535744 0.967299 0.262539
O11   O     O_3   0.630460 0.385298 0.136775 -0.561458
C37   C     C_3   0.666720 0.266314 0.116727 0.014533
H43   H     H_    0.684504 0.252742 0.003809 0.120290
H44   H     H_    0.623366 0.189524 0.149290 0.127527
C38   C     C_3   0.746535 0.257270 0.205454 -0.778439
H45   H     H_    0.730684 0.266095 0.319729 0.239397
H46   H     H_    0.777094 0.165756 0.187608 0.180186
H47   H     H_    0.791529 0.332651 0.175342 0.247124
O12   O     O_3   0.617673 0.889307 0.337606 -0.592275
C39   C     C_3   0.706473 0.902810 0.325095 0.038159
H48   H     H_    0.733450 0.978833 0.391792 0.134835
H49   H     H_    0.721256 0.927138 0.213233 0.158756
C40   C     C_3   0.749975 0.780681 0.360092 -0.822100
H50   H     H_    0.725173 0.705143 0.291253 0.259735
H51   H     H_    0.819040 0.790116 0.342067 0.206604
H52   H     H_    0.738869 0.756303 0.473001 0.229491

loop_
_geom_bond_atom_site_label_1
_geom_bond_atom_site_label_2
_ccdc_geom_bond_type
O11   C37   S    
Cu1   O3    S    
C2    C7    S    
C4    C8    S    
C39   H49   S    
O10   C34   S    
C33   H31   S    
C11   O10   S    
C30   H22   S    
C26   C27   S    
C12   C28   S    
C8    C29   T    
Cu1   N2    S    
C10   O12   S    
C10   C15   S    
C1    O1    A    
C16   H3    S    
C5    C6    S    
C11   C14   S    
C35   H38   S    
C15   C16   S    
C37   C38   S    
Cu1   O7    S    
C18   C19   S    
Cu1   O1    S    
C18   H8    S    
C22   H12   S    
C6    C27   S    
C31   H25   S    
C37   H44   S    
C40   H50   S    
C5    H20   S    
C2    C27   S    
C9    H23   S    
N4    C36   S    
C9    C10   S    
C13   H5    S    
C15   C23   S    
C13   C14   S    
C40   H51   S    
Cu2   N1    S    
C39   H48   S    
C19   H11   S    
C21   H13   S    
C33   H32   S    
C19   N2    S    
C25   C29   S    
C35   H37   S    
O9    C31   S    
C24   H16   S    
Cu1   O5    S    
C25   O7    A    
Cu2   O6    S    
C13   H4    S    
C4    C6    S    
C1    O2    A    
C36   H40   S    
C32   H28   S    
C9    C14   S    
C35   H36   S    
C7    C28   T    
C3    C30   S    
N3    H30   S    
C21   N1    S    
C20   H17   S    
C19   N4    S    
C36   H41   S    
C12   O4    A    
C11   C16   S    
C18   N1    S    
Cu1   Cu2   S    
C37   H43   S    
C9    H24   S    
C6    H18   S    
N3    C33   S    
C24   N2    S    
C23   O6    A    
C38   H46   S    
C20   O11   S    
C20   C22   S    
C26   C30   S    
C34   H35   S    
C40   H52   S    
C2    C5    S    
Cu2   O2    S    
C3    C4    S    
Cu2   O8    S    
C21   H14   S    
C33   H33   S    
C15   C17   S    
C24   H15   S    
C11   H2    S    
C25   O8    A    
C3    C5    S    
C22   N2    S    
C32   H29   S    
C4    C26   S    
C34   C35   S    
C38   H45   S    
C13   C17   S    
C2    C30   S    
C18   H10   S    
N4    H39   S    
Cu2   O4    S    
C32   H27   S    
C36   H42   S    
C12   O3    A    
C3    H21   S    
C31   C32   S    
C23   O5    A    
C10   H1    S    
C17   H6    S    
C27   O9    S    
C16   H7    S    
C38   H47   S    
C31   H26   S    
C34   H34   S    
C21   C24   S    
O12   C39   S    
C17   N3    S    
C1    C14   S    
C20   N1    S    
C39   C40   S    
C26   H9    S    
C22   H19   S    
