data_mof_unit_29198.cif
_audit_creation_date              2013-03-05T15:46:01-0500
_audit_creation_method            fapswitch 2.2
_symmetry_space_group_name_H-M    P1
_symmetry_Int_Tables_number       1
_space_group_crystal_system       triclinic
_cell_length_a                    17.344451
_cell_length_b                    24.248608
_cell_length_c                    14.827206
_cell_angle_alpha                 90.058297
_cell_angle_beta                  124.514384
_cell_angle_gamma                 89.996965
_cell_volume                      5138.36725113

loop_
_atom_site_label
_atom_site_type_symbol
_atom_site_description
_atom_site_fract_x
_atom_site_fract_y
_atom_site_fract_z
_atom_type_partial_charge
C1    C     C_R   0.350925 0.151550 0.907557 -0.135910
C2    C     C_R   0.352142 0.848010 0.907850 -0.140477
C3    C     C_R   0.853733 0.652230 0.907549 -0.130151
C4    C     C_R   0.854734 0.347445 0.907714 -0.135789
H1    H     H_    0.315387 0.164618 0.823432 0.099207
H2    H     H_    0.317520 0.834581 0.823995 0.100483
H3    H     H_    0.817825 0.664760 0.823102 0.095274
H4    H     H_    0.819615 0.334622 0.823466 0.096869
N1    N     N_R   0.392140 0.102630 0.941800 -0.048246
N2    N     N_R   0.392140 0.897370 0.941800 -0.048857
N3    N     N_R   0.892140 0.602630 0.941800 -0.048559
N4    N     N_R   0.892140 0.397370 0.941800 -0.048764
C5    C     C_R   0.441999 0.847019 0.090345 -0.009604
C6    C     C_R   0.441603 0.153021 0.090162 -0.011334
C7    C     C_R   0.946662 0.345782 0.090096 -0.046698
C8    C     C_R   0.946198 0.654207 0.090005 -0.049628
N5    N     N_R   0.450890 0.896450 0.057150 -0.068642
N6    N     N_R   0.450890 0.103550 0.057150 -0.071034
N7    N     N_R   0.950890 0.396450 0.057150 -0.068609
N8    N     N_R   0.950890 0.603550 0.057150 -0.071342
C9    C     C_R   0.550110 0.045577 0.304214 -0.086291
C10   C     C_R   0.550165 0.954771 0.304511 -0.103712
C11   C     C_R   0.977308 0.545654 0.246354 -0.094075
C12   C     C_R   0.977213 0.454407 0.246229 -0.116278
H5    H     H_    0.570160 0.087297 0.332260 0.133172
H6    H     H_    0.569999 0.913123 0.332977 0.126411
H7    H     H_    0.965311 0.587968 0.255481 0.121577
H8    H     H_    0.965019 0.412117 0.255109 0.125514
N9    N     N_R   0.525160 0.027960 0.206160 -0.051662
N10   N     N_R   0.525160 0.972040 0.206160 -0.049415
N11   N     N_R   0.025160 0.527960 0.206160 -0.039881
N12   N     N_R   0.025160 0.472040 0.206160 -0.041747
C13   C     C_R   0.232766 0.952918 0.752078 -0.124725
C14   C     C_R   0.230775 0.045868 0.749487 -0.137870
C15   C     C_R   0.732808 0.452966 0.752451 -0.129946
C16   C     C_R   0.730892 0.545924 0.749896 -0.141613
H9    H     H_    0.214320 0.909856 0.742645 0.100021
H10   H     H_    0.208011 0.088348 0.733268 0.103166
H11   H     H_    0.714351 0.409892 0.743284 0.100348
H12   H     H_    0.708313 0.588448 0.734168 0.102692
N13   N     N_R   0.317870 0.971120 0.792790 -0.040020
N14   N     N_R   0.317870 0.028880 0.792790 -0.039453
N15   N     N_R   0.817870 0.471120 0.792790 -0.038991
N16   N     N_R   0.817870 0.528880 0.792790 -0.038466
C17   C     C_R   0.380452 0.184864 0.997764 -0.030060
C18   C     C_R   0.381806 0.814789 0.998075 -0.031866
C19   C     C_R   0.886678 0.686381 0.997460 -0.020083
C20   C     C_R   0.887823 0.313362 0.997573 -0.021348
C21   C     C_R   0.569224 0.000312 0.368969 0.016657
C22   C     C_R   0.944763 0.500045 0.270997 0.018454
C23   C     C_R   0.175333 0.998761 0.718933 0.018822
C24   C     C_R   0.675372 0.498854 0.719142 0.020636
C25   C     C_R   0.501300 0.045699 0.731472 -0.124159
C26   C     C_R   0.501723 0.954434 0.731581 -0.124949
C27   C     C_R   0.949749 0.545506 0.695588 -0.134852
C28   C     C_R   0.949642 0.454477 0.695445 -0.136064
H13   H     H_    0.497251 0.087415 0.705157 0.089092
H14   H     H_    0.498300 0.912754 0.705210 0.091800
H15   H     H_    0.931122 0.587716 0.668609 0.088233
H16   H     H_    0.930922 0.412264 0.668265 0.091520
N17   N     N_R   0.473480 0.027920 0.793480 -0.042206
N18   N     N_R   0.473480 0.972080 0.793480 -0.041856
N19   N     N_R   0.973480 0.527920 0.793480 -0.041059
N20   N     N_R   0.973480 0.472080 0.793480 -0.041302
C29   C     C_R   0.752710 0.953763 0.303247 -0.136014
C30   C     C_R   0.757339 0.045623 0.301684 -0.113313
C31   C     C_R   0.253098 0.453664 0.302882 -0.120531
C32   C     C_R   0.257388 0.545575 0.301718 -0.098908
H17   H     H_    0.758862 0.912021 0.331557 0.146543
H18   H     H_    0.773456 0.088179 0.326742 0.139963
H19   H     H_    0.260217 0.411737 0.330752 0.150626
H20   H     H_    0.273526 0.588108 0.327160 0.145287
N21   N     N_R   0.681610 0.971120 0.207570 -0.040567
N22   N     N_R   0.681610 0.028880 0.207570 -0.042896
N23   N     N_R   0.181610 0.471120 0.207570 -0.041889
N24   N     N_R   0.181610 0.528880 0.207570 -0.043844
C33   C     C_R   0.686688 0.127295 0.090263 -0.070440
C34   C     C_R   0.687212 0.873483 0.090220 -0.055290
C35   C     C_R   0.188781 0.623967 0.088889 -0.064710
C36   C     C_R   0.189116 0.376652 0.088708 -0.047676
H21   H     H_    0.745216 0.132076 0.174243 0.105088
H22   H     H_    0.746001 0.869470 0.174293 0.124784
H23   H     H_    0.247034 0.629977 0.172670 0.106408
H24   H     H_    0.247610 0.371207 0.172532 0.128412
N25   N     N_R   0.605410 0.102620 0.056870 -0.037705
N26   N     N_R   0.605410 0.897380 0.056870 -0.034789
N27   N     N_R   0.105410 0.602620 0.056870 -0.034704
N28   N     N_R   0.105410 0.397380 0.056870 -0.030231
C37   C     C_R   0.591829 0.867295 0.908376 -0.123759
C38   C     C_R   0.591479 0.133110 0.908446 -0.125572
C39   C     C_R   0.096923 0.376640 0.905881 -0.123534
C40   C     C_R   0.096788 0.623836 0.906046 -0.126217
H25   H     H_    0.558775 0.853155 0.825875 0.092295
H26   H     H_    0.558422 0.147154 0.825935 0.089233
H27   H     H_    0.068865 0.373022 0.820148 0.101874
H28   H     H_    0.068748 0.627606 0.820347 0.100954
N29   N     N_R   0.549680 0.896430 0.944180 -0.045736
N30   N     N_R   0.549680 0.103570 0.944180 -0.045601
N31   N     N_R   0.049680 0.396430 0.944180 -0.047258
N32   N     N_R   0.049680 0.603570 0.944180 -0.047564
Ni1   Ni    Ni4+2 0.433410 0.064680 0.868830 0.211995
Ni2   Ni    Ni4+2 0.433410 0.935320 0.868830 0.215516
Ni3   Ni    Ni4+2 0.933410 0.564680 0.868830 0.204809
Ni4   Ni    Ni4+2 0.933410 0.435320 0.868830 0.207958
Ni5   Ni    Ni4+2 0.565650 0.934380 0.131170 0.255846
Ni6   Ni    Ni4+2 0.565650 0.065620 0.131170 0.262919
Ni7   Ni    Ni4+2 0.065650 0.434380 0.131170 0.264728
Ni8   Ni    Ni4+2 0.065650 0.565620 0.131170 0.277007
C41   C     C_R   0.528589 0.000147 0.700939 0.051435
C42   C     C_R   0.933071 0.499989 0.631081 0.055101
C43   C     C_R   0.804481 0.999075 0.362115 -0.035131
C44   C     C_R   0.304793 0.498973 0.361707 -0.042398
C45   C     C_R   0.680736 0.144821 0.997169 0.024324
C46   C     C_R   0.681350 0.856060 0.996999 0.016857
C47   C     C_R   0.185473 0.636712 0.994930 0.017298
C48   C     C_R   0.185725 0.364026 0.994538 0.008723
C49   C     C_3   0.038374 0.937520 0.598893 -0.468873
C50   C     C_3   0.015727 0.029199 0.659567 -0.467517
C51   C     C_3   0.539337 0.437543 0.596631 -0.469714
C52   C     C_3   0.515088 0.528202 0.659796 -0.473874
H29   H     H_    0.083601 0.912728 0.583182 0.165428
H30   H     H_    0.041310 0.072462 0.681322 0.184446
H31   H     H_    0.585324 0.413546 0.580962 0.164346
H32   H     H_    0.538938 0.571797 0.680593 0.186829
H33   H     H_    0.041349 0.917796 0.668630 0.159953
H34   H     H_    0.024946 0.010541 0.733658 0.161836
H35   H     H_    0.541855 0.416945 0.665387 0.159886
H36   H     H_    0.525492 0.509357 0.734370 0.161231
C53   C     C_3   0.937897 0.936520 0.496753 -0.192083
C54   C     C_3   0.910782 0.026532 0.562554 -0.205984
C55   C     C_3   0.439275 0.436556 0.493810 -0.191097
C56   C     C_3   0.410055 0.524248 0.563290 -0.206870
H37   H     H_    0.894133 0.916282 0.520395 0.112011
H38   H     H_    0.874172 0.999727 0.588045 0.124624
H39   H     H_    0.395662 0.414777 0.515999 0.113895
H40   H     H_    0.375598 0.495451 0.588620 0.127949
H41   H     H_    0.104779 0.000473 0.503052 0.185452
H42   H     H_    0.094867 0.067374 0.546947 0.157273
H43   H     H_    0.604259 0.502446 0.502477 0.186271
H44   H     H_    0.594954 0.568716 0.548960 0.153536
H45   H     H_    0.953955 0.011965 0.357327 0.199961
H46   H     H_    0.943070 0.072669 0.414537 0.182310
H47   H     H_    0.453452 0.515903 0.357436 0.198681
H48   H     H_    0.442593 0.574713 0.419623 0.181803
C57   C     C_3   0.065441 0.024909 0.528066 -0.358740
C58   C     C_3   0.565339 0.526305 0.528787 -0.359884
C59   C     C_3   0.075293 0.997627 0.629078 0.348323
C60   C     C_3   0.575393 0.497762 0.628899 0.352221
C61   C     C_3   0.901225 0.997770 0.461030 0.173057
C62   C     C_3   0.401412 0.497699 0.460678 0.175275
C63   C     C_3   0.963271 0.028563 0.432745 -0.351247
C64   C     C_3   0.463010 0.530532 0.434183 -0.356476
C65   C     C_R   0.276006 0.737503 0.891248 -0.150052
C66   C     C_R   0.273660 0.261552 0.890813 -0.153454
C67   C     C_R   0.782457 0.236094 0.890467 -0.147271
C68   C     C_R   0.781537 0.763615 0.890295 -0.151903
H49   H     H_    0.244914 0.760319 0.815829 0.114056
H50   H     H_    0.241623 0.238124 0.815875 0.117639
H51   H     H_    0.755134 0.256865 0.813659 0.112146
H52   H     H_    0.753703 0.742507 0.813612 0.114584
C69   C     C_R   0.728440 0.194637 0.890924 -0.161768
C70   C     C_R   0.728382 0.805690 0.890547 -0.160105
C71   C     C_R   0.227625 0.692103 0.889701 -0.155167
C72   C     C_R   0.226020 0.307380 0.888953 -0.154317
H53   H     H_    0.664023 0.184645 0.813920 0.107892
H54   H     H_    0.664044 0.815686 0.813540 0.110196
H55   H     H_    0.162819 0.682310 0.812953 0.113723
H56   H     H_    0.160747 0.316727 0.812480 0.115965
C73   C     C_R   0.752084 0.172626 0.990958 0.134196
C74   C     C_R   0.752567 0.828260 0.990475 0.133051
C75   C     C_R   0.255275 0.666388 0.988315 0.135807
C76   C     C_R   0.254946 0.334089 0.987213 0.137424
C77   C     C_R   0.841862 0.181639 0.084968 -0.153669
C78   C     C_R   0.842365 0.819248 0.084269 -0.150786
C79   C     C_R   0.343704 0.677734 0.082759 -0.158802
C80   C     C_R   0.343797 0.323140 0.081027 -0.161407
H57   H     H_    0.866338 0.160661 0.161083 0.120388
H58   H     H_    0.867371 0.840905 0.159864 0.136384
H59   H     H_    0.370306 0.655369 0.158090 0.118154
H60   H     H_    0.371385 0.346566 0.155411 0.137124
C81   C     C_R   0.394648 0.722024 0.082986 -0.116953
C82   C     C_R   0.393852 0.278170 0.081759 -0.116335
C83   C     C_R   0.898180 0.221591 0.082939 -0.119444
C84   C     C_R   0.897809 0.778504 0.082608 -0.114261
H61   H     H_    0.461770 0.730203 0.157265 0.141983
H62   H     H_    0.461167 0.270123 0.155836 0.143239
H63   H     H_    0.966819 0.227908 0.156016 0.149504
H64   H     H_    0.966324 0.771943 0.155738 0.149197
C85   C     C_R   0.354412 0.756574 0.990790 0.125527
C86   C     C_R   0.352650 0.242977 0.990212 0.127403
C87   C     C_R   0.861278 0.254979 0.989835 0.118204
C88   C     C_R   0.860181 0.744748 0.989711 0.117658
C89   C     C_R   0.598038 0.950656 0.618002 -0.156075
C90   C     C_R   0.594948 0.050578 0.616021 -0.186972
C91   C     C_R   0.888075 0.450107 0.461793 -0.153970
C92   C     C_R   0.888373 0.549964 0.462188 -0.159941
H65   H     H_    0.593662 0.911362 0.649256 0.113303
H66   H     H_    0.588298 0.089841 0.645577 0.111484
H67   H     H_    0.889504 0.410740 0.496774 0.118906
H68   H     H_    0.890031 0.589325 0.497459 0.115813
C93   C     C_R   0.613412 0.950827 0.536384 -0.172459
C94   C     C_R   0.609240 0.050738 0.533749 -0.073587
C95   C     C_R   0.888289 0.450155 0.368576 -0.147620
C96   C     C_R   0.888621 0.549959 0.369002 -0.148254
H69   H     H_    0.618717 0.911548 0.505803 0.124973
H70   H     H_    0.610306 0.090194 0.500760 0.123549
H71   H     H_    0.889936 0.410824 0.335369 0.135669
H72   H     H_    0.890563 0.589304 0.336166 0.135086
C97   C     C_R   0.605729 0.000697 0.484314 0.151778
C98   C     C_R   0.899959 0.500059 0.329974 0.129774
C99   C     C_R   0.576833 0.000437 0.647236 0.135881
C100  C     C_R   0.898118 0.500018 0.515288 0.127084
C101  C     C_2   0.933965 0.899172 0.411255 0.984974
O1    O     O_2   0.970361 0.912933 0.364265 -0.659673
O2    O     O_R   0.893454 0.846878 0.392386 -0.818007
H73   H     H_    0.898478 0.824385 0.338301 0.324767
C102  C     C_2   0.866141 0.082986 0.541306 1.010140
O3    O     O_2   0.899994 0.122955 0.525416 -0.656380
O4    O     O_R   0.786233 0.089326 0.541531 -0.821585
H74   H     H_    0.762205 0.128656 0.525901 0.325391
C103  C     C_2   0.436509 0.401120 0.406904 0.982005
O5    O     O_2   0.472907 0.416756 0.360964 -0.661345
O6    O     O_R   0.397154 0.348373 0.385537 -0.817643
H75   H     H_    0.403508 0.327037 0.331301 0.324081
C104  C     C_2   0.361533 0.579284 0.543636 1.010228
O7    O     O_2   0.392792 0.621097 0.529398 -0.655466
O8    O     O_R   0.280579 0.582038 0.542716 -0.796367
H76   H     H_    0.253723 0.620682 0.528086 0.334272
C105  C     C_2   0.506015 0.828432 0.203591 0.900897
O9    O     O_2   0.475250 0.815375 0.257108 -0.646203
O10   O     O_R   0.602217 0.827456 0.250588 -0.814736
H77   H     H_    0.639573 0.814583 0.329491 0.322268
C106  C     C_2   0.505327 0.172160 0.203221 0.899007
O11   O     O_2   0.589579 0.173263 0.244891 -0.659525
O12   O     O_R   0.469498 0.187702 0.263446 -0.803841
H78   H     H_    0.520322 0.199606 0.340717 0.320580
C107  C     C_2   0.016652 0.326848 0.202297 0.914912
O13   O     O_2   0.991590 0.309123 0.259007 -0.661363
O14   O     O_R   0.111739 0.332784 0.245863 -0.804947
H79   H     H_    0.153290 0.319771 0.324530 0.329626
C108  C     C_2   0.014977 0.673343 0.202561 0.914438
O15   O     O_2   0.098557 0.668114 0.242747 -0.642967
O16   O     O_R   0.984445 0.693786 0.265504 -0.822268
H80   H     H_    0.038253 0.704285 0.342314 0.328256

loop_
_geom_bond_atom_site_label_1
_geom_bond_atom_site_label_2
_geom_bond_distance
_ccdc_geom_bond_type
H43   C58   1.113777 S    
N23   Ni7   1.881048 S    
C35   C47   1.396404 A    
C56   C62   1.578368 S    
N13   N14   1.400602 A    
C6    N6    1.338928 A    
N17   Ni1   1.844883 S    
O6    H75   1.012962 S    
C14   N14   1.328623 A    
C3    N3    1.328907 A    
C92   H68   1.080381 S    
C51   H31   1.112858 S    
C9    C21   1.370368 A    
C89   C93   1.378886 A    
N6    Ni6   1.881127 S    
C54   H38   1.114030 S    
C101  O1    1.222363 D    
C2    C18   1.387619 A    
C80   C82   1.390054 A    
C40   N32   1.323997 A    
C14   C23   1.392891 A    
N9    N10   1.355985 A    
C65   C71   1.376547 A    
C1    H1    1.079670 S    
H41   C57   1.113763 S    
C50   C59   1.544787 S    
C66   H50   1.079432 S    
C55   H39   1.114354 S    
C61   C63   1.550390 S    
C65   H49   1.079469 S    
C32   C44   1.384696 A    
C5    C18   1.397072 A    
C89   H65   1.081270 S    
C89   C99   1.399944 A    
C91   C95   1.384250 A    
H42   C57   1.112089 S    
O16   H80   1.013796 S    
C90   C94   1.375576 A    
C40   H28   1.076755 S    
C29   N21   1.314933 A    
C39   C48   1.378475 A    
C48   C76   1.458673 S    
C46   C74   1.457642 S    
C108  O15   1.222232 D    
C82   H62   1.074618 S    
C38   C45   1.378144 A    
C93   C97   1.400532 A    
C19   C88   1.472403 S    
N26   N29   1.377086 A    
C49   H29   1.112562 S    
N15   Ni4   1.866034 S    
C29   C43   1.373097 A    
C20   C87   1.472839 S    
N25   N30   1.377141 A    
C5    C105  1.464286 S    
C90   C99   1.398990 A    
C70   H54   1.079050 S    
C81   C85   1.406714 A    
C27   C42   1.378786 A    
N27   Ni8   1.832269 S    
O14   H79   1.013704 S    
N18   Ni2   1.846017 S    
N12   Ni7   1.856390 S    
C27   N19   1.335005 A    
C51   C55   1.529175 S    
O12   H78   1.013840 S    
C84   C88   1.404363 A    
C95   C98   1.402014 A    
C33   H21   1.077830 S    
C30   C43   1.384620 A    
C4    N4    1.330097 A    
C15   N15   1.314426 A    
C106  O11   1.222580 D    
C78   H58   1.080817 S    
C91   H67   1.080431 S    
N29   Ni2   1.911297 S    
C16   C24   1.392645 A    
C36   H24   1.078354 S    
C79   C81   1.389552 A    
C69   C73   1.401894 A    
C8    C108  1.471727 S    
C34   N26   1.341178 A    
C52   H36   1.113061 S    
N31   Ni4   1.911297 S    
C66   C86   1.401815 A    
C68   C70   1.376499 A    
C24   C60   1.472631 S    
C52   C56   1.556007 S    
C107  O13   1.222977 D    
C36   N28   1.344265 A    
C37   H25   1.071000 S    
C45   C73   1.457325 S    
C2    H2    1.079640 S    
C25   N17   1.329487 A    
C7    C20   1.397446 A    
C18   C85   1.473660 S    
C33   C45   1.391506 A    
C43   C61   1.476094 S    
C8    C19   1.397886 A    
C28   C42   1.379344 A    
C57   C59   1.556279 S    
N16   Ni3   1.865065 S    
N4    N7    1.410361 A    
C38   H26   1.071146 S    
C6    C17   1.397669 A    
C58   C60   1.556139 S    
C101  O2    1.398775 S    
N21   N22   1.400602 A    
C12   C22   1.381908 A    
N26   Ni5   1.831136 S    
C42   C100  1.461413 S    
N3    N8    1.410308 A    
C93   H69   1.080575 S    
C67   H51   1.079263 S    
C7    N7    1.339905 A    
C96   H72   1.080695 S    
C72   H56   1.079140 S    
C1    N1    1.328843 A    
N19   Ni3   1.844883 S    
C78   C84   1.388573 A    
O4    H74   1.013859 S    
N28   Ni7   1.831136 S    
C81   H61   1.074355 S    
C11   C22   1.381988 A    
C65   C85   1.402042 A    
C71   C75   1.401393 A    
C26   N18   1.331939 A    
C74   C78   1.397712 A    
C102  O3    1.223492 D    
C75   C79   1.397991 A    
N32   Ni3   1.910281 S    
C67   C69   1.376827 A    
C28   H16   1.080034 S    
C26   C41   1.375957 A    
C37   N29   1.324525 A    
C32   H20   1.078859 S    
C108  O16   1.398671 S    
C11   N11   1.337178 A    
H46   C63   1.110351 S    
C54   C102  1.515585 S    
C71   H55   1.079231 S    
N23   N24   1.400602 A    
C12   N12   1.337086 A    
C50   H30   1.112947 S    
C53   C61   1.584543 S    
C105  O9    1.222697 D    
C50   C54   1.555378 S    
C62   C64   1.551134 S    
C83   H63   1.073628 S    
N22   Ni6   1.882039 S    
C103  O5    1.222348 D    
C92   C96   1.384138 A    
C34   H22   1.078399 S    
N21   Ni5   1.881048 S    
O8    H76   1.013893 S    
C70   C74   1.401725 A    
C77   H57   1.082070 S    
C56   H40   1.113911 S    
C54   C61   1.579557 S    
C28   N20   1.335572 A    
C104  O7    1.223418 D    
C31   C44   1.372474 A    
C55   C103  1.526039 S    
C8    N8    1.340345 A    
C32   N24   1.326564 A    
C106  O12   1.397753 S    
C77   C83   1.388192 A    
C23   C59   1.471970 S    
C35   N27   1.343852 A    
C67   C87   1.401993 A    
C10   C21   1.371889 A    
C58   C64   1.518941 S    
C68   C88   1.401963 A    
N11   Ni8   1.857539 S    
N1    Ni1   1.845360 S    
H47   C64   1.110698 S    
C103  O6    1.398708 S    
C52   C60   1.546274 S    
C11   H7    1.070519 S    
C107  O14   1.396618 S    
N10   Ni5   1.856390 S    
C10   H6    1.073632 S    
C105  O10   1.397384 S    
C53   H37   1.114367 S    
N9    Ni6   1.857539 S    
C16   N16   1.328280 A    
C47   C75   1.458774 S    
C13   C23   1.384108 A    
C94   C97   1.400336 A    
N13   Ni2   1.866034 S    
N25   Ni6   1.832269 S    
C2    N2    1.330565 A    
N14   Ni1   1.865065 S    
C27   H15   1.079989 S    
H44   C58   1.111881 S    
C16   H12   1.080705 S    
C49   C53   1.529785 S    
H45   C63   1.110355 S    
C4    C20   1.386819 A    
N27   N32   1.377141 A    
C26   H14   1.072734 S    
C25   C41   1.375076 A    
N20   Ni4   1.846017 S    
C9    H5    1.073597 S    
C37   C46   1.378519 A    
C34   C46   1.392441 A    
C25   H13   1.072448 S    
C10   N10   1.332115 A    
C44   C62   1.475129 S    
C14   H10   1.080585 S    
N11   N12   1.355985 A    
C36   C48   1.397442 A    
C12   H8    1.070287 S    
C83   C87   1.404194 A    
C79   H59   1.082488 S    
C4    H4    1.079396 S    
N4    Ni4   1.846495 S    
N5    Ni5   1.880138 S    
C68   H52   1.079172 S    
C57   C63   1.519100 S    
C102  O4    1.396340 S    
N30   Ni1   1.910281 S    
C82   C86   1.407087 A    
C7    C107  1.471392 S    
C3    H3    1.079368 S    
C5    N5    1.337892 A    
C49   C59   1.551995 S    
C13   N13   1.314466 A    
C96   C98   1.401846 A    
C51   C60   1.553021 S    
C91   C100  1.402050 A    
H48   C64   1.110642 S    
C56   C104  1.515562 S    
C35   H23   1.078211 S    
C15   C24   1.384883 A    
C1    C17   1.387579 A    
C90   H66   1.080837 S    
C9    N9    1.330138 A    
N1    N6    1.410308 A    
N15   N16   1.400602 A    
C29   H17   1.078049 S    
C15   H11   1.078123 S    
N2    Ni2   1.846495 S    
C3    C19   1.387113 A    
C104  O8    1.398024 S    
C52   H32   1.112879 S    
C30   N22   1.326336 A    
C31   H19   1.078261 S    
O2    H73   1.013151 S    
C53   C101  1.526943 S    
N17   N18   1.354045 A    
C50   H34   1.113117 S    
C40   C47   1.379248 A    
C13   H9    1.077623 S    
N28   N31   1.377086 A    
C72   C76   1.401275 A    
C66   C72   1.375715 A    
C33   N25   1.341254 A    
N19   N20   1.354045 A    
C92   C100  1.402272 A    
C84   H64   1.073938 S    
C17   C86   1.473038 S    
C80   H60   1.081076 S    
C31   N23   1.314985 A    
C30   H18   1.078231 S    
C22   C98   1.462410 S    
C39   H27   1.076645 S    
N24   Ni8   1.882039 S    
C94   H70   1.079903 S    
C21   C97   1.448706 S    
O10   H77   1.013735 S    
C73   C77   1.398268 A    
C55   C62   1.583227 S    
N3    Ni3   1.845360 S    
C95   H71   1.080657 S    
N2    N5    1.410361 A    
C39   N31   1.323212 A    
C41   C99   1.445466 S    
C49   H33   1.114054 S    
C38   N30   1.324976 A    
C6    C106  1.464904 S    
C69   H53   1.079113 S    
C76   C80   1.397061 A    
N7    Ni7   1.880138 S    
N8    Ni8   1.881127 S    
C51   H35   1.114107 S    
