data_mof_unit_57497.cif
_audit_creation_date              2013-03-05T16:12:08-0500
_audit_creation_method            fapswitch 2.2
_symmetry_space_group_name_H-M    P1
_symmetry_Int_Tables_number       1
_space_group_crystal_system       triclinic
_cell_length_a                    10.757462
_cell_length_b                    9.710014
_cell_length_c                    27.752952
_cell_angle_alpha                 89.598268
_cell_angle_beta                  88.060255
_cell_angle_gamma                 90.273979
_cell_volume                      2897.16864638

loop_
_atom_site_label
_atom_site_type_symbol
_atom_site_description
_atom_site_fract_x
_atom_site_fract_y
_atom_site_fract_z
_atom_type_partial_charge
O1    O     O_R   0.317570 0.620260 0.500030 -0.553064
O2    O     O_R   0.317570 0.379740 0.500030 -0.587361
C1    C     C_R   0.260332 0.499706 0.498899 0.768239
O3    O     O_R   0.499900 0.620250 0.430280 -0.557258
O4    O     O_R   0.499900 0.379750 0.430280 -0.594998
C2    C     C_R   0.500258 0.500461 0.408127 0.816302
Cu1   Cu    Cu3+1 0.499860 0.642410 0.500020 0.977969
Cu2   Cu    Cu3+1 0.499860 0.357590 0.500020 0.947235
O5    O     O_R   0.682190 0.620260 0.500010 -0.571999
O6    O     O_R   0.682190 0.379740 0.500010 -0.609256
O7    O     O_R   0.499860 0.620280 0.569750 -0.576621
O8    O     O_R   0.499860 0.379720 0.569750 -0.585053
C3    C     C_R   0.738864 0.500149 0.498748 0.809748
C4    C     C_R   0.502549 0.499448 0.592136 0.839267
C5    C     C_R   0.397248 0.473792 0.178860 0.646751
O9    O     O_2   0.296961 0.423068 0.203737 -0.513738
N1    N     N_R   0.500829 0.512073 0.202632 -0.435567
C6    C     C_R   0.604039 0.562984 0.178224 0.597622
C7    C     C_R   0.583321 0.417849 0.278659 -0.041391
C8    C     C_R   0.585635 0.422160 0.329107 -0.187454
C9    C     C_R   0.414384 0.582441 0.331738 -0.237350
C10   C     C_R   0.416233 0.588165 0.281459 0.203116
C11   C     C_R   0.499341 0.504451 0.254495 0.279765
C12   C     C_R   0.503601 0.524315 0.102380 -0.039834
C13   C     C_R   0.394151 0.488405 0.128795 -0.050946
C14   C     C_R   0.281756 0.478571 0.105371 -0.174304
C15   C     C_R   0.611842 0.560701 0.127153 -0.082327
C16   C     C_R   0.500247 0.501849 0.355547 -0.055848
H1    H     H_    0.345565 0.640820 0.352205 0.171874
H2    H     H_    0.195468 0.468181 0.126470 0.211752
C17   C     C_R   0.509103 0.497598 0.645156 -0.069965
C18   C     C_R   0.394112 0.488726 0.976274 0.054848
C19   C     C_R   0.620962 0.529468 0.973679 0.063688
C20   C     C_R   0.507912 0.506971 0.949622 0.027118
C21   C     C_R   0.289793 0.442531 0.951393 -0.196245
C22   C     C_R   0.288703 0.440212 0.901216 0.170111
C23   C     C_R   0.398084 0.472430 0.874044 -0.010439
C24   C     C_R   0.509180 0.497606 0.898481 -0.090719
C25   C     C_R   0.622109 0.511074 0.871732 -0.027814
C26   C     C_R   0.621982 0.508267 0.821286 0.644922
N2    N     N_R   0.512761 0.493264 0.798194 -0.441448
C27   C     C_R   0.402059 0.474999 0.823149 0.656829
C28   C     C_R   0.501951 0.369239 0.721065 -0.012676
C29   C     C_R   0.498041 0.372969 0.670704 -0.218817
C30   C     C_R   0.527900 0.619906 0.670400 -0.195576
C31   C     C_R   0.527690 0.620759 0.720863 -0.012285
C32   C     C_R   0.514455 0.494406 0.746422 0.209137
O10   O     O_2   0.296885 0.460417 0.798513 -0.478938
C33   C     C_R   0.390263 0.504107 0.027285 -0.002268
C34   C     C_R   0.503557 0.524589 0.051215 0.056371
C35   C     C_R   0.615949 0.549403 0.024543 0.042725
C36   C     C_R   0.277330 0.502499 0.055834 -0.035694
H3    H     H_    0.488074 0.277433 0.651325 0.213443
H4    H     H_    0.207644 0.403437 0.970274 0.145073
O11   O     O_2   0.696783 0.617246 0.203592 -0.517855
C37   C     C_R   0.719850 0.601020 0.099853 -0.035042
H5    H     H_    0.652624 0.361464 0.348121 0.186048
C38   C     C_R   0.734843 0.521214 0.945921 0.124320
C39   C     C_R   0.733568 0.519516 0.895701 -0.188168
O12   O     O_2   0.729964 0.520592 0.795354 -0.525565
C40   C     C_R   0.718163 0.600459 0.049544 -0.172283
H6    H     H_    0.540849 0.715901 0.650762 0.205811
H7    H     H_    0.821726 0.518093 0.875590 0.191543
H8    H     H_    0.798075 0.644081 0.030444 0.194901
C41   C     C_3   0.066334 0.599004 0.535402 -0.378000
C42   C     C_3   0.067548 0.353745 0.507273 -0.318965
H9    H     H_    0.088679 0.704424 0.522900 0.232241
H10   H     H_    0.105228 0.279838 0.480154 0.223666
H11   H     H_    0.106965 0.580845 0.571239 0.188748
H12   H     H_    0.093029 0.321991 0.543999 0.208228
C43   C     C_3   0.924014 0.587584 0.539377 -0.468162
C44   C     C_3   0.925852 0.352001 0.505671 -0.450479
H13   H     H_    0.895880 0.538301 0.574452 0.181312
H14   H     H_    0.886834 0.310140 0.540528 0.180940
H15   H     H_    0.882597 0.692314 0.539991 0.184411
H16   H     H_    0.895765 0.279354 0.477582 0.188497
H17   H     H_    0.121709 0.647963 0.437042 0.169456
H18   H     H_    0.113137 0.473398 0.419104 0.153425
C45   C     C_3   0.078024 0.547102 0.446860 -0.478143
C46   C     C_3   0.121252 0.499473 0.497096 0.079913
C47   C     C_3   0.876931 0.500243 0.497030 0.162119
C48   C     C_3   0.932016 0.557427 0.447038 0.345636
C49   C     C_3   0.628067 0.083272 0.505770 -0.286106
C50   C     C_3   0.629112 0.919260 0.501580 -0.267025
H19   H     H_    0.666810 0.111526 0.541120 0.144159
H20   H     H_    0.680295 0.876419 0.532456 0.148725
H21   H     H_    0.698135 0.131762 0.481386 0.228028
H22   H     H_    0.690010 0.889008 0.471114 0.248231
H23   H     H_    0.485396 0.116916 0.576959 0.112618
H24   H     H_    0.509411 0.899410 0.575829 0.109894
C51   C     C_3   0.433154 0.082633 0.545068 -0.089746
C52   C     C_3   0.440868 0.917716 0.547026 -0.105193
C53   C     C_3   0.447088 0.084500 0.454656 0.146474
C54   C     C_3   0.438058 0.915863 0.456761 0.166100
N3    N     N_3   0.500250 0.143650 0.501060 -0.202099
N4    N     N_3   0.500250 0.856350 0.501060 -0.190962
C55   C     C_2   0.667134 0.320434 0.252358 0.929318
O13   O     O_2   0.762495 0.280936 0.270763 -0.578698
O14   O     O_R   0.636006 0.270494 0.207167 -0.744844
H25   H     H_    0.700530 0.204906 0.193167 0.358273
C56   C     C_2   0.839617 0.636945 0.121510 0.985012
O15   O     O_2   0.890714 0.746511 0.111191 -0.577876
O16   O     O_R   0.897216 0.542288 0.151604 -0.682330
H26   H     H_    0.979579 0.577542 0.163415 0.346514
N5    N     N_3   0.851733 0.497760 0.967802 -0.573740
H27   H     H_    0.914558 0.572921 0.954914 0.212254
H28   H     H_    0.885355 0.401986 0.956491 0.240801
C57   C     C_2   0.539200 0.755193 0.745906 0.918902
O17   O     O_2   0.589250 0.853112 0.724974 -0.566747
O18   O     O_R   0.490921 0.771629 0.792915 -0.757599
H29   H     H_    0.505235 0.867544 0.805828 0.337115
N6    N     N_3   0.334531 0.680244 0.257534 -0.550253
H30   H     H_    0.243165 0.655620 0.268575 0.243067
H31   H     H_    0.353261 0.780220 0.269121 0.259230
N7    N     N_3   0.894315 0.702055 0.440314 -0.542002
H32   H     H_    0.922950 0.735962 0.405823 0.227659
H33   H     H_    0.939599 0.766307 0.464197 0.207866
N8    N     N_3   0.882483 0.476384 0.407129 -0.583140
H34   H     H_    0.920050 0.377425 0.406655 0.216686
H35   H     H_    0.911158 0.521342 0.374214 0.234140
N9    N     N_3   0.320947 0.140006 0.447553 -0.549881
H36   H     H_    0.279437 0.089921 0.418967 0.214042
H37   H     H_    0.323378 0.240943 0.435048 0.267296
N10   N     N_3   0.307659 0.865104 0.458967 -0.558861
H38   H     H_    0.250136 0.927044 0.479937 0.298291
H39   H     H_    0.265287 0.860160 0.425714 0.206486
C58   C     C_2   0.526547 0.129755 0.408445 0.866535
O19   O     O_2   0.473122 0.167324 0.372336 -0.584567
O20   O     O_R   0.655192 0.110538 0.404319 -0.788758
H40   H     H_    0.691391 0.132242 0.370925 0.350226
C59   C     C_2   0.494426 0.864823 0.407346 0.887007
O21   O     O_2   0.431434 0.871891 0.371474 -0.630780
O22   O     O_R   0.619278 0.826883 0.400737 -0.730598
H41   H     H_    0.642215 0.801874 0.366155 0.348419
C60   C     C_2   0.307127 0.143066 0.557809 0.950100
O23   O     O_2   0.218146 0.121141 0.533049 -0.599577
O24   O     O_R   0.290767 0.216636 0.600741 -0.768856
H42   H     H_    0.201258 0.243558 0.607919 0.324352
C61   C     C_2   0.327564 0.846047 0.571784 0.912645
O25   O     O_2   0.340927 0.781212 0.609177 -0.599141
O26   O     O_R   0.206645 0.871952 0.558340 -0.778318
H43   H     H_    0.142189 0.842939 0.584016 0.330471
C62   C     C_2   0.493343 0.233315 0.746227 0.906102
O27   O     O_2   0.444200 0.135473 0.726700 -0.543632
O28   O     O_R   0.543093 0.215559 0.791735 -0.762834
H44   H     H_    0.530616 0.118757 0.804947 0.336814
N11   N     N_3   0.176621 0.399602 0.878507 -0.496539
H45   H     H_    0.152177 0.300670 0.890705 0.223979
H46   H     H_    0.105793 0.466811 0.889668 0.224815
C63   C     C_2   0.157436 0.553621 0.037869 0.833932
O29   O     O_2   0.059041 0.503316 0.052932 -0.582352
O30   O     O_R   0.157385 0.663085 0.004851 -0.740127
H47   H     H_    0.070406 0.693361 0.996915 0.335400

loop_
_geom_bond_atom_site_label_1
_geom_bond_atom_site_label_2
_geom_bond_distance
_ccdc_geom_bond_type
C49   H21   1.097913 S    
C19   C38   1.427789 A    
C26   O12   1.349992 S    
C62   O28   1.398166 S    
N2    C27   1.367381 A    
C28   C62   1.489868 S    
C21   C22   1.393351 A    
C35   C40   1.409796 A    
C12   C15   1.416685 A    
C4    C17   1.475500 S    
C44   H16   1.110242 S    
C15   C37   1.417471 A    
N6    H31   1.045604 S    
C47   C48   1.585801 S    
C7    C55   1.487858 S    
C60   O23   1.215893 D    
C42   H12   1.106514 S    
C30   C31   1.400486 A    
Cu1   O7    1.945609 S    
Cu1   N4    2.077749 S    
N5    H28   1.045861 S    
C53   C54   1.640401 S    
C22   C23   1.408607 A    
N11   H46   1.045935 S    
C53   N9    1.481313 S    
C48   N7    1.475930 S    
O4    C2    1.319668 A    
O7    C4    1.324669 A    
C5    C13   1.397206 A    
C42   H10   1.111512 S    
C62   O27   1.223753 D    
C3    C47   1.484394 S    
C30   H6    1.082484 S    
C52   N4    1.532860 S    
C57   O17   1.223747 D    
N1    C6    1.369353 A    
C50   N4    1.512731 S    
C23   C27   1.411728 A    
O5    C3    1.318735 A    
O18   H29   1.013196 S    
N8    H34   1.044192 S    
C29   H3    1.082239 S    
C2    C16   1.459219 S    
N11   H45   1.045739 S    
C57   O18   1.398259 S    
C41   H9    1.101367 S    
C31   C57   1.489751 S    
H23   C51   1.116253 S    
C44   C47   1.554794 S    
C55   O13   1.223446 D    
C25   C39   1.393083 A    
C53   N3    1.540304 S    
C41   C46   1.546148 S    
C20   C24   1.422463 A    
C9    C10   1.395570 A    
C21   H4    1.078081 S    
Cu2   N3    2.077385 S    
O3    Cu1   1.948899 S    
C1    C46   1.498670 S    
N6    H30   1.045663 S    
C55   O14   1.398455 S    
O28   H44   1.013210 S    
H17   C45   1.112392 S    
C12   C34   1.419963 A    
C42   C44   1.526460 S    
C17   C29   1.400795 A    
C6    C15   1.417339 A    
C56   O15   1.222904 D    
Cu1   Cu2   2.765605 S    
C12   C13   1.406901 A    
C44   H14   1.114721 S    
C51   C52   1.604523 S    
C43   H13   1.113687 S    
H18   C45   1.113034 S    
C27   O10   1.349000 S    
C8    C16   1.396452 A    
N7    H33   1.044324 S    
C38   C39   1.394500 A    
C41   C43   1.534667 S    
C9    H1    1.082648 S    
O1    C1    1.321095 A    
C18   C20   1.418444 A    
C40   H8    1.077929 S    
C7    C11   1.418938 A    
C28   C29   1.399950 A    
C58   O20   1.398257 S    
C23   C24   1.415057 A    
C14   C36   1.395119 A    
C45   C48   1.574200 S    
C22   N11   1.434167 S    
H24   C52   1.119563 S    
C49   C50   1.597672 S    
Cu2   O8    1.948604 S    
C33   C36   1.427737 A    
C49   N3    1.506721 S    
C34   C35   1.414902 A    
N2    C32   1.436278 S    
C37   C40   1.396984 A    
N1    C11   1.440273 S    
C54   N4    1.530501 S    
N9    H36   1.045304 S    
C6    O11   1.347744 S    
O3    C2    1.319410 A    
C26   N2    1.364956 A    
C49   H19   1.114362 S    
C9    C16   1.393969 A    
O8    C4    1.322653 A    
C14   H2    1.084516 S    
C10   N6    1.432288 S    
O22   H41   1.014292 S    
C63   O30   1.398501 S    
C48   N8    1.475838 S    
C58   O19   1.226195 D    
C25   C26   1.400525 A    
N10   H39   1.044319 S    
O20   H40   1.013412 S    
N5    H27   1.045266 S    
C60   O24   1.399968 S    
C31   C32   1.417040 A    
O1    Cu1   1.971706 S    
C53   C58   1.575694 S    
Cu2   O6    1.972133 S    
O2    Cu2   1.973751 S    
C18   C21   1.410448 A    
C50   H22   1.094627 S    
C50   H20   1.113387 S    
C59   O22   1.400804 S    
O6    C3    1.315693 A    
C37   C56   1.481203 S    
O4    Cu2   1.945900 S    
C61   O25   1.222999 D    
C5    N1    1.365386 A    
C19   C35   1.425430 A    
C42   C46   1.546401 S    
O24   H42   1.012589 S    
C39   H7    1.084205 S    
C54   C59   1.565321 S    
C63   O29   1.223107 D    
O14   H25   1.013801 S    
C38   N5    1.433277 S    
C7    C8    1.402054 A    
O2    C1    1.320871 A    
C13   C14   1.395198 A    
O26   H43   1.014785 S    
C43   H15   1.112206 S    
C61   O26   1.388948 S    
C24   C25   1.407142 A    
C41   H11   1.113112 S    
C5    O9    1.350145 S    
C19   C20   1.423700 A    
C59   O21   1.224803 D    
N8    H35   1.046064 S    
C18   C33   1.423824 A    
N9    H37   1.037345 S    
C51   N3    1.513203 S    
C45   C46   1.552689 S    
Cu1   O5    1.974178 S    
C51   C60   1.511768 S    
O30   H47   1.012961 S    
C36   C63   1.484802 S    
C33   C34   1.421383 A    
C17   C30   1.400404 A    
O16   H26   1.013896 S    
C10   C11   1.410749 A    
C8    H5    1.081925 S    
C52   C61   1.539653 S    
C28   C32   1.416789 A    
N7    H32   1.046062 S    
N10   H38   1.033174 S    
C43   C47   1.551513 S    
C56   O16   1.398558 S    
C54   N10   1.483764 S    
