data_mof_unit_61824.cif
_audit_creation_date              2012-10-26T17:26:20-0400
_audit_creation_method            fapswitch 2.2
_symmetry_space_group_name_H-M    P1
_symmetry_Int_Tables_number       1
_space_group_crystal_system       monoclinic
_cell_length_a                    30.38418
_cell_length_b                    30.384157
_cell_length_c                    18.356881
_cell_angle_alpha                 90.000195
_cell_angle_beta                  90.0
_cell_angle_gamma                 90.0
_cell_volume                      16947.0302345

loop_
_atom_site_label
_atom_site_type_symbol
_atom_type_description
_atom_site_fract_x
_atom_site_fract_y
_atom_site_fract_z
_atom_type_partial_charge
C1    C     C_R   0.226020 0.000000 0.500000 0.027727
C2    C     C_R   0.996028 0.202840 0.434007 0.209795
C3    C     C_R   0.960229 0.656944 0.506152 -0.103988
C4    C     C_R   0.656943 0.039770 0.493829 -0.103989
C5    C     C_R   0.960229 0.343056 0.493850 -0.103988
C6    C     C_R   0.343056 0.960228 0.493879 -0.103990
C7    C     C_R   0.039770 0.656944 0.493847 -0.103988
C8    C     C_R   0.843056 0.539771 0.006139 -0.103989
C9    C     C_R   0.539771 0.843056 0.006151 -0.103988
C10   C     C_R   0.156944 0.460229 0.006136 -0.103989
C11   C     C_R   0.460229 0.156944 0.006149 -0.103987
C12   C     C_R   0.156944 0.539771 0.993864 -0.103990
C13   C     C_R   0.797160 0.003985 0.434008 0.209792
C14   C     C_R   0.460229 0.843056 0.993850 -0.103988
C15   C     C_R   0.843056 0.460229 0.993861 -0.103989
C16   C     C_R   0.539771 0.156944 0.993851 -0.103988
C17   C     C_R   0.366410 0.000000 0.500000 0.015412
C18   C     C_R   1.000000 0.366410 0.500000 0.015416
C19   C     C_R   0.633590 0.000000 0.500000 0.015415
C20   C     C_R   1.000000 0.633590 0.500000 0.015415
C21   C     C_R   0.866410 0.500000 0.000000 0.015413
C22   C     C_R   0.500000 0.866410 0.000000 0.015416
C23   C     C_R   0.133590 0.500000 0.000000 0.015412
C24   C     C_R   0.003976 0.797160 0.434006 0.209795
C25   C     C_R   0.500000 0.133590 1.000000 0.015416
C26   C     C_R   0.274230 1.000000 0.500000 0.103163
C27   C     C_R   1.000000 0.274230 0.500001 0.103169
C28   C     C_R   0.725770 0.000000 0.500000 0.103158
C29   C     C_R   1.000000 0.725770 0.499999 0.103165
C30   C     C_R   0.774230 0.500000 1.000000 0.103166
C31   C     C_R   0.500000 0.774230 0.000001 0.103169
C32   C     C_R   0.225770 0.500000 1.000000 0.103163
C33   C     C_R   0.500000 0.225770 0.999999 0.103169
C34   C     C_R   0.797160 0.996015 0.565992 0.209792
C35   C     C_R   0.003971 0.202840 0.565994 0.209796
C36   C     C_R   0.202840 0.004006 0.565988 0.209794
C37   C     C_R   0.996023 0.797160 0.565993 0.209794
C38   C     C_R   0.702840 0.496018 0.934008 0.209794
C39   C     C_R   0.496029 0.702840 0.934007 0.209795
C40   C     C_R   0.297160 0.503990 0.934009 0.209794
C41   C     C_R   1.000000 0.226020 0.500001 0.027723
C42   C     C_R   0.503973 0.297160 0.934006 0.209795
C43   C     C_R   0.297160 0.496010 0.065991 0.209794
C44   C     C_R   0.503971 0.702840 0.065994 0.209796
C45   C     C_R   0.702840 0.503982 0.065992 0.209794
C46   C     C_R   0.496027 0.297160 0.065993 0.209795
C47   C     C_R   0.156943 0.996107 0.434290 -0.093081
C48   C     C_R   0.996141 0.156943 0.434284 -0.093082
C49   C     C_R   0.843057 0.003873 0.434286 -0.093080
C50   C     C_R   0.003864 0.843057 0.434284 -0.093081
C51   C     C_R   0.843057 0.996127 0.565714 -0.093080
C52   C     C_R   0.773980 0.000000 0.500000 0.027724
C53   C     C_R   0.003859 0.156943 0.565716 -0.093082
C54   C     C_R   0.156943 0.003893 0.565710 -0.093081
C55   C     C_R   0.996136 0.843057 0.565715 -0.093081
C56   C     C_R   0.656943 0.496130 0.934285 -0.093082
C57   C     C_R   0.496141 0.656943 0.934284 -0.093082
C58   C     C_R   0.343057 0.503878 0.934287 -0.093081
C59   C     C_R   0.503860 0.343057 0.934284 -0.093082
C60   C     C_R   0.343057 0.496122 0.065713 -0.093081
C61   C     C_R   0.503859 0.656943 0.065716 -0.093082
C62   C     C_R   0.656943 0.503870 0.065714 -0.093082
C63   C     C_R   1.000000 0.773980 0.499999 0.027722
C64   C     C_R   0.496140 0.343057 0.065715 -0.093082
C65   C     C_R   0.133648 0.000000 0.500000 -0.067983
C66   C     C_R   1.000000 0.133649 0.500000 -0.067984
C67   C     C_R   0.866351 1.000000 0.500000 -0.067982
C68   C     C_R   1.000000 0.866351 0.500000 -0.067982
C69   C     C_R   0.633649 0.500000 0.000000 -0.067983
C70   C     C_R   0.500000 0.633649 0.000000 -0.067984
C71   C     C_R   0.366351 0.500000 1.000000 -0.067983
C72   C     C_R   0.500000 0.366351 1.000000 -0.067984
C73   C     C_R   0.414838 0.000000 0.500000 0.546233
C74   C     C_R   0.726020 0.500000 1.000000 0.027723
C75   C     C_R   1.000000 0.414838 0.500000 0.546232
C76   C     C_R   0.585162 0.000000 0.500000 0.546231
C77   C     C_R   1.000000 0.585162 0.500000 0.546231
C78   C     C_R   0.914838 0.500000 0.000000 0.546232
C79   C     C_R   0.500000 0.914838 0.000000 0.546232
C80   C     C_R   0.085162 0.500000 0.000000 0.546232
C81   C     C_R   0.500000 0.085162 1.000000 0.546231
C82   C     C_R   0.500000 1.000000 0.360206 0.559340
C83   C     C_R   1.000000 0.500000 0.360206 0.559340
C84   C     C_R   0.500000 1.000000 0.639794 0.559340
C85   C     C_R   0.500000 0.726020 0.000000 0.027723
C86   C     C_R   1.000000 0.500000 0.639794 0.559340
C87   C     C_R   1.000000 0.500000 0.860206 0.559341
C88   C     C_R   0.500000 1.000000 0.860206 0.559340
C89   C     C_R   1.000000 0.500000 0.139794 0.559341
C90   C     C_R   0.500000 1.000000 0.139794 0.559340
C91   C     C_R   1.000000 0.914784 0.500000 0.554256
C92   C     C_R   0.085216 0.000000 0.500000 0.554255
C93   C     C_R   1.000000 0.085216 0.500000 0.554256
C94   C     C_R   0.914784 0.000000 0.500000 0.554258
C95   C     C_R   0.500000 0.414784 1.000000 0.554257
C96   C     C_R   0.273980 0.500000 1.000000 0.027725
C97   C     C_R   0.585216 0.500000 0.000000 0.554257
C98   C     C_R   0.500000 0.585216 0.000000 0.554256
C99   C     C_R   0.414784 0.500000 0.000000 0.554257
C100  C     C_1   0.500000 1.000000 0.282658 -0.021526
C101  C     C_1   1.000000 0.500000 0.282658 -0.021525
C102  C     C_1   0.500000 0.000000 0.717341 -0.021526
C103  C     C_1   1.000000 0.500000 0.717341 -0.021525
C104  C     C_1   1.000000 0.500000 0.782658 -0.021525
C105  C     C_1   0.500000 0.000000 0.782659 -0.021525
C106  C     C_1   1.000000 0.500000 0.217341 -0.021525
C107  C     C_R   0.500000 0.273980 0.999999 0.027724
C108  C     C_1   0.500000 1.000000 0.217341 -0.021526
C109  C     C_R   0.297194 0.039723 0.506250 -0.047407
C110  C     C_R   0.039721 0.297194 0.506281 -0.047406
C111  C     C_R   0.702806 0.960280 0.506301 -0.047408
C112  C     C_R   0.960279 0.702806 0.506282 -0.047406
C113  C     C_R   0.702806 0.039720 0.493699 -0.047408
C114  C     C_R   0.960279 0.297194 0.493720 -0.047406
C115  C     C_R   0.297194 0.960277 0.493750 -0.047407
C116  C     C_R   0.039721 0.702806 0.493717 -0.047407
C117  C     C_R   0.797194 0.539722 0.006268 -0.047407
C118  C     C_R   0.202840 0.995994 0.434012 0.209794
C119  C     C_R   0.539721 0.797194 0.006281 -0.047406
C120  C     C_R   0.202806 0.460278 0.006266 -0.047407
C121  C     C_R   0.460279 0.202806 0.006278 -0.047406
C122  C     C_R   0.202806 0.539722 0.993734 -0.047407
C123  C     C_R   0.460279 0.797194 0.993720 -0.047406
C124  C     C_R   0.797194 0.460278 0.993731 -0.047407
C125  C     C_R   0.539721 0.202806 0.993721 -0.047406
C126  C     C_R   0.343056 0.039772 0.506120 -0.103989
C127  C     C_R   0.039771 0.343056 0.506151 -0.103988
C128  C     C_R   0.656943 0.960230 0.506171 -0.103989
Cl1   Cl    Cl    0.230391 0.991358 0.349916 -0.554038
Cl2   Cl    Cl    0.491436 0.730392 0.849904 -0.554033
Cl3   Cl    Cl    0.269609 0.508606 0.849909 -0.554035
Cl4   Cl    Cl    0.508567 0.269608 0.849903 -0.554030
Cl5   Cl    Cl    0.269609 0.491394 0.150090 -0.554035
Cl6   Cl    Cl    0.508564 0.730392 0.150097 -0.554029
Cl7   Cl    Cl    0.730392 0.508588 0.150094 -0.554032
Cl8   Cl    Cl    0.491433 0.269608 0.150096 -0.554034
Cl9   Cl    Cl    0.991435 0.230392 0.349904 -0.554032
Cl10  Cl    Cl    0.769609 0.008593 0.349906 -0.554040
Cl11  Cl    Cl    0.008576 0.769608 0.349903 -0.554031
Cl12  Cl    Cl    0.769609 0.991407 0.650094 -0.554039
Cl13  Cl    Cl    0.008564 0.230392 0.650097 -0.554030
Cl14  Cl    Cl    0.230391 0.008642 0.650084 -0.554039
Cl15  Cl    Cl    0.991424 0.769608 0.650096 -0.554033
Cl16  Cl    Cl    0.730392 0.491412 0.849906 -0.554032
Cu1   Cu    Cu3+1 0.500000 0.044060 0.500000 1.021003
Cu2   Cu    Cu3+1 1.000000 1.000000 0.572510 1.018528
Cu3   Cu    Cu3+1 0.500000 0.500000 0.927490 1.018528
Cu4   Cu    Cu3+1 0.500000 0.500000 0.072510 1.018527
Cu5   Cu    Cu3+1 0.955940 0.500000 0.500000 1.021004
Cu6   Cu    Cu3+1 0.500000 0.955940 0.500000 1.021004
Cu7   Cu    Cu3+1 0.044060 0.500000 0.500000 1.021003
Cu8   Cu    Cu3+1 1.000000 0.544060 0.000000 1.021004
Cu9   Cu    Cu3+1 0.455940 0.000000 0.000000 1.021002
Cu10  Cu    Cu3+1 1.000000 0.455940 0.000000 1.021004
Cu11  Cu    Cu3+1 0.544060 0.000000 0.000000 1.021003
Cu12  Cu    Cu3+1 1.000000 1.000000 0.427490 1.018528
H1    H     H_    0.279556 0.070572 0.511089 0.144903
H2    H     H_    0.570568 0.779556 0.011145 0.144893
H3    H     H_    0.220444 0.429431 0.011118 0.144899
H4    H     H_    0.429431 0.220444 0.011141 0.144893
H5    H     H_    0.220444 0.570569 0.988882 0.144899
H6    H     H_    0.429431 0.779556 0.988856 0.144893
H7    H     H_    0.779556 0.429431 0.988877 0.144895
H8    H     H_    0.570568 0.220444 0.988858 0.144893
H9    H     H_    0.360164 0.070895 0.511029 0.147163
H10   H     H_    0.070891 0.360165 0.511084 0.147158
H11   H     H_    0.639835 0.929110 0.511120 0.147160
H12   H     H_    0.070568 0.279556 0.511145 0.144893
H13   H     H_    0.929109 0.639835 0.511087 0.147159
H14   H     H_    0.639835 0.070890 0.488880 0.147160
H15   H     H_    0.929108 0.360165 0.488917 0.147159
H16   H     H_    0.360164 0.929105 0.488971 0.147164
H17   H     H_    0.070891 0.639835 0.488913 0.147159
H18   H     H_    0.860164 0.570892 0.011062 0.147161
H19   H     H_    0.570891 0.860165 0.011084 0.147158
H20   H     H_    0.139835 0.429108 0.011058 0.147162
H21   H     H_    0.429108 0.139835 0.011081 0.147158
H22   H     H_    0.139835 0.570892 0.988942 0.147162
H23   H     H_    0.720443 0.929433 0.511180 0.144908
H24   H     H_    0.429108 0.860164 0.988916 0.147158
H25   H     H_    0.860164 0.429108 0.988938 0.147161
H26   H     H_    0.570891 0.139835 0.988919 0.147159
H27   H     H_    0.139574 0.993051 0.383012 0.184629
H28   H     H_    0.993111 0.139574 0.383001 0.184630
H29   H     H_    0.860426 0.006912 0.383004 0.184632
H30   H     H_    0.006898 0.860426 0.383001 0.184630
H31   H     H_    0.860426 0.993088 0.616996 0.184632
H32   H     H_    0.006889 0.139574 0.617000 0.184630
H33   H     H_    0.139574 0.006949 0.616988 0.184629
H34   H     H_    0.929432 0.720444 0.511147 0.144897
H35   H     H_    0.993102 0.860426 0.616998 0.184630
H36   H     H_    0.639574 0.493092 0.883003 0.184631
H37   H     H_    0.493111 0.639574 0.883001 0.184630
H38   H     H_    0.360426 0.506922 0.883006 0.184631
H39   H     H_    0.506891 0.360426 0.883001 0.184630
H40   H     H_    0.360426 0.493078 0.116993 0.184631
H41   H     H_    0.506888 0.639574 0.117000 0.184630
H42   H     H_    0.639574 0.506908 0.116997 0.184631
H43   H     H_    0.493109 0.360426 0.116998 0.184630
H44   H     H_    0.720443 0.070567 0.488820 0.144908
H45   H     H_    0.929431 0.279556 0.488856 0.144893
H46   H     H_    0.279556 0.929428 0.488910 0.144903
H47   H     H_    0.070568 0.720444 0.488852 0.144897
H48   H     H_    0.779556 0.570569 0.011123 0.144895
O1    O     O_R   0.435730 0.037210 0.500000 -0.510000
O2    O     O_R   0.462790 0.935730 0.000000 -0.509999
O3    O     O_R   0.064270 0.462790 0.000000 -0.510000
O4    O     O_R   0.537210 0.064270 0.000000 -0.509999
O5    O     O_R   0.064270 0.537210 0.000000 -0.510000
O6    O     O_R   0.537210 0.935730 0.000000 -0.509999
O7    O     O_R   0.935730 0.462790 0.000000 -0.509999
O8    O     O_R   0.462790 0.064270 0.000000 -0.509999
O9    O     O_R   0.500010 0.037210 0.394200 -0.496453
O10   O     O_R   0.962790 0.500010 0.394200 -0.496448
O11   O     O_R   0.499990 0.962790 0.394200 -0.496444
O12   O     O_R   0.962790 0.435730 0.500000 -0.509999
O13   O     O_R   0.037210 0.499990 0.394200 -0.496449
O14   O     O_R   0.499990 0.037210 0.605800 -0.496444
O15   O     O_R   0.037210 0.500010 0.605800 -0.496449
O16   O     O_R   0.500010 0.962790 0.605800 -0.496453
O17   O     O_R   0.962790 0.499990 0.605800 -0.496448
O18   O     O_R   0.000010 0.537210 0.894200 -0.496448
O19   O     O_R   0.462790 0.000010 0.894200 -0.496448
O20   O     O_R   0.999990 0.462790 0.894200 -0.496449
O21   O     O_R   0.537210 0.999990 0.894200 -0.496448
O22   O     O_R   0.999990 0.537210 0.105800 -0.496449
O23   O     O_R   0.564270 0.962790 0.500000 -0.509999
O24   O     O_R   0.537210 0.000010 0.105800 -0.496449
O25   O     O_R   0.000010 0.462790 0.105800 -0.496448
O26   O     O_R   0.462790 0.999990 0.105800 -0.496448
O27   O     O_R   0.999990 0.935750 0.438770 -0.504970
O28   O     O_R   0.064250 0.999990 0.438770 -0.504969
O29   O     O_R   0.000010 0.064250 0.438770 -0.504968
O30   O     O_R   0.935750 0.000010 0.438770 -0.504970
O31   O     O_R   0.000010 0.935750 0.561230 -0.504968
O32   O     O_R   0.935750 0.999990 0.561230 -0.504971
O33   O     O_R   0.999990 0.064250 0.561230 -0.504971
O34   O     O_R   0.037210 0.564270 0.500000 -0.509999
O35   O     O_R   0.064250 0.000010 0.561230 -0.504969
O36   O     O_R   0.499990 0.435750 0.938770 -0.504969
O37   O     O_R   0.564250 0.499990 0.938770 -0.504970
O38   O     O_R   0.500010 0.564250 0.938770 -0.504970
O39   O     O_R   0.435750 0.500010 0.938770 -0.504970
O40   O     O_R   0.500010 0.435750 0.061230 -0.504970
O41   O     O_R   0.435750 0.499990 0.061230 -0.504970
O42   O     O_R   0.499990 0.564250 0.061230 -0.504969
O43   O     O_R   0.564250 0.500010 0.061230 -0.504970
O44   O     O_R   0.564270 0.037210 0.500000 -0.509999
O45   O     O_R   0.037210 0.435730 0.500000 -0.509999
O46   O     O_R   0.435730 0.962790 0.500000 -0.510000
O47   O     O_R   0.962790 0.564270 0.500000 -0.509999
O48   O     O_R   0.935730 0.537210 0.000000 -0.510000

loop_
_geom_bond_atom_site_label_1
_geom_bond_atom_site_label_2
_ccdc_geom_bond_type
C61   C70   A    
Cu5   O47   S    
C65   C92   S    
C12   H22   S    
Cu8   O5    S    
C56   H36   S    
C92   O35   A    
C91   O27   A    
C18   C75   S    
C31   C85   S    
C54   H33   S    
Cu8   O18   S    
C5    C114  A    
C35   C53   A    
C84   C102  S    
C19   C128  A    
C29   C112  A    
C89   O25   A    
Cu3   Cu4   S    
C33   C107  S    
C89   O22   A    
C126  H9    S    
C109  H1    S    
C116  H47   S    
C29   C63   S    
C55   C68   A    
Cu7   O45   S    
C54   C65   A    
C6    H16   S    
Cu3   O36   S    
C12   C23   A    
C2    C48   A    
C34   C51   A    
C122  H5    S    
C4    H14   S    
C20   C77   S    
C90   O24   A    
C19   C76   S    
C53   H32   S    
C40   C96   A    
C22   C79   S    
Cu9   O19   S    
Cu5   Cu7   S    
C99   O39   A    
C83   O13   A    
C110  C127  A    
C16   H26   S    
C9    C22   A    
C92   O28   A    
C2    C41   A    
C39   C57   A    
Cu3   O37   S    
C91   O31   A    
C75   O12   A    
C101  C106  T    
C68   C91   S    
C78   O48   A    
C102  C105  T    
C43   Cl5   S    
C36   Cl14  S    
C26   C115  A    
C86   O15   A    
C84   O16   A    
C30   C117  A    
C3    H13   S    
Cu5   O10   S    
C4    C19   A    
C110  H12   S    
C47   C118  A    
Cu1   O14   S    
C11   C121  A    
C27   C110  A    
C93   O33   A    
C121  H4    S    
C89   C106  S    
C128  H11   S    
C38   C56   A    
Cu7   O13   S    
C82   O11   A    
C11   H21   S    
C86   O17   A    
C23   C80   S    
C99   O41   A    
C117  H48   S    
C49   C67   A    
C42   C107  A    
Cu12  O29   S    
C119  H2    S    
Cu1   Cu6   S    
C25   C81   S    
C59   C72   A    
C95   O36   A    
C124  H7    S    
Cu1   O9    S    
C28   C111  A    
C36   C54   A    
C46   C107  A    
C76   O23   A    
C111  H23   S    
C72   C95   S    
C76   O44   A    
Cu5   O17   S    
C32   C120  A    
C86   C103  S    
Cu1   O1    S    
C37   C63   A    
C103  C104  T    
C8    C117  A    
Cu6   O46   S    
Cu11  O6    S    
C24   Cl11  S    
C10   H20   S    
C44   C61   A    
Cu2   O32   S    
Cu11  O24   S    
C45   Cl7   S    
C100  C108  T    
C15   C124  A    
C13   C52   A    
Cu8   O22   S    
C87   O18   A    
C32   C122  A    
C4    C113  A    
Cu7   O15   S    
C40   C58   A    
C62   H42   S    
C47   H27   S    
Cu11  O4    S    
C15   H25   S    
C61   H41   S    
C17   C73   S    
C123  H6    S    
C94   O30   A    
C5    C18   A    
Cu3   O38   S    
C93   O29   A    
C71   C99   S    
C58   H38   S    
Cu4   O43   S    
C87   C104  S    
C62   C69   A    
C46   C64   A    
C45   C74   A    
C46   Cl8   S    
C55   H35   S    
C7    C116  A    
C21   C78   S    
C33   C121  A    
Cu10  O7    S    
C114  H45   S    
C18   C127  A    
C67   C94   S    
C82   O9    A    
C97   O37   A    
C27   C41   S    
C88   O21   A    
Cu2   O33   S    
Cu3   O39   S    
C3    C112  A    
Cu12  O28   S    
C81   O8    A    
C33   C125  A    
C43   C96   A    
C5    H15   S    
C88   O19   A    
C12   C122  A    
C3    C20   A    
C51   C67   A    
Cu6   O11   S    
Cu6   O23   S    
C53   C66   A    
C26   C109  A    
C31   C119  A    
C84   O14   A    
C43   C60   A    
C35   Cl13  S    
C66   C93   S    
C77   O47   A    
C16   C125  A    
C32   C96   S    
C29   C116  A    
C30   C124  A    
C7    C20   A    
C24   C63   A    
C90   C108  S    
C81   O4    A    
Cu10  O25   S    
C1    C26   S    
C9    C119  A    
C13   C49   A    
Cu9   O26   S    
C125  H8    S    
Cu9   Cu11  S    
Cu4   O42   S    
C39   C85   A    
C44   C85   A    
C50   H30   S    
Cu8   O48   S    
C83   O10   A    
C60   H40   S    
C48   H28   S    
C73   O46   A    
C38   C74   A    
C16   C25   A    
C24   C50   A    
Cu7   O34   S    
C73   O1    A    
Cu2   O31   S    
Cu11  O21   S    
Cu6   O16   S    
C14   C123  A    
C83   C101  S    
Cu1   O44   S    
C2    Cl9   S    
C82   C100  S    
C40   Cl3   S    
C120  H3    S    
C37   Cl15  S    
Cu10  O3    S    
Cu8   Cu10  S    
C8    C21   A    
C42   C59   A    
C97   O43   A    
Cu9   O8    S    
Cu12  O30   S    
C37   C55   A    
C98   O42   A    
C39   Cl2   S    
C10   C23   A    
C79   O2    A    
C17   C126  A    
C95   O40   A    
C79   O6    A    
C34   C52   A    
C60   C71   A    
C59   H39   S    
C13   Cl10  S    
C14   C22   A    
C38   Cl16  S    
Cu5   O12   S    
C31   C123  A    
C6    C17   A    
C118  Cl1   S    
C87   O20   A    
C88   C105  S    
C28   C52   S    
Cu12  O27   S    
C94   O32   A    
C77   O34   A    
C127  H10   S    
C30   C74   S    
C7    H17   S    
C34   Cl12  S    
Cu4   O41   S    
C80   O5    A    
C113  H44   S    
C9    H19   S    
C8    H18   S    
C1    C118  A    
C64   C72   A    
Cu10  O20   S    
C35   C41   A    
C6    C115  A    
C98   O38   A    
C51   H31   S    
C28   C113  A    
C57   C70   A    
C112  H34   S    
Cu9   O2    S    
C44   Cl6   S    
C27   C114  A    
C115  H46   S    
C109  C126  A    
C15   C21   A    
C80   O3    A    
C49   H29   S    
Cu2   O35   S    
C56   C69   A    
C64   H43   S    
C57   H37   S    
C111  C128  A    
Cu4   O40   S    
C11   C25   A    
C58   C71   A    
C90   O26   A    
C42   Cl4   S    
Cu2   Cu12  S    
C48   C66   A    
C75   O45   A    
C50   C68   A    
C78   O7    A    
C47   C65   A    
C10   C120  A    
C14   H24   S    
C70   C98   S    
C1    C36   A    
C45   C62   A    
C69   C97   S    
