data_mof_unit_63696.cif
_audit_creation_date              2012-10-26T17:25:59-0400
_audit_creation_method            fapswitch 2.2
_symmetry_space_group_name_H-M    P1
_symmetry_Int_Tables_number       1
_space_group_crystal_system       triclinic
_cell_length_a                    30.550659
_cell_length_b                    30.573981
_cell_length_c                    47.303498
_cell_angle_alpha                 89.999157
_cell_angle_beta                  89.00683
_cell_angle_gamma                 90.000216
_cell_volume                      44177.4436457

loop_
_atom_site_label
_atom_site_type_symbol
_atom_type_description
_atom_site_fract_x
_atom_site_fract_y
_atom_site_fract_z
_atom_type_partial_charge
C1    C     C_R   0.085022 0.499925 0.999550 0.548110
C2    C     C_R   0.488434 0.013605 0.145732 0.162909
C3    C     C_R   0.039012 0.156192 0.505781 0.024354
C4    C     C_R   0.844101 0.959949 0.494393 0.025484
C5    C     C_R   0.960989 0.156192 0.494219 0.024354
C6    C     C_R   0.157142 0.036720 0.490141 0.022702
C7    C     C_R   0.038218 0.843428 0.491355 0.023731
C8    C     C_R   0.367027 0.499037 0.001178 -0.013083
C9    C     C_R   0.500000 0.366997 0.000001 -0.012545
C10   C     C_R   0.632972 0.499039 0.998823 -0.013082
C11   C     C_R   0.500000 0.632707 0.999999 -0.013742
C12   C     C_R   0.867029 0.999037 0.501176 -0.013082
C13   C     C_R   0.987412 0.512728 0.854693 0.162941
C14   C     C_R   0.999999 0.866997 0.500001 -0.012537
C15   C     C_R   0.132970 0.999039 0.498823 -0.013083
C16   C     C_R   0.000001 0.132707 0.500000 -0.013739
C17   C     C_R   0.274881 0.496889 0.003557 -0.028106
C18   C     C_R   0.500000 0.274821 0.000001 -0.029311
C19   C     C_R   0.725119 0.496894 0.996449 -0.028104
C20   C     C_R   0.500001 0.724650 0.999999 -0.027230
C21   C     C_R   0.774884 0.996893 0.503544 -0.028094
C22   C     C_R   0.999998 0.774821 0.500003 -0.029306
C23   C     C_R   0.225116 0.996896 0.496455 -0.028094
C24   C     C_R   0.511561 0.013609 0.854268 0.162909
C25   C     C_R   1.000000 0.224649 0.500001 -0.027232
C26   C     C_R   0.999991 0.500164 0.054580 0.560217
C27   C     C_R   0.499619 0.000234 0.054605 0.557958
C28   C     C_R   0.000009 0.500165 0.945420 0.560208
C29   C     C_R   0.500381 0.000234 0.945395 0.557961
C30   C     C_R   0.499988 0.000165 0.554580 0.560164
C31   C     C_R   0.999618 0.500233 0.554605 0.557954
C32   C     C_R   0.500013 0.000165 0.445420 0.560176
C33   C     C_R   0.000382 0.500234 0.445395 0.557935
C34   C     C_R   0.051057 0.501506 0.309005 0.446988
C35   C     C_R   0.512537 0.012753 0.645307 0.162958
C36   C     C_R   0.499853 0.052151 0.309702 0.447687
C37   C     C_R   0.982722 0.539008 0.308542 0.457736
C38   C     C_R   0.461924 0.984109 0.308906 0.454948
C39   C     C_R   0.017299 0.539019 0.691455 0.457733
C40   C     C_R   0.538069 0.984111 0.691095 0.454945
C41   C     C_R   0.948943 0.501554 0.690993 0.446983
C42   C     C_R   0.500139 0.052153 0.690297 0.447693
C43   C     C_R   0.551032 0.001586 0.809003 0.447009
C44   C     C_R   0.999755 0.552155 0.809707 0.447657
C45   C     C_R   0.482644 0.038992 0.808550 0.457733
C46   C     C_R   0.988421 0.513606 0.645732 0.162899
C47   C     C_R   0.961906 0.484069 0.808902 0.454957
C48   C     C_R   0.517350 0.038988 0.191449 0.457733
C49   C     C_R   0.038092 0.484036 0.191097 0.454956
C50   C     C_R   0.448963 0.001580 0.190997 0.447011
C51   C     C_R   0.000282 0.552144 0.190291 0.447658
C52   C     C_R   0.987486 0.545503 0.279222 0.038873
C53   C     C_R   0.455461 0.988901 0.279714 0.038335
C54   C     C_R   0.050085 0.496772 0.279508 0.035348
C55   C     C_R   0.504652 0.051102 0.280142 0.035312
C56   C     C_R   0.949914 0.496819 0.720491 0.035351
C57   C     C_R   0.487457 0.012752 0.354693 0.162950
C58   C     C_R   0.495340 0.051104 0.719858 0.035311
C59   C     C_R   0.012541 0.545514 0.720775 0.038863
C60   C     C_R   0.544531 0.988904 0.720287 0.038338
C61   C     C_R   0.487385 0.045491 0.779230 0.038872
C62   C     C_R   0.955439 0.488862 0.779710 0.038316
C63   C     C_R   0.550059 0.996856 0.779505 0.035353
C64   C     C_R   0.004562 0.551116 0.780147 0.035320
C65   C     C_R   0.449935 0.996850 0.220495 0.035352
C66   C     C_R   0.995473 0.551106 0.219851 0.035325
C67   C     C_R   0.512609 0.045487 0.220770 0.038874
C68   C     C_R   0.011587 0.513585 0.354266 0.162908
C69   C     C_R   0.044560 0.488824 0.220289 0.038312
C70   C     C_R   0.019318 0.521084 0.264568 -0.028700
C71   C     C_R   0.480129 0.020516 0.265135 -0.028841
C72   C     C_R   0.980696 0.521112 0.735430 -0.028698
C73   C     C_R   0.519864 0.020520 0.734866 -0.028841
C74   C     C_R   0.519249 0.021121 0.764571 -0.028695
C75   C     C_R   0.980075 0.520507 0.765135 -0.028842
C76   C     C_R   0.480744 0.021116 0.235429 -0.028695
C77   C     C_R   0.019941 0.520481 0.234863 -0.028841
C78   C     C_R   0.960800 0.574439 0.264062 -0.119684
C79   C     C_R   0.500000 0.415047 0.000000 0.631418
C80   C     C_R   0.426333 0.962412 0.264589 -0.119534
C81   C     C_R   0.078208 0.468098 0.264645 -0.119245
C82   C     C_R   0.533538 0.079008 0.265267 -0.119327
C83   C     C_R   0.921774 0.468160 0.735355 -0.119246
C84   C     C_R   0.466455 0.079011 0.734732 -0.119329
C85   C     C_R   0.039245 0.574433 0.735935 -0.119685
C86   C     C_R   0.573660 0.962416 0.735412 -0.119535
C87   C     C_R   0.460646 0.074383 0.764074 -0.119685
C88   C     C_R   0.926341 0.462347 0.764580 -0.119535
C89   C     C_R   0.578225 0.968228 0.764638 -0.119254
C90   C     C_R   0.584944 0.499927 0.999723 0.631146
C91   C     C_R   0.033423 0.579054 0.765276 -0.119320
C92   C     C_R   0.421769 0.968223 0.235363 -0.119254
C93   C     C_R   0.966628 0.579060 0.234721 -0.119321
C94   C     C_R   0.539347 0.074380 0.235925 -0.119685
C95   C     C_R   0.073641 0.462289 0.235419 -0.119536
C96   C     C_R   0.047370 0.496784 0.127876 0.060502
C97   C     C_R   0.503881 0.048386 0.128360 0.059976
C98   C     C_R   0.972446 0.523570 0.132182 0.069283
C99   C     C_R   0.478113 0.973168 0.132515 0.069701
C100  C     C_R   0.027571 0.523569 0.867819 0.069291
C101  C     C_R   0.500000 0.584850 1.000000 0.630218
C102  C     C_R   0.521884 0.973171 0.867485 0.069703
C103  C     C_R   0.952634 0.496815 0.872122 0.060506
C104  C     C_R   0.496113 0.048388 0.871640 0.059982
C105  C     C_R   0.547343 0.996894 0.627883 0.060544
C106  C     C_R   0.003857 0.548389 0.628359 0.059990
C107  C     C_R   0.472366 0.023534 0.632177 0.069293
C108  C     C_R   0.978122 0.473161 0.632516 0.069718
C109  C     C_R   0.527629 0.023535 0.367822 0.069293
C110  C     C_R   0.021867 0.473139 0.367487 0.069724
C111  C     C_R   0.452653 0.996891 0.372120 0.060552
C112  C     C_R   0.500000 0.084962 0.999999 0.527493
C113  C     C_R   0.415056 0.499926 0.000276 0.631146
C114  C     C_R   0.996168 0.548380 0.371636 0.059989
C115  C     C_R   0.037991 0.482582 0.100149 -0.094690
C116  C     C_R   0.517217 0.039107 0.100171 -0.092208
C117  C     C_R   0.970935 0.525597 0.102242 -0.091517
C118  C     C_R   0.475939 0.971083 0.102581 -0.090595
C119  C     C_R   0.029078 0.525594 0.897759 -0.091518
C120  C     C_R   0.524060 0.971086 0.897419 -0.090594
C121  C     C_R   0.962008 0.482601 0.899848 -0.094679
C122  C     C_R   0.482779 0.039108 0.899829 -0.092210
C123  C     C_R   0.537996 0.982656 0.600158 -0.094635
C124  C     C_R   0.999999 0.915047 0.500000 0.631427
C125  C     C_R   0.017202 0.539112 0.600172 -0.092218
C126  C     C_R   0.470861 0.025547 0.602236 -0.091506
C127  C     C_R   0.975949 0.471074 0.602581 -0.090597
C128  C     C_R   0.529137 0.025549 0.397763 -0.091507
C129  C     C_R   0.024041 0.471060 0.397422 -0.090596
C130  C     C_R   0.462003 0.982655 0.399844 -0.094638
C131  C     C_R   0.982814 0.539113 0.399823 -0.092202
C132  C     C_R   0.002338 0.501697 0.086004 -0.049315
C133  C     C_R   0.498059 0.003207 0.086086 -0.048807
C134  C     C_R   0.997667 0.501701 0.913995 -0.049313
C135  C     C_R   0.084943 0.999927 0.499724 0.631135
C136  C     C_R   0.501940 0.003208 0.913915 -0.048809
C137  C     C_R   0.502314 0.001700 0.586005 -0.049290
C138  C     C_R   0.998058 0.503204 0.586086 -0.048814
C139  C     C_R   0.497685 0.001701 0.413995 -0.049297
C140  C     C_R   0.001943 0.503201 0.413913 -0.048802
C141  C     C_2   0.093716 0.499057 0.137488 0.607322
C142  C     C_2   0.502480 0.094648 0.138695 0.605197
C143  C     C_2   0.932073 0.530404 0.149667 0.599699
C144  C     C_2   0.471747 0.933076 0.149963 0.600935
C145  C     C_2   0.067948 0.530385 0.850336 0.599696
C146  C     C_R   0.000001 0.084850 0.500000 0.630215
C147  C     C_2   0.528248 0.933080 0.850037 0.600930
C148  C     C_2   0.906289 0.499115 0.862511 0.607319
C149  C     C_2   0.497511 0.094650 0.861305 0.605203
C150  C     C_2   0.593682 0.999270 0.637498 0.607304
C151  C     C_2   0.002431 0.594653 0.638688 0.605226
C152  C     C_2   0.431978 0.030306 0.649657 0.599733
C153  C     C_2   0.971783 0.433066 0.649965 0.600913
C154  C     C_2   0.568016 0.030307 0.350341 0.599731
C155  C     C_2   0.028186 0.433037 0.350043 0.600918
C156  C     C_2   0.406313 0.999261 0.362506 0.607318
C157  C     C_R   0.915057 0.999926 0.500276 0.631137
C158  C     C_2   0.997620 0.594642 0.361302 0.605209
C159  C     C_R   0.062590 0.444879 0.088098 0.075478
C160  C     C_R   0.091267 0.449807 0.064984 -0.033441
C161  C     C_R   0.118435 0.415398 0.056348 -0.100730
C162  C     C_R   0.115622 0.374949 0.069969 -0.105283
C163  C     C_R   0.086061 0.369173 0.092527 -0.097638
C164  C     C_R   0.059921 0.404089 0.101751 -0.043308
C165  C     C_R   0.554980 0.063357 0.087680 0.075158
C166  C     C_R   0.550189 0.090889 0.064374 -0.033763
C167  C     C_R   0.584908 0.117055 0.054866 -0.098800
C168  C     C_R   0.203820 0.471445 0.982487 -0.029080
C169  C     C_R   0.625445 0.114566 0.067961 -0.105636
C170  C     C_R   0.631039 0.086246 0.090797 -0.097890
C171  C     C_R   0.595890 0.060966 0.100777 -0.042683
C172  C     C_R   0.936256 0.551451 0.088233 0.070432
C173  C     C_R   0.892662 0.537442 0.089079 -0.055551
C174  C     C_R   0.860214 0.561429 0.075482 -0.096827
C175  C     C_R   0.871107 0.600140 0.061354 -0.100028
C176  C     C_R   0.914257 0.615314 0.061315 -0.098775
C177  C     C_R   0.946633 0.591403 0.075035 -0.026770
C178  C     C_R   0.452850 0.934277 0.088844 0.066823
C179  C     C_R   0.523427 0.202631 0.978650 -0.025003
C180  C     C_R   0.469935 0.891845 0.089963 -0.059871
C181  C     C_R   0.447525 0.856897 0.077840 -0.094525
C182  C     C_R   0.407384 0.864064 0.064958 -0.101851
C183  C     C_R   0.389520 0.906151 0.064358 -0.103379
C184  C     C_R   0.412019 0.941138 0.076399 -0.027529
C185  C     C_R   0.063756 0.551446 0.911770 0.070422
C186  C     C_R   0.107350 0.537436 0.910927 -0.055534
C187  C     C_R   0.139797 0.561421 0.924526 -0.096826
C188  C     C_R   0.128903 0.600131 0.938654 -0.100028
C189  C     C_R   0.085754 0.615306 0.938691 -0.098771
C190  C     C_R   0.798519 0.521825 0.977126 -0.026857
C191  C     C_R   0.053379 0.591398 0.924968 -0.026783
C192  C     C_R   0.547151 0.934280 0.911156 0.066825
C193  C     C_R   0.530067 0.891848 0.910038 -0.059869
C194  C     C_R   0.552478 0.856900 0.922160 -0.094524
C195  C     C_R   0.592620 0.864068 0.935042 -0.101851
C196  C     C_R   0.610482 0.906156 0.935641 -0.103381
C197  C     C_R   0.587982 0.941142 0.923600 -0.027530
C198  C     C_R   0.937393 0.444904 0.911896 0.075454
C199  C     C_R   0.908729 0.449834 0.935015 -0.033466
C200  C     C_R   0.881547 0.415434 0.943650 -0.100748
C201  C     C_R   0.471695 0.796848 0.981911 -0.030382
C202  C     C_R   0.884333 0.374992 0.930020 -0.105289
C203  C     C_R   0.913882 0.369214 0.907455 -0.097634
C204  C     C_R   0.940036 0.404121 0.898234 -0.043313
C205  C     C_R   0.445016 0.063356 0.912322 0.075168
C206  C     C_R   0.449809 0.090891 0.935625 -0.033754
C207  C     C_R   0.415090 0.117054 0.945135 -0.098793
C208  C     C_R   0.374550 0.114558 0.932044 -0.105635
C209  C     C_R   0.368954 0.086234 0.909211 -0.097893
C210  C     C_R   0.404104 0.060957 0.899229 -0.042685
C211  C     C_R   0.562664 0.944984 0.588124 0.075373
C212  C     C_R   0.201480 0.521817 0.022880 -0.026854
C213  C     C_R   0.591311 0.949935 0.564999 -0.033594
C214  C     C_R   0.618569 0.915580 0.556389 -0.100871
C215  C     C_R   0.615871 0.875156 0.570047 -0.105281
C216  C     C_R   0.586335 0.869350 0.592616 -0.097577
C217  C     C_R   0.560108 0.904217 0.601814 -0.043293
C218  C     C_R   0.054963 0.563368 0.587684 0.075161
C219  C     C_R   0.050170 0.590904 0.564380 -0.033762
C220  C     C_R   0.084885 0.617078 0.554876 -0.098804
C221  C     C_R   0.125423 0.614588 0.567971 -0.105634
C222  C     C_R   0.131020 0.586262 0.590803 -0.097891
C223  C     C_R   0.914977 0.499926 0.000452 0.548099
C224  C     C_R   0.528307 0.796847 0.018086 -0.030382
C225  C     C_R   0.095872 0.560977 0.600781 -0.042695
C226  C     C_R   0.436140 0.051331 0.588219 0.070332
C227  C     C_R   0.392568 0.037252 0.589072 -0.055567
C228  C     C_R   0.360077 0.061184 0.575478 -0.096796
C229  C     C_R   0.370903 0.099906 0.561343 -0.100037
C230  C     C_R   0.414029 0.115146 0.561292 -0.098786
C231  C     C_R   0.446449 0.091293 0.575010 -0.026799
C232  C     C_R   0.952862 0.434266 0.588846 0.066812
C233  C     C_R   0.969948 0.391835 0.589966 -0.059847
C234  C     C_R   0.947534 0.356884 0.577850 -0.094512
C235  C     C_R   0.796180 0.471451 0.017519 -0.029081
C236  C     C_R   0.907388 0.364047 0.564973 -0.101863
C237  C     C_R   0.889524 0.406133 0.564371 -0.103405
C238  C     C_R   0.912027 0.441124 0.576405 -0.027551
C239  C     C_R   0.563859 0.051333 0.411778 0.070331
C240  C     C_R   0.607430 0.037255 0.410925 -0.055568
C241  C     C_R   0.639922 0.061187 0.424517 -0.096798
C242  C     C_R   0.629097 0.099909 0.438653 -0.100038
C243  C     C_R   0.585970 0.115148 0.438705 -0.098787
C244  C     C_R   0.553550 0.091294 0.424987 -0.026804
C245  C     C_R   0.047120 0.434250 0.411162 0.066810
C246  C     C_R   0.476572 0.202629 0.021350 -0.025005
C247  C     C_R   0.030022 0.391823 0.410050 -0.059830
C248  C     C_R   0.052427 0.356871 0.422173 -0.094505
C249  C     C_R   0.092574 0.364030 0.435049 -0.101852
C250  C     C_R   0.110450 0.406112 0.435643 -0.103390
C251  C     C_R   0.087956 0.441103 0.423602 -0.027554
C252  C     C_R   0.437345 0.944978 0.411879 0.075408
C253  C     C_R   0.408685 0.949924 0.434998 -0.033550
C254  C     C_R   0.381442 0.915558 0.443610 -0.100849
C255  C     C_R   0.384168 0.875129 0.429961 -0.105280
C256  C     C_R   0.413718 0.869329 0.407400 -0.097597
C257  C     C_R   0.703820 0.971419 0.482492 -0.029097
C258  C     C_R   0.439929 0.904206 0.398198 -0.043313
C259  C     C_R   0.945063 0.563390 0.412307 0.075108
C260  C     C_R   0.949860 0.590903 0.435621 -0.033825
C261  C     C_R   0.915159 0.617095 0.445123 -0.098841
C262  C     C_R   0.874630 0.614652 0.432013 -0.105646
C263  C     C_R   0.869029 0.586352 0.409168 -0.097877
C264  C     C_R   0.904163 0.561045 0.399194 -0.042680
C265  C     C_R   0.228741 0.449378 0.959163 0.023930
C266  C     C_R   0.229923 0.403480 0.957173 -0.077510
C267  C     C_R   0.253658 0.383258 0.935294 -0.075604
C268  C     C_R   0.023430 0.702631 0.478654 -0.025012
C269  C     C_R   0.276406 0.408586 0.915318 -0.082219
C270  C     C_R   0.275366 0.454198 0.917135 -0.101977
C271  C     C_R   0.251585 0.474587 0.938930 -0.096491
C272  C     C_R   0.542472 0.226109 0.953715 0.024931
C273  C     C_R   0.588061 0.228330 0.949233 -0.076681
C274  C     C_R   0.605390 0.250788 0.925868 -0.077222
C275  C     C_R   0.577457 0.271177 0.906851 -0.084579
C276  C     C_R   0.532132 0.269107 0.911150 -0.095732
C277  C     C_R   0.514639 0.246649 0.934472 -0.084113
C278  C     C_R   0.776902 0.541170 0.952031 0.024173
C279  C     C_R   0.298514 0.021850 0.477143 -0.026883
C280  C     C_R   0.773868 0.586770 0.948556 -0.076155
C281  C     C_R   0.753275 0.604246 0.924945 -0.077002
C282  C     C_R   0.735572 0.576457 0.904668 -0.086075
C283  C     C_R   0.738429 0.531131 0.907968 -0.093864
C284  C     C_R   0.758999 0.513497 0.931544 -0.079762
C285  C     C_R   0.447425 0.773579 0.959289 0.022113
C286  C     C_R   0.401381 0.771696 0.959784 -0.077285
C287  C     C_R   0.379232 0.749423 0.938562 -0.075663
C288  C     C_R   0.402746 0.728687 0.916801 -0.083408
C289  C     C_R   0.448464 0.730191 0.916219 -0.101222
C290  C     C_R   0.971689 0.296846 0.481916 -0.030384
C291  C     C_R   0.470766 0.752519 0.937353 -0.095216
C292  C     C_R   0.223098 0.541162 0.047974 0.024175
C293  C     C_R   0.226130 0.586762 0.051450 -0.076155
C294  C     C_R   0.246725 0.604238 0.075059 -0.077004
C295  C     C_R   0.264432 0.576449 0.095335 -0.086075
C296  C     C_R   0.261578 0.531123 0.092036 -0.093878
C297  C     C_R   0.241006 0.513489 0.068460 -0.079771
C298  C     C_R   0.552577 0.773577 0.040708 0.022115
C299  C     C_R   0.598621 0.771695 0.040213 -0.077284
C300  C     C_R   0.620770 0.749421 0.061436 -0.075663
C301  C     C_R   0.701486 0.021846 0.522856 -0.026883
C302  C     C_R   0.597256 0.728684 0.083196 -0.083409
C303  C     C_R   0.551538 0.730189 0.083779 -0.101223
C304  C     C_R   0.529235 0.752517 0.062644 -0.095218
C305  C     C_R   0.771260 0.449388 0.040845 0.023932
C306  C     C_R   0.770076 0.403490 0.042838 -0.077511
C307  C     C_R   0.746341 0.383270 0.064718 -0.075608
C308  C     C_R   0.723596 0.408601 0.084693 -0.082225
C309  C     C_R   0.724637 0.454213 0.082874 -0.101981
C310  C     C_R   0.748418 0.474599 0.061077 -0.096487
C311  C     C_R   0.457529 0.226104 0.046286 0.024932
C312  C     C_R   0.028308 0.296847 0.518085 -0.030384
C313  C     C_R   0.411940 0.228326 0.050768 -0.076680
C314  C     C_R   0.394612 0.250781 0.074134 -0.077220
C315  C     C_R   0.422546 0.271166 0.093152 -0.084580
C316  C     C_R   0.467871 0.269094 0.088853 -0.095728
C317  C     C_R   0.485363 0.246639 0.065530 -0.084108
C318  C     C_R   0.728738 0.949324 0.459178 0.023900
C319  C     C_R   0.729928 0.903423 0.457214 -0.077527
C320  C     C_R   0.753659 0.883175 0.435344 -0.075601
C321  C     C_R   0.776397 0.908480 0.415350 -0.082224
C322  C     C_R   0.775352 0.954094 0.417142 -0.101974
C323  C     C_R   0.296179 0.971421 0.517508 -0.029096
C324  C     C_R   0.751574 0.974509 0.438928 -0.096505
C325  C     C_R   0.042472 0.726107 0.453718 0.024924
C326  C     C_R   0.088061 0.728334 0.449236 -0.076669
C327  C     C_R   0.105387 0.750789 0.425869 -0.077203
C328  C     C_R   0.077451 0.771171 0.406851 -0.084573
C329  C     C_R   0.032126 0.769095 0.411149 -0.095710
C330  C     C_R   0.014636 0.746639 0.434473 -0.084097
C331  C     C_R   0.276896 0.041220 0.452057 0.024164
C332  C     C_R   0.273858 0.086824 0.448601 -0.076141
C333  C     C_R   0.253264 0.104322 0.424998 -0.076985
C334  C     C_R   0.500000 0.914894 1.000000 0.562358
C335  C     C_R   0.976566 0.702629 0.521351 -0.025012
C336  C     C_R   0.235564 0.076552 0.404709 -0.086065
C337  C     C_R   0.238424 0.031224 0.407988 -0.093839
C338  C     C_R   0.258995 0.013566 0.431557 -0.079753
C339  C     C_R   0.947411 0.273576 0.459297 0.022097
C340  C     C_R   0.901367 0.271696 0.459797 -0.077281
C341  C     C_R   0.879211 0.249422 0.438578 -0.075644
C342  C     C_R   0.902718 0.228681 0.416816 -0.083391
C343  C     C_R   0.948437 0.230181 0.416230 -0.101207
C344  C     C_R   0.970746 0.252510 0.437361 -0.095223
C345  C     C_R   0.723105 0.041213 0.547943 0.024165
C346  C     C_R   0.157632 0.469392 0.983053 -0.049173
C347  C     C_R   0.726144 0.086816 0.551400 -0.076139
C348  C     C_R   0.746738 0.104311 0.575004 -0.076985
C349  C     C_R   0.764439 0.076540 0.595292 -0.086065
C350  C     C_R   0.761578 0.031211 0.592011 -0.093835
C351  C     C_R   0.741006 0.013557 0.568442 -0.079750
C352  C     C_R   0.052582 0.273578 0.540707 0.022114
C353  C     C_R   0.098626 0.271697 0.540210 -0.077276
C354  C     C_R   0.120777 0.249426 0.561433 -0.075646
C355  C     C_R   0.097266 0.228689 0.583194 -0.083396
C356  C     C_R   0.051547 0.230192 0.583778 -0.101218
C357  C     C_R   0.526900 0.156656 0.980243 -0.055094
C358  C     C_R   0.029242 0.252517 0.562644 -0.095217
C359  C     C_R   0.271261 0.949326 0.540822 0.023897
C360  C     C_R   0.270070 0.903425 0.542786 -0.077525
C361  C     C_R   0.246337 0.883177 0.564656 -0.075599
C362  C     C_R   0.223599 0.908481 0.584649 -0.082223
C363  C     C_R   0.224645 0.954096 0.582857 -0.101973
C364  C     C_R   0.248424 0.974511 0.561071 -0.096506
C365  C     C_R   0.957521 0.726102 0.546287 0.024927
C366  C     C_R   0.911932 0.728326 0.550768 -0.076674
C367  C     C_R   0.894604 0.750779 0.574135 -0.077205
C368  C     C_R   0.844082 0.526802 0.980360 -0.054421
C369  C     C_R   0.922537 0.771159 0.593154 -0.084574
C370  C     C_R   0.967863 0.769085 0.588857 -0.095719
C371  C     C_R   0.985355 0.746633 0.565533 -0.084099
C372  C     C_R   0.135263 0.437488 0.964128 0.048830
C373  C     C_R   0.115358 0.399529 0.975212 -0.062059
C374  C     C_R   0.095002 0.369624 0.957344 -0.105472
C375  C     C_R   0.095644 0.376464 0.928152 -0.097275
C376  C     C_R   0.117572 0.412639 0.916791 -0.111185
C377  C     C_R   0.137832 0.442518 0.934692 -0.090775
C378  C     C_R   0.558225 0.133532 0.960663 0.032362
C379  C     C_R   0.468284 0.842756 0.984292 -0.045731
C380  C     C_R   0.597656 0.116638 0.971015 -0.058024
C381  C     C_R   0.627692 0.095987 0.952833 -0.109948
C382  C     C_R   0.619390 0.093197 0.923969 -0.104182
C383  C     C_R   0.581371 0.111648 0.913202 -0.104146
C384  C     C_R   0.551099 0.132064 0.931349 -0.103378
C385  C     C_R   0.867835 0.560634 0.963224 0.037579
C386  C     C_R   0.881579 0.599529 0.976198 -0.059090
C387  C     C_R   0.903757 0.631569 0.960479 -0.111274
C388  C     C_R   0.911414 0.625603 0.931535 -0.104282
C389  C     C_R   0.896185 0.587968 0.918173 -0.103283
C390  C     C_R   0.155918 0.526795 0.019645 -0.054424
C391  C     C_R   0.873955 0.555895 0.933822 -0.101587
C392  C     C_R   0.432039 0.865621 0.969521 0.052991
C393  C     C_R   0.395630 0.881354 0.984975 -0.065508
C394  C     C_R   0.361401 0.902414 0.971228 -0.110999
C395  C     C_R   0.362579 0.906740 0.941823 -0.097987
C396  C     C_R   0.397506 0.889137 0.926146 -0.106416
C397  C     C_R   0.431686 0.868132 0.939946 -0.085282
C398  C     C_R   0.132163 0.560623 0.036784 0.037576
C399  C     C_R   0.118417 0.599520 0.023813 -0.059089
C400  C     C_R   0.096237 0.631554 0.039535 -0.111268
C401  C     C_R   0.531716 0.842755 0.015706 -0.045730
C402  C     C_R   0.088581 0.625581 0.068479 -0.104278
C403  C     C_R   0.103813 0.587945 0.081837 -0.103284
C404  C     C_R   0.126045 0.555877 0.066186 -0.101590
C405  C     C_R   0.567961 0.865620 0.030478 0.052993
C406  C     C_R   0.604371 0.881354 0.015025 -0.065508
C407  C     C_R   0.638599 0.902413 0.028773 -0.111000
C408  C     C_R   0.637420 0.906738 0.058177 -0.097986
C409  C     C_R   0.602493 0.889134 0.073854 -0.106415
C410  C     C_R   0.568312 0.868129 0.060053 -0.085281
C411  C     C_R   0.864737 0.437489 0.035874 0.048829
C412  C     C_R   0.842368 0.469395 0.016951 -0.049179
C413  C     C_R   0.884636 0.399529 0.024788 -0.062063
C414  C     C_R   0.904994 0.369622 0.042654 -0.105470
C415  C     C_R   0.904362 0.376462 0.071846 -0.097277
C416  C     C_R   0.882440 0.412639 0.083209 -0.111184
C417  C     C_R   0.862178 0.442520 0.065310 -0.090768
C418  C     C_R   0.441774 0.133528 0.039335 0.032370
C419  C     C_R   0.402342 0.116638 0.028982 -0.058023
C420  C     C_R   0.372304 0.095986 0.047163 -0.109950
C421  C     C_R   0.380605 0.093191 0.076027 -0.104180
C422  C     C_R   0.418626 0.111639 0.086795 -0.104143
C423  C     C_R   0.473100 0.156655 0.019757 -0.055093
C424  C     C_R   0.448900 0.132056 0.068649 -0.103375
C425  C     C_R   0.635263 0.937393 0.464182 0.048868
C426  C     C_R   0.615377 0.899459 0.475318 -0.062081
C427  C     C_R   0.595026 0.869490 0.457492 -0.105530
C428  C     C_R   0.595655 0.876239 0.428292 -0.097313
C429  C     C_R   0.617565 0.912387 0.416880 -0.111153
C430  C     C_R   0.637819 0.942330 0.434739 -0.090731
C431  C     C_R   0.058246 0.633535 0.460679 0.032367
C432  C     C_R   0.097675 0.616651 0.471042 -0.058029
C433  C     C_R   0.127726 0.596005 0.452867 -0.109956
C434  C     C_R   0.657632 0.969359 0.483066 -0.049177
C435  C     C_R   0.119443 0.593210 0.424001 -0.104192
C436  C     C_R   0.081425 0.611651 0.413224 -0.104142
C437  C     C_R   0.051137 0.632061 0.431363 -0.103370
C438  C     C_R   0.367825 0.060677 0.463257 0.037603
C439  C     C_R   0.381565 0.099561 0.476246 -0.059103
C440  C     C_R   0.403732 0.131622 0.460538 -0.111289
C441  C     C_R   0.411382 0.125687 0.431591 -0.104246
C442  C     C_R   0.396157 0.088064 0.418214 -0.103266
C443  C     C_R   0.373937 0.055971 0.433852 -0.101576
C444  C     C_R   0.932022 0.365618 0.469535 0.052991
C445  C     C_R   0.585023 0.999925 0.499545 0.548077
C446  C     C_R   0.026907 0.656657 0.480250 -0.055096
C447  C     C_R   0.895623 0.381351 0.484999 -0.065514
C448  C     C_R   0.861381 0.402406 0.471262 -0.111013
C449  C     C_R   0.862535 0.406726 0.441856 -0.097998
C450  C     C_R   0.897450 0.389121 0.426169 -0.106414
C451  C     C_R   0.931644 0.368121 0.439960 -0.085288
C452  C     C_R   0.632177 0.060675 0.536741 0.037598
C453  C     C_R   0.618439 0.099560 0.523752 -0.059103
C454  C     C_R   0.596272 0.131621 0.539459 -0.111288
C455  C     C_R   0.588621 0.125686 0.568407 -0.104246
C456  C     C_R   0.603845 0.088062 0.581783 -0.103267
C457  C     C_R   0.344076 0.026825 0.480379 -0.054421
C458  C     C_R   0.626063 0.055968 0.566146 -0.101581
C459  C     C_R   0.067964 0.365620 0.530475 0.052995
C460  C     C_R   0.104373 0.381354 0.515020 -0.065509
C461  C     C_R   0.138602 0.402413 0.528767 -0.111003
C462  C     C_R   0.137426 0.406738 0.558172 -0.097988
C463  C     C_R   0.102500 0.389133 0.573850 -0.106417
C464  C     C_R   0.068319 0.368128 0.560049 -0.085285
C465  C     C_R   0.364735 0.937392 0.535817 0.048866
C466  C     C_R   0.384621 0.899459 0.524681 -0.062081
C467  C     C_R   0.404970 0.869488 0.542507 -0.105532
C468  C     C_R   0.968278 0.342755 0.484297 -0.045725
C469  C     C_R   0.404340 0.876235 0.571708 -0.097311
C470  C     C_R   0.382431 0.912383 0.583119 -0.111151
C471  C     C_R   0.362178 0.942328 0.565260 -0.090733
C472  C     C_R   0.941755 0.633528 0.539326 0.032380
C473  C     C_R   0.902326 0.616643 0.528964 -0.058027
C474  C     C_R   0.872278 0.595991 0.547138 -0.109952
C475  C     C_R   0.880565 0.593191 0.576004 -0.104187
C476  C     C_R   0.918581 0.611634 0.586781 -0.104150
C477  C     C_R   0.948866 0.632051 0.568642 -0.103373
C478  C     C_2   0.362260 0.576488 0.023093 0.591974
C479  C     C_R   0.655925 0.026823 0.519619 -0.054420
C480  C     C_2   0.422212 0.363481 0.022453 0.590123
C481  C     C_2   0.635433 0.420550 0.019082 0.591029
C482  C     C_2   0.579302 0.636395 0.017801 0.592976
C483  C     C_2   0.364567 0.420548 0.980920 0.591031
C484  C     C_2   0.420699 0.636395 0.982197 0.592977
C485  C     C_2   0.637739 0.576489 0.976906 0.591975
C486  C     C_2   0.577789 0.363482 0.977549 0.590123
C487  C     C_2   0.862258 0.076495 0.523078 0.591980
C488  C     C_2   0.922218 0.863480 0.522466 0.590128
C489  C     C_2   0.135430 0.920540 0.519065 0.591036
C490  C     C_R   0.031718 0.342755 0.515704 -0.045728
C491  C     C_2   0.079297 0.136397 0.517811 0.592981
C492  C     C_2   0.864571 0.920540 0.480934 0.591035
C493  C     C_2   0.920704 0.136397 0.482190 0.592982
C494  C     C_2   0.137741 0.076498 0.476922 0.591981
C495  C     C_2   0.077780 0.863479 0.477537 0.590131
C496  C     C_R   0.342367 0.969360 0.516933 -0.049174
C497  C     C_R   0.973092 0.656654 0.519755 -0.055103
C498  C     C_R   0.133518 0.499214 0.000433 -0.026941
C499  C     C_R   0.500000 0.133391 1.000000 -0.039043
C500  C     C_R   0.866482 0.499216 0.999570 -0.026946
C501  C     C_R   0.000000 0.584962 0.500002 0.527478
C502  C     C_R   0.500000 0.866223 1.000000 -0.014802
C503  C     C_R   0.633520 0.999213 0.500425 -0.026944
C504  C     C_R   0.000000 0.633391 0.500003 -0.039055
C505  C     C_R   0.366480 0.999213 0.499573 -0.026940
C506  C     C_R   0.999999 0.366222 0.500000 -0.014800
C507  C     C_R   0.225983 0.496339 0.003151 -0.009468
C508  C     C_R   0.500000 0.225946 0.000000 -0.009958
C509  C     C_R   0.774017 0.496347 0.996855 -0.009470
C510  C     C_R   0.500001 0.773509 0.999999 -0.008590
C511  C     C_R   0.725985 0.996344 0.503139 -0.009473
C512  C     C_R   0.414977 0.999925 0.500454 0.548090
C513  C     C_R   0.999998 0.725946 0.500003 -0.009960
C514  C     C_R   0.274014 0.996347 0.496860 -0.009471
C515  C     C_R   0.999999 0.273508 0.500000 -0.008588
C516  C     C_R   0.297457 0.536232 0.006865 -0.121007
C517  C     C_R   0.461240 0.298104 0.004746 -0.119936
C518  C     C_R   0.701008 0.458437 0.000210 -0.118144
C519  C     C_R   0.539261 0.701280 0.001148 -0.119282
C520  C     C_R   0.298993 0.458432 0.999795 -0.118143
C521  C     C_R   0.460741 0.701280 0.998850 -0.119282
C522  C     C_R   0.702542 0.536236 0.993139 -0.121007
C523  C     C_R   1.000000 0.414894 0.500000 0.562351
C524  C     C_R   0.538761 0.298104 0.995255 -0.119936
C525  C     C_R   0.797461 0.036238 0.506840 -0.121002
C526  C     C_R   0.961238 0.798105 0.504751 -0.119942
C527  C     C_R   0.201004 0.958435 0.500199 -0.118146
C528  C     C_R   0.039260 0.201280 0.501150 -0.119287
C529  C     C_R   0.798996 0.958432 0.499800 -0.118148
C530  C     C_R   0.960740 0.201279 0.498853 -0.119285
C531  C     C_R   0.202539 0.036242 0.493159 -0.121002
C532  C     C_R   0.038758 0.798104 0.495255 -0.119940
C533  C     C_R   0.342856 0.536712 0.009874 0.022695
C534  C     C_R   0.012601 0.512711 0.145306 0.162942
C535  C     C_R   0.461778 0.343428 0.008642 0.023731
C536  C     C_R   0.655902 0.459955 0.005616 0.025480
C537  C     C_R   0.539013 0.656192 0.005777 0.024355
C538  C     C_R   0.344099 0.459952 0.994387 0.025483
C539  C     C_R   0.460988 0.656192 0.994221 0.024354
C540  C     C_R   0.657143 0.536714 0.990127 0.022697
C541  C     C_R   0.538222 0.343429 0.991359 0.023733
C542  C     C_R   0.842858 0.036717 0.509859 0.022699
C543  C     C_R   0.961779 0.843429 0.508648 0.023730
C544  C     C_R   0.155899 0.959951 0.505607 0.025482
Cu1   Cu    Cu3+1 0.000000 0.544010 0.000000 0.919209
Cu2   Cu    Cu3+1 0.500000 0.500000 0.971830 1.132129
Cu3   Cu    Cu3+1 1.000000 0.000000 0.528170 1.132126
Cu4   Cu    Cu3+1 1.000000 1.000000 0.471830 1.132125
Cu5   Cu    Cu3+1 0.455990 0.000000 0.000000 0.930288
Cu6   Cu    Cu3+1 0.000000 0.455990 0.000000 0.935364
Cu7   Cu    Cu3+1 0.544010 0.000000 0.000000 0.930284
Cu8   Cu    Cu3+1 0.500000 0.044010 0.500000 0.919185
Cu9   Cu    Cu3+1 0.955990 0.500000 0.500000 0.930307
Cu10  Cu    Cu3+1 0.500000 0.955990 0.500000 0.935455
Cu11  Cu    Cu3+1 0.044010 0.500000 0.500000 0.930305
Cu12  Cu    Cu3+1 0.500000 0.500000 0.028170 1.132128
H1    H     H_    0.936540 0.594436 0.274902 0.165009
H2    H     H_    0.906185 0.438227 0.775377 0.165441
H3    H     H_    0.326482 0.049943 0.576117 0.101229
H4    H     H_    0.345784 0.118402 0.550786 0.101378
H5    H     H_    0.422319 0.145476 0.550686 0.093286
H6    H     H_    0.479686 0.103649 0.575064 0.120105
H7    H     H_    0.999739 0.385943 0.601339 0.104902
H8    H     H_    0.960935 0.324198 0.578847 0.102450
H9    H     H_    0.889935 0.336940 0.555705 0.103120
H10   H     H_    0.858181 0.411614 0.554657 0.093621
H11   H     H_    0.897575 0.473477 0.576187 0.120914
H12   H     H_    0.616052 0.008478 0.398839 0.107234
H13   H     H_    0.601841 0.948500 0.775735 0.168938
H14   H     H_    0.673518 0.049946 0.423878 0.101229
H15   H     H_    0.654216 0.118405 0.449209 0.101379
H16   H     H_    0.577681 0.145477 0.449311 0.093286
H17   H     H_    0.520313 0.103650 0.424935 0.120106
H18   H     H_    0.000230 0.385935 0.398678 0.104912
H19   H     H_    0.039017 0.324189 0.421181 0.102456
H20   H     H_    0.110020 0.336922 0.444322 0.103118
H21   H     H_    0.141795 0.411588 0.445355 0.093618
H22   H     H_    0.102417 0.473452 0.423814 0.120915
H23   H     H_    0.407120 0.980530 0.445948 0.105589
H24   H     H_    0.053313 0.602519 0.776422 0.168472
H25   H     H_    0.357902 0.920456 0.460641 0.100199
H26   H     H_    0.363263 0.848416 0.436763 0.106439
H27   H     H_    0.415774 0.838066 0.396728 0.112819
H28   H     H_    0.461800 0.899682 0.380164 0.138669
H29   H     H_    0.980572 0.592204 0.446124 0.110660
H30   H     H_    0.919870 0.639568 0.462442 0.101158
H31   H     H_    0.847670 0.634774 0.439471 0.106025
H32   H     H_    0.837674 0.584482 0.398934 0.112695
H33   H     H_    0.899696 0.539986 0.381055 0.139789
H34   H     H_    0.212876 0.383505 0.972730 0.105745
H35   H     H_    0.398153 0.948494 0.224267 0.168937
H36   H     H_    0.254596 0.347939 0.933908 0.113216
H37   H     H_    0.294878 0.392862 0.898443 0.114606
H38   H     H_    0.293005 0.473765 0.901650 0.117967
H39   H     H_    0.250982 0.509961 0.940119 0.108033
H40   H     H_    0.610057 0.213138 0.964012 0.109455
H41   H     H_    0.640487 0.252538 0.922567 0.116260
H42   H     H_    0.590938 0.288625 0.888798 0.116627
H43   H     H_    0.510541 0.284926 0.896408 0.121016
H44   H     H_    0.479458 0.245240 0.937586 0.116948
H45   H     H_    0.786928 0.608661 0.964301 0.111076
H46   H     H_    0.946752 0.602538 0.223575 0.168472
H47   H     H_    0.750892 0.639342 0.922426 0.117583
H48   H     H_    0.719586 0.590047 0.886416 0.116639
H49   H     H_    0.724690 0.509648 0.892250 0.121779
H50   H     H_    0.761065 0.478312 0.933856 0.118370
H51   H     H_    0.382774 0.786940 0.976794 0.107894
H52   H     H_    0.343833 0.747998 0.939089 0.114016
H53   H     H_    0.385542 0.711321 0.900441 0.114159
H54   H     H_    0.466640 0.713978 0.899407 0.118030
H55   H     H_    0.506206 0.753230 0.936746 0.106553
H56   H     H_    0.213068 0.608653 0.035705 0.111075
H57   H     H_    0.563634 0.094339 0.225081 0.165015
H58   H     H_    0.249107 0.639334 0.077579 0.117583
H59   H     H_    0.280419 0.590039 0.113587 0.116641
H60   H     H_    0.275320 0.509640 0.107753 0.121776
H61   H     H_    0.238942 0.478304 0.066148 0.118373
H62   H     H_    0.617228 0.786939 0.023203 0.107892
H63   H     H_    0.656169 0.747996 0.060908 0.114014
H64   H     H_    0.614460 0.711319 0.099557 0.114157
H65   H     H_    0.533361 0.713976 0.100591 0.118029
H66   H     H_    0.493796 0.753228 0.063252 0.106553
H67   H     H_    0.787120 0.383512 0.027281 0.105749
H68   H     H_    0.093783 0.438158 0.224623 0.165442
H69   H     H_    0.745401 0.347951 0.066106 0.113219
H70   H     H_    0.705123 0.392880 0.101570 0.114607
H71   H     H_    0.707000 0.473782 0.098358 0.117964
H72   H     H_    0.749022 0.509973 0.059886 0.108033
H73   H     H_    0.389944 0.213137 0.035988 0.109454
H74   H     H_    0.359515 0.252532 0.077435 0.116263
H75   H     H_    0.409066 0.288611 0.111206 0.116628
H76   H     H_    0.489462 0.284910 0.103596 0.121017
H77   H     H_    0.520544 0.245229 0.062416 0.116949
H78   H     H_    0.712890 0.883466 0.472785 0.105762
H79   H     H_    0.279268 0.566419 0.008553 0.165224
H80   H     H_    0.754603 0.847854 0.433977 0.113212
H81   H     H_    0.794867 0.892737 0.398482 0.114596
H82   H     H_    0.792984 0.973644 0.401644 0.117972
H83   H     H_    0.750967 0.009884 0.440098 0.108018
H84   H     H_    0.110059 0.713148 0.464016 0.109459
H85   H     H_    0.140484 0.752544 0.422568 0.116253
H86   H     H_    0.090929 0.788617 0.388796 0.116620
H87   H     H_    0.010533 0.784908 0.396406 0.121017
H88   H     H_    0.979455 0.745226 0.437588 0.116941
H89   H     H_    0.286915 0.108699 0.464355 0.111067
H90   H     H_    0.430807 0.280376 0.007039 0.166409
H91   H     H_    0.250877 0.139420 0.422493 0.117576
H92   H     H_    0.219578 0.090160 0.386462 0.116633
H93   H     H_    0.224688 0.009755 0.392261 0.121784
H94   H     H_    0.261065 0.978380 0.433854 0.118361
H95   H     H_    0.882765 0.286942 0.476808 0.107897
H96   H     H_    0.843812 0.248000 0.439109 0.114014
H97   H     H_    0.885509 0.211315 0.400458 0.114158
H98   H     H_    0.966608 0.213964 0.399418 0.118036
H99   H     H_    0.006185 0.253216 0.436750 0.106554
H100  H     H_    0.713086 0.108693 0.535647 0.111070
H101  H     H_    0.718023 0.427516 0.001023 0.167074
H102  H     H_    0.749125 0.139409 0.577510 0.117574
H103  H     H_    0.780427 0.090145 0.613539 0.116631
H104  H     H_    0.775315 0.009741 0.607737 0.121783
H105  H     H_    0.738937 0.978370 0.566143 0.118357
H106  H     H_    0.117231 0.286941 0.523199 0.107886
H107  H     H_    0.156177 0.248003 0.560904 0.114014
H108  H     H_    0.114472 0.211326 0.599555 0.114159
H109  H     H_    0.033373 0.213979 0.600591 0.118030
H110  H     H_    0.993803 0.253227 0.563253 0.106550
H111  H     H_    0.287108 0.883468 0.527216 0.105766
H112  H     H_    0.406153 0.938316 0.275390 0.165443
H113  H     H_    0.570007 0.718666 0.000421 0.165811
H114  H     H_    0.245393 0.847856 0.566023 0.113216
H115  H     H_    0.205128 0.892738 0.601518 0.114600
H116  H     H_    0.207012 0.973645 0.598354 0.117973
H117  H     H_    0.249030 0.009886 0.559900 0.108020
H118  H     H_    0.889936 0.713140 0.535987 0.109453
H119  H     H_    0.859506 0.752531 0.577434 0.116251
H120  H     H_    0.909057 0.788603 0.611209 0.116618
H121  H     H_    0.989454 0.784898 0.603601 0.121016
H122  H     H_    0.020536 0.745222 0.562419 0.116946
H123  H     H_    0.115120 0.393201 0.997658 0.106558
H124  H     H_    0.281980 0.427511 0.998984 0.167075
H125  H     H_    0.078945 0.341019 0.966134 0.097152
H126  H     H_    0.079980 0.353264 0.914316 0.112345
H127  H     H_    0.119473 0.417191 0.894112 0.122430
H128  H     H_    0.157281 0.468601 0.925711 0.103134
H129  H     H_    0.605154 0.119261 0.993174 0.105557
H130  H     H_    0.657582 0.082433 0.961111 0.097820
H131  H     H_    0.642735 0.077335 0.909884 0.121953
H132  H     H_    0.575636 0.110466 0.890738 0.153603
H133  H     H_    0.522260 0.147011 0.922532 0.142615
H134  H     H_    0.875598 0.604690 0.998568 0.108422
H135  H     H_    0.429995 0.718667 0.999576 0.165812
H136  H     H_    0.914952 0.661056 0.970743 0.095101
H137  H     H_    0.928655 0.650394 0.919394 0.116641
H138  H     H_    0.901340 0.583807 0.895647 0.148278
H139  H     H_    0.861213 0.527598 0.922967 0.140020
H140  H     H_    0.394102 0.877711 0.007652 0.108405
H141  H     H_    0.333904 0.915195 0.983365 0.095065
H142  H     H_    0.336035 0.922932 0.931160 0.109942
H143  H     H_    0.397747 0.891090 0.903299 0.118598
H144  H     H_    0.456754 0.851793 0.927716 0.101714
H145  H     H_    0.124398 0.604686 0.001443 0.108422
H146  H     H_    0.720730 0.566424 0.991451 0.165221
H147  H     H_    0.085039 0.661042 0.029272 0.095100
H148  H     H_    0.071338 0.650368 0.080622 0.116648
H149  H     H_    0.098660 0.583778 0.104363 0.148290
H150  H     H_    0.138789 0.527578 0.077039 0.139975
H151  H     H_    0.605900 0.877713 0.992348 0.108406
H152  H     H_    0.666097 0.915195 0.016636 0.095065
H153  H     H_    0.663964 0.922929 0.068841 0.109943
H154  H     H_    0.602251 0.891085 0.096701 0.118596
H155  H     H_    0.543245 0.851789 0.072283 0.101713
H156  H     H_    0.884867 0.393202 0.002342 0.106552
H157  H     H_    0.569193 0.280377 0.992963 0.166411
H158  H     H_    0.921047 0.341016 0.033862 0.097152
H159  H     H_    0.920028 0.353261 0.085680 0.112337
H160  H     H_    0.880546 0.417191 0.105887 0.122425
H161  H     H_    0.842734 0.468605 0.074292 0.103134
H162  H     H_    0.394844 0.119265 0.006823 0.105552
H163  H     H_    0.342413 0.082436 0.038885 0.097821
H164  H     H_    0.357260 0.077329 0.090112 0.121952
H165  H     H_    0.424361 0.110453 0.109259 0.153600
H166  H     H_    0.477739 0.147000 0.077466 0.142622
H167  H     H_    0.615148 0.893200 0.497772 0.106602
H168  H     H_    0.779274 0.066428 0.508514 0.165208
H169  H     H_    0.578983 0.840906 0.466322 0.097152
H170  H     H_    0.579997 0.852988 0.414489 0.112319
H171  H     H_    0.619459 0.916868 0.394196 0.122376
H172  H     H_    0.657263 0.968385 0.425720 0.103149
H173  H     H_    0.105159 0.619278 0.493202 0.105555
H174  H     H_    0.157615 0.582460 0.461153 0.097824
H175  H     H_    0.142799 0.577353 0.409922 0.121927
H176  H     H_    0.075704 0.610466 0.390759 0.153598
H177  H     H_    0.022301 0.647001 0.422539 0.142683
H178  H     H_    0.375587 0.104699 0.498618 0.108401
H179  H     H_    0.930806 0.780378 0.507044 0.166404
H180  H     H_    0.414923 0.161101 0.470814 0.095105
H181  H     H_    0.428614 0.150495 0.419458 0.116640
H182  H     H_    0.401305 0.083927 0.395686 0.148228
H183  H     H_    0.361195 0.027685 0.422986 0.140099
H184  H     H_    0.894113 0.377713 0.507676 0.108428
H185  H     H_    0.833893 0.415188 0.483407 0.095066
H186  H     H_    0.835981 0.422913 0.431201 0.109947
H187  H     H_    0.897671 0.391067 0.403322 0.118599
H188  H     H_    0.956700 0.351778 0.427722 0.101717
H189  H     H_    0.624417 0.104698 0.501379 0.108400
H190  H     H_    0.218016 0.927513 0.500997 0.167065
H191  H     H_    0.585082 0.161100 0.529182 0.095106
H192  H     H_    0.571390 0.150493 0.580538 0.116640
H193  H     H_    0.598695 0.083924 0.604312 0.148230
H194  H     H_    0.638803 0.027681 0.577013 0.140110
H195  H     H_    0.105901 0.377713 0.492344 0.108402
H196  H     H_    0.166100 0.415195 0.516630 0.095066
H197  H     H_    0.163971 0.422928 0.568835 0.109942
H198  H     H_    0.102260 0.391083 0.596697 0.118594
H199  H     H_    0.043253 0.351786 0.572280 0.101713
H200  H     H_    0.384850 0.893201 0.502227 0.106601
H201  H     H_    0.070006 0.218665 0.500423 0.165807
H202  H     H_    0.421013 0.840904 0.533677 0.097153
H203  H     H_    0.419998 0.852983 0.585510 0.112325
H204  H     H_    0.380536 0.916862 0.605803 0.122379
H205  H     H_    0.342734 0.968382 0.574279 0.103150
H206  H     H_    0.894840 0.619273 0.506804 0.105553
H207  H     H_    0.842390 0.582444 0.538853 0.097821
H208  H     H_    0.857211 0.577329 0.590083 0.121931
H209  H     H_    0.924306 0.610444 0.609246 0.153601
H210  H     H_    0.977701 0.646993 0.577466 0.142636
H211  H     H_    0.352672 0.638294 0.037066 0.348847
H212  H     H_    0.781984 0.927510 0.499001 0.167065
H213  H     H_    0.359926 0.355124 0.036550 0.347177
H214  H     H_    0.642719 0.357677 0.031350 0.345643
H215  H     H_    0.642562 0.644764 0.028385 0.346914
H216  H     H_    0.357281 0.357675 0.968653 0.345640
H217  H     H_    0.357439 0.644765 0.971614 0.346916
H218  H     H_    0.647327 0.638295 0.962930 0.348845
H219  H     H_    0.640075 0.355127 0.963454 0.347176
H220  H     H_    0.852666 0.138303 0.537046 0.348840
H221  H     H_    0.859940 0.855121 0.536577 0.347171
H222  H     H_    0.142714 0.857660 0.531318 0.345634
H223  H     H_    0.101790 0.448333 0.275746 0.168938
H224  H     H_    0.929993 0.218663 0.499581 0.165810
H225  H     H_    0.142552 0.144771 0.528406 0.346918
H226  H     H_    0.857288 0.857660 0.468681 0.345630
H227  H     H_    0.857448 0.144770 0.471596 0.346917
H228  H     H_    0.147331 0.138307 0.462954 0.348839
H229  H     H_    0.140057 0.855117 0.463426 0.347174
H230  H     H_    0.220725 0.066432 0.491485 0.165208
H231  H     H_    0.069190 0.780378 0.492963 0.166403
H232  H     H_    0.137797 0.529328 0.162079 0.338750
H233  H     H_    0.473668 0.138831 0.164729 0.338456
H234  H     H_    0.893089 0.508009 0.181325 0.338077
H235  H     H_    0.494582 0.894998 0.181250 0.338439
H236  H     H_    0.106929 0.507972 0.818682 0.338076
H237  H     H_    0.505413 0.895003 0.818750 0.338440
H238  H     H_    0.862225 0.529409 0.837918 0.338748
H239  H     H_    0.553456 0.102454 0.276409 0.168468
H240  H     H_    0.526322 0.138836 0.835271 0.338455
H241  H     H_    0.637689 0.029627 0.662101 0.338742
H242  H     H_    0.973587 0.638832 0.664711 0.338449
H243  H     H_    0.393019 0.007853 0.681311 0.338077
H244  H     H_    0.994644 0.395003 0.681251 0.338438
H245  H     H_    0.606974 0.007853 0.318687 0.338076
H246  H     H_    0.005304 0.394978 0.318762 0.338437
H247  H     H_    0.362301 0.029611 0.337902 0.338742
H248  H     H_    0.026488 0.638799 0.335274 0.338446
H249  H     H_    0.092900 0.480429 0.054055 0.105529
H250  H     H_    0.898181 0.448410 0.724254 0.168940
H251  H     H_    0.141982 0.420274 0.039318 0.100167
H252  H     H_    0.136469 0.348203 0.063148 0.106432
H253  H     H_    0.083938 0.337896 0.103177 0.112796
H254  H     H_    0.038037 0.399579 0.119780 0.138559
H255  H     H_    0.519472 0.092224 0.053879 0.110620
H256  H     H_    0.580202 0.139543 0.037554 0.101132
H257  H     H_    0.652418 0.134667 0.060498 0.106028
H258  H     H_    0.662401 0.084339 0.101019 0.112685
H259  H     H_    0.600352 0.039890 0.118909 0.139757
H260  H     H_    0.883989 0.508676 0.101161 0.107206
H261  H     H_    0.446537 0.102457 0.723590 0.168467
H262  H     H_    0.826601 0.550239 0.076112 0.101228
H263  H     H_    0.846023 0.618679 0.050795 0.101366
H264  H     H_    0.922599 0.645635 0.050716 0.093286
H265  H     H_    0.979891 0.603705 0.075094 0.120048
H266  H     H_    0.499724 0.885950 0.101337 0.104894
H267  H     H_    0.460925 0.824211 0.078836 0.102450
H268  H     H_    0.389933 0.836959 0.055685 0.103116
H269  H     H_    0.358180 0.911633 0.054640 0.093615
H270  H     H_    0.397568 0.973491 0.076182 0.120905
H271  H     H_    0.116024 0.508672 0.898844 0.107223
H272  H     H_    0.063516 0.594418 0.725094 0.165012
H273  H     H_    0.173409 0.550230 0.923898 0.101227
H274  H     H_    0.153986 0.618668 0.949216 0.101368
H275  H     H_    0.077411 0.645626 0.949291 0.093287
H276  H     H_    0.020122 0.603701 0.924907 0.120053
H277  H     H_    0.500278 0.885952 0.898663 0.104895
H278  H     H_    0.539079 0.824213 0.921165 0.102451
H279  H     H_    0.610071 0.836964 0.944315 0.103115
H280  H     H_    0.641822 0.911640 0.945359 0.093615
H281  H     H_    0.602432 0.973496 0.923817 0.120905
H282  H     H_    0.907115 0.480452 0.945950 0.105553
H283  H     H_    0.593839 0.938320 0.724612 0.165442
H284  H     H_    0.858011 0.420312 0.960685 0.100181
H285  H     H_    0.863476 0.348253 0.936839 0.106435
H286  H     H_    0.915984 0.337942 0.896798 0.112804
H287  H     H_    0.961910 0.399610 0.880200 0.138592
H288  H     H_    0.480529 0.092230 0.946118 0.110611
H289  H     H_    0.419798 0.139545 0.962445 0.101129
H290  H     H_    0.347577 0.134657 0.939508 0.106026
H291  H     H_    0.337589 0.084321 0.898992 0.112682
H292  H     H_    0.399640 0.039878 0.881099 0.139742
H293  H     H_    0.592858 0.980539 0.554045 0.105623
H294  H     H_    0.436359 0.094343 0.774918 0.165015
H295  H     H_    0.642098 0.920482 0.539353 0.100216
H296  H     H_    0.636788 0.848452 0.563248 0.106440
H297  H     H_    0.584302 0.838092 0.603295 0.112825
H298  H     H_    0.538249 0.899690 0.619854 0.138711
H299  H     H_    0.019453 0.592237 0.553885 0.110600
H300  H     H_    0.080177 0.639571 0.537568 0.101127
H301  H     H_    0.152394 0.634694 0.560510 0.106021
H302  H     H_    0.162382 0.584353 0.601025 0.112681
H303  H     H_    0.100336 0.539897 0.618911 0.139716
H304  H     H_    0.383946 0.008475 0.601158 0.107234
N1    N     N_R   0.015384 0.518584 0.323512 -0.351958
N2    N     N_R   0.482603 0.016595 0.324019 -0.352485
N3    N     N_R   0.984625 0.518612 0.676486 -0.351961
N4    N     N_R   0.517389 0.016597 0.675981 -0.352483
N5    N     N_R   0.515341 0.018614 0.823515 -0.351948
N6    N     N_R   0.982547 0.516575 0.824020 -0.352490
N7    N     N_R   0.484654 0.018609 0.176485 -0.351946
N8    N     N_R   0.017470 0.516555 0.175979 -0.352490
O1    O     O_R   0.064240 0.537160 0.000020 -0.501473
O2    O     O_R   0.962840 0.564240 0.500020 -0.512174
O3    O     O_R   0.384236 0.338441 0.026436 -0.708313
O4    O     O_2   0.598562 0.421974 0.029406 -0.506071
O5    O     O_R   0.659547 0.381798 0.021243 -0.706730
O6    O     O_2   0.578657 0.599774 0.028100 -0.506226
O7    O     O_R   0.617867 0.661004 0.018912 -0.708615
O8    O     O_2   0.401436 0.421974 0.970595 -0.506074
O9    O     O_R   0.340454 0.381796 0.978761 -0.706727
O10   O     O_2   0.421343 0.599774 0.971899 -0.506223
O11   O     O_R   0.382134 0.661004 0.981087 -0.708617
O12   O     O_2   0.600323 0.576372 0.968260 -0.501662
O13   O     O_R   0.435760 0.962840 0.500020 -0.513405
O14   O     O_R   0.663525 0.613885 0.972809 -0.711396
O15   O     O_2   0.577136 0.400869 0.968514 -0.504162
O16   O     O_R   0.615766 0.338444 0.973568 -0.708316
O17   O     O_2   0.899671 0.076378 0.531730 -0.501679
O18   O     O_R   0.836472 0.113892 0.527167 -0.711395
O19   O     O_2   0.922871 0.900869 0.531497 -0.504151
O20   O     O_R   0.884246 0.838438 0.526459 -0.708323
O21   O     O_2   0.098563 0.921964 0.529395 -0.506092
O22   O     O_R   0.159541 0.881785 0.521214 -0.706724
O23   O     O_2   0.078651 0.099775 0.528108 -0.506214
O24   O     O_R   0.037160 0.435760 0.500020 -0.501915
O25   O     O_R   0.117860 0.161009 0.518929 -0.708613
O26   O     O_2   0.901438 0.921964 0.470605 -0.506094
O27   O     O_R   0.840460 0.881784 0.478785 -0.706723
O28   O     O_2   0.921350 0.099776 0.471891 -0.506214
O29   O     O_R   0.882140 0.161008 0.481073 -0.708614
O30   O     O_2   0.100328 0.076381 0.468270 -0.501684
O31   O     O_R   0.163526 0.113896 0.472834 -0.711391
O32   O     O_2   0.077127 0.900867 0.468504 -0.504146
O33   O     O_R   0.115751 0.838435 0.473545 -0.708329
O34   O     O_R   0.564240 0.962840 0.499980 -0.513411
O35   O     O_R   0.962840 0.435760 0.499980 -0.501921
O36   O     O_R   0.435760 0.037160 0.499980 -0.501467
O37   O     O_R   0.037160 0.564240 0.499980 -0.512165
O38   O     O_R   0.999950 0.537170 0.041080 -0.509198
O39   O     O_R   0.462830 0.999950 0.041080 -0.508568
O40   O     O_R   0.000050 0.462830 0.041080 -0.496194
O41   O     O_R   0.462840 0.064240 0.000020 -0.512180
O42   O     O_R   0.537170 0.000050 0.041080 -0.496793
O43   O     O_R   0.999950 0.462830 0.958920 -0.496190
O44   O     O_R   0.462830 0.000050 0.958920 -0.496794
O45   O     O_R   0.000050 0.537170 0.958920 -0.509203
O46   O     O_R   0.537170 0.999950 0.958920 -0.508569
O47   O     O_R   0.499950 0.037170 0.541080 -0.509241
O48   O     O_R   0.962830 0.499950 0.541080 -0.508568
O49   O     O_R   0.500050 0.962830 0.541080 -0.496186
O50   O     O_R   0.037170 0.500050 0.541080 -0.496789
O51   O     O_R   0.499950 0.962830 0.458920 -0.496188
O52   O     O_R   0.935760 0.462840 0.000020 -0.513444
O53   O     O_R   0.962830 0.500050 0.458920 -0.496786
O54   O     O_R   0.500050 0.037170 0.458920 -0.509240
O55   O     O_R   0.037170 0.499950 0.458920 -0.508571
O56   O     O_R   0.499970 0.435720 0.023800 -0.467719
O57   O     O_R   0.564280 0.499970 0.023800 -0.469339
O58   O     O_R   0.500030 0.564280 0.023800 -0.470776
O59   O     O_R   0.435720 0.500030 0.023800 -0.468235
O60   O     O_R   0.499970 0.564280 0.976200 -0.470775
O61   O     O_R   0.564280 0.500030 0.976200 -0.468233
O62   O     O_R   0.500030 0.435720 0.976200 -0.467720
O63   O     O_R   0.537160 0.935760 0.000020 -0.501917
O64   O     O_R   0.435720 0.499970 0.976200 -0.469338
O65   O     O_R   0.999970 0.935720 0.523800 -0.467716
O66   O     O_R   0.064280 0.999970 0.523800 -0.469349
O67   O     O_R   0.000030 0.064280 0.523800 -0.470776
O68   O     O_R   0.935720 0.000030 0.523800 -0.468240
O69   O     O_R   0.999970 0.064280 0.476200 -0.470774
O70   O     O_R   0.064280 0.000030 0.476200 -0.468245
O71   O     O_R   0.000030 0.935720 0.476200 -0.467712
O72   O     O_R   0.935720 0.999970 0.476200 -0.469350
O73   O     O_2   0.087086 0.488886 0.322918 -0.470458
O74   O     O_R   0.064240 0.462840 0.999980 -0.513449
O75   O     O_2   0.512425 0.088206 0.323831 -0.469404
O76   O     O_2   0.945540 0.552415 0.321645 -0.498248
O77   O     O_2   0.448265 0.947028 0.321723 -0.498373
O78   O     O_2   0.054487 0.552407 0.678351 -0.498204
O79   O     O_2   0.551728 0.947031 0.678279 -0.498399
O80   O     O_2   0.912907 0.488953 0.677082 -0.470468
O81   O     O_2   0.487566 0.088207 0.676167 -0.469401
O82   O     O_2   0.587080 0.989010 0.822911 -0.470487
O83   O     O_2   0.012280 0.588223 0.823840 -0.469432
O84   O     O_2   0.445450 0.052351 0.821661 -0.498242
O85   O     O_R   0.462840 0.935760 0.999980 -0.501918
O86   O     O_2   0.948291 0.446968 0.821713 -0.498290
O87   O     O_2   0.554544 0.052348 0.178339 -0.498254
O88   O     O_2   0.051685 0.446928 0.178285 -0.498267
O89   O     O_2   0.412915 0.989003 0.177089 -0.470485
O90   O     O_2   0.987776 0.588219 0.176158 -0.469448
O91   O     O_2   0.121755 0.474690 0.127575 -0.517358
O92   O     O_R   0.105570 0.530577 0.157380 -0.694369
O93   O     O_2   0.526656 0.122523 0.128438 -0.519213
O94   O     O_R   0.471900 0.106677 0.159637 -0.696345
O95   O     O_2   0.909586 0.563095 0.146572 -0.486794
O96   O     O_R   0.935760 0.537160 0.999980 -0.501472
O97   O     O_R   0.920681 0.499664 0.170400 -0.704037
O98   O     O_2   0.439318 0.910134 0.147126 -0.484198
O99   O     O_R   0.502622 0.922456 0.170327 -0.703333
O100  O     O_2   0.090449 0.563068 0.853430 -0.486794
O101  O     O_R   0.079332 0.499638 0.829606 -0.704039
O102  O     O_2   0.560678 0.910138 0.852874 -0.484201
O103  O     O_R   0.497372 0.922461 0.829673 -0.703334
O104  O     O_2   0.878236 0.474768 0.872429 -0.517393
O105  O     O_R   0.894454 0.530639 0.842617 -0.694360
O106  O     O_2   0.473333 0.122523 0.871561 -0.519204
O107  O     O_R   0.537160 0.064240 0.999980 -0.512186
O108  O     O_R   0.528092 0.106682 0.840363 -0.696350
O109  O     O_2   0.621780 0.974977 0.627577 -0.517461
O110  O     O_R   0.605460 0.030803 0.657401 -0.694331
O111  O     O_2   0.026602 0.622535 0.628435 -0.519205
O112  O     O_R   0.971835 0.606676 0.659623 -0.696351
O113  O     O_2   0.409440 0.062962 0.646559 -0.486766
O114  O     O_R   0.420628 0.999550 0.670389 -0.704021
O115  O     O_2   0.939365 0.410106 0.647130 -0.484195
O116  O     O_R   0.002667 0.422465 0.670327 -0.703339
O117  O     O_2   0.590553 0.062963 0.353437 -0.486766
O118  O     O_R   0.564240 0.037160 0.500020 -0.501468
O119  O     O_R   0.579366 0.999550 0.329610 -0.704025
O120  O     O_2   0.060591 0.410061 0.352880 -0.484200
O121  O     O_R   0.997296 0.422447 0.329683 -0.703333
O122  O     O_2   0.378218 0.974968 0.372430 -0.517460
O123  O     O_R   0.394531 0.030791 0.342602 -0.694329
O124  O     O_2   0.973470 0.622540 0.371556 -0.519243
O125  O     O_R   0.028222 0.606643 0.340365 -0.696344
O126  O     O_2   0.399677 0.576372 0.031738 -0.501660
O127  O     O_R   0.336474 0.613883 0.027189 -0.711397
O128  O     O_2   0.422864 0.400868 0.031487 -0.504164

loop_
_geom_bond_atom_site_label_1
_geom_bond_atom_site_label_2
_ccdc_geom_bond_type
C172  C177  A    
C322  C324  A    
C459  C460  A    
C255  H26   S    
C82   C94   A    
C287  C288  A    
C269  H37   S    
C411  C413  A    
C443  H183  S    
C425  C426  A    
C501  O2    A    
H234  O97   S    
C208  H290  S    
C442  H182  S    
C223  C500  S    
C244  H17   S    
C143  O95   D    
C476  H209  S    
C42   C58   A    
C228  H3    S    
C337  C338  A    
C142  O94   S    
C43   C63   A    
C527  C544  A    
C529  H212  S    
C129  C245  S    
C179  C272  S    
C44   C64   A    
C47   O86   S    
H211  O127  S    
C44   O83   S    
C363  H116  S    
C282  C283  A    
C413  C414  A    
C401  C502  A    
C56   C83   A    
C19   C522  A    
C177  H265  S    
C420  C421  A    
C128  C139  A    
C342  C343  A    
C494  O30   D    
H242  O112  S    
C27   O42   A    
C81   C95   A    
C389  C391  A    
C333  C336  A    
C462  H197  S    
C445  C503  S    
C478  O126  D    
C305  C310  A    
C215  H296  S    
H235  O99   S    
C153  O115  D    
C319  H78   S    
C520  C538  A    
C372  C373  A    
C105  C123  A    
C347  H100  S    
C114  C131  A    
C18   C517  A    
C51   N8    A    
C440  H180  S    
C48   N7    A    
C472  C477  A    
H218  O14   S    
C131  C140  A    
C520  H124  S    
C264  H33   S    
C172  C173  A    
C415  H159  S    
C450  H187  S    
C147  O102  D    
C57   C109  A    
C108  C153  S    
C235  C412  A    
C444  C451  A    
C272  C273  A    
C56   C72   A    
C420  H163  S    
C243  C244  A    
C67   C94   A    
Cu6   O43   S    
C387  H136  S    
C33   O55   A    
C376  H127  S    
C20   C510  S    
C326  C327  A    
C516  H79   S    
C308  H70   S    
C12   C157  S    
C4    C12   A    
C301  C345  S    
C152  O113  D    
C14   C543  A    
C43   O82   S    
Cu4   O70   S    
C68   N1    S    
C212  C292  S    
C418  C423  S    
Cu4   O72   S    
C96   C534  A    
C512  O36   A    
C83   C88   A    
C441  H181  S    
C334  O63   A    
C45   N5    A    
C37   O76   S    
C512  O13   A    
C525  H168  S    
C292  C297  A    
C41   N3    A    
C49   O88   S    
C234  C236  A    
C162  H252  S    
C228  C229  A    
C135  O66   A    
C262  H31   S    
C353  C354  A    
C430  H172  S    
C360  H111  S    
C202  C203  A    
C375  H126  S    
C252  C258  A    
C463  C464  A    
C119  C134  A    
C398  C404  A    
C525  C542  A    
C221  H301  S    
C340  C341  A    
Cu1   O96   S    
C32   C139  S    
C372  C377  A    
C189  H275  S    
C60   C86   A    
C206  C207  A    
C9    C535  A    
C116  C133  A    
H217  O11   S    
C452  C479  S    
C314  C315  A    
C528  H201  S    
C480  C535  S    
C62   C88   A    
C162  C163  A    
C411  C417  A    
C316  C317  A    
C17   C516  A    
C51   C66   A    
C427  H169  S    
C80   C92   A    
C146  O67   A    
C41   C56   A    
C229  C230  A    
C6    C531  A    
C200  H284  S    
C111  C130  A    
C303  C304  A    
C54   C70   A    
C395  C396  A    
C352  C353  A    
C306  C307  A    
C260  H29   S    
C393  H140  S    
C11   C101  S    
C68   C110  A    
C22   C513  S    
C472  C473  A    
C378  C380  A    
C337  H93   S    
C109  C154  S    
Cu8   O36   S    
C122  C136  A    
C5    C493  S    
C156  O123  S    
C42   N4    A    
C19   C518  A    
C467  H202  S    
C432  C433  A    
C467  C469  A    
C206  H288  S    
C489  O22   S    
C34   C54   A    
C26   O40   A    
C232  C238  A    
C183  H269  S    
C198  C204  A    
C381  C382  A    
C125  C138  A    
C32   O54   A    
C62   C75   A    
H238  O105  S    
C486  O16   S    
C298  C299  A    
C253  H23   S    
C282  H48   S    
C383  C384  A    
C103  C121  A    
C201  C285  S    
C425  C434  S    
C222  H302  S    
C436  C437  A    
C521  C539  A    
C199  H282  S    
C284  H50   S    
C135  O70   A    
C261  H30   S    
C469  H203  S    
C66   C77   A    
C205  C206  A    
C456  H193  S    
C219  H299  S    
C190  C278  S    
C96   C115  A    
C492  O26   D    
C328  C329  A    
C214  C215  A    
C23   C531  A    
C492  O27   S    
C288  C289  A    
Cu5   O85   S    
C46   N3    S    
C226  C227  A    
C340  H95   S    
C18   C508  S    
C196  C197  A    
C69   C95   A    
C71   C76   A    
C2    N7    S    
Cu3   O67   S    
C375  C376  A    
C475  H208  S    
C63   C74   A    
C61   C74   A    
C268  C446  A    
C393  C394  A    
C358  H110  S    
C344  H99   S    
Cu1   Cu6   S    
C519  C537  A    
C379  C392  S    
C448  C449  A    
C473  C474  A    
C256  H27   S    
C280  C281  A    
Cu5   Cu7   S    
C38   O77   S    
C365  C366  A    
C416  C417  A    
C485  O12   D    
C197  H281  S    
C483  O8    D    
C117  C172  S    
C417  H161  S    
C474  C475  A    
C57   C111  A    
C38   C53   A    
C449  H186  S    
C460  H195  S    
C258  H28   S    
C486  C541  S    
C234  H8    S    
C348  C349  A    
C194  H278  S    
H216  O9    S    
C22   C532  A    
C290  C515  A    
C193  H277  S    
C48   C67   A    
C493  O29   S    
C350  C351  A    
C97   C142  S    
C482  C537  S    
C35   C107  A    
C151  O112  S    
H226  O27   S    
C24   N5    S    
C531  H230  S    
C150  O109  D    
C187  C188  A    
C235  C509  A    
C505  C512  S    
C200  C202  A    
C321  C322  A    
C426  C427  A    
C359  C360  A    
C36   C55   A    
C11   C537  A    
C271  H39   S    
C79   O62   A    
C64   C91   A    
C24   C104  A    
C409  C410  A    
C405  C406  A    
C54   C81   A    
C501  O37   A    
C257  C511  A    
C380  C381  A    
C307  H69   S    
C165  C171  A    
C268  C325  S    
C349  C350  A    
C40   C60   A    
C352  C358  A    
C388  H137  S    
C21   C511  S    
C497  C504  A    
C8    C538  A    
C60   C73   A    
Cu10  O13   S    
C69   C77   A    
C419  C420  A    
Cu9   O35   S    
C481  O5    S    
C47   C62   A    
C370  C371  A    
C313  C314  A    
H220  O18   S    
C15   C544  A    
C167  C169  A    
C28   O43   A    
C429  C430  A    
C113  O59   A    
C128  C239  S    
C91   H24   S    
C324  H83   S    
C148  O104  D    
C249  C250  A    
C293  C294  A    
Cu11  O50   S    
Cu1   O45   S    
C279  C457  A    
C254  H25   S    
C184  H270  S    
C274  C275  A    
C330  H88   S    
C95   H68   S    
C159  C160  A    
C261  C262  A    
C278  C280  A    
C104  C122  A    
C170  C171  A    
C399  C400  A    
C236  C237  A    
C110  C129  A    
C241  C242  A    
C9    C79   S    
C189  C191  A    
H228  O31   S    
C374  C375  A    
C315  H75   S    
C110  C155  S    
C61   C87   A    
C435  H175  S    
C182  C183  A    
C43   N5    A    
C388  C389  A    
C26   O38   A    
C46   C108  A    
C149  O106  D    
C416  H160  S    
C180  C181  A    
C425  C430  A    
C464  H199  S    
C454  C455  A    
C346  C372  S    
C368  C385  S    
C233  C234  A    
C259  C260  A    
C209  H291  S    
C125  C218  S    
Cu2   O61   S    
C90   O57   A    
C147  O103  S    
C339  C344  A    
C338  H94   S    
C455  H192  S    
Cu2   O64   S    
C70   C77   A    
C18   C524  A    
C448  H185  S    
C32   O51   A    
C195  H279  S    
C72   C75   A    
C469  C470  A    
C480  O128  D    
C210  H292  S    
C360  C361  A    
Cu3   O65   S    
C29   C136  S    
C273  C274  A    
C115  C132  A    
C266  H34   S    
C517  H90   S    
C487  O18   S    
C14   C124  S    
C267  H36   S    
C335  C365  S    
C362  H115  S    
C124  O65   A    
C335  C513  A    
C53   C80   A    
Cu2   Cu12  S    
C332  C333  A    
C279  C514  A    
C36   O75   S    
C394  C395  A    
C146  O69   A    
C334  O85   A    
C37   C52   A    
C470  C471  A    
C229  H4    S    
C222  C225  A    
H215  O7    S    
C89   H13   S    
C309  H71   S    
C45   O84   S    
C213  H293  S    
C201  C379  A    
H244  O116  S    
C304  H66   S    
C59   C85   A    
C124  O71   A    
C221  C222  A    
C35   C105  A    
Cu5   O44   S    
H247  O123  S    
C102  C147  S    
C41   O80   S    
C431  C432  A    
C141  O91   D    
C100  C145  S    
C216  C217  A    
C518  C536  A    
C63   C89   A    
C249  H20   S    
C356  C358  A    
C209  C210  A    
C366  H118  S    
C224  C510  A    
C403  C404  A    
C240  H12   S    
C100  C119  A    
C246  C508  A    
C524  H157  S    
C408  C409  A    
C26   C132  S    
C47   N6    A    
C465  C471  A    
C66   C93   A    
Cu3   O68   S    
C118  C178  S    
C484  C539  S    
Cu8   Cu10  S    
C429  H171  S    
C445  O34   A    
C193  C194  A    
C454  H191  S    
C181  H267  S    
C157  O72   A    
C403  H149  S    
C319  C320  A    
C173  H260  S    
C436  H176  S    
C13   C103  A    
C290  C339  S    
C4    C529  A    
Cu1   O38   S    
C355  C356  A    
Cu9   O2    S    
C156  O122  D    
C402  C403  A    
C355  H108  S    
C480  O3    S    
C472  C497  S    
C211  C213  A    
C167  H256  S    
C175  H263  S    
C419  H162  S    
C12   C542  A    
C186  H271  S    
C270  C271  A    
C164  H254  S    
C112  C499  S    
C452  C453  A    
H237  O103  S    
C302  H64   S    
C2    C99   A    
H248  O125  S    
C262  C263  A    
C351  H105  S    
C320  C321  A    
C195  C196  A    
C392  C397  A    
C239  C244  A    
C123  C137  A    
C318  C324  A    
C431  C437  A    
C438  C439  A    
C231  H6    S    
C22   C526  A    
C311  C313  A    
C186  C187  A    
C277  H44   S    
C494  O31   S    
C20   C519  A    
C493  O28   D    
C246  C311  S    
C530  H224  S    
Cu12  O57   S    
C402  H148  S    
C478  O127  S    
C40   N4    A    
Cu11  O55   S    
C46   C106  A    
C527  H190  S    
Cu6   O52   S    
C127  C232  S    
C64   C75   A    
Cu9   O53   S    
C438  C443  A    
C335  C497  A    
C350  H104  S    
C143  O97   S    
C50   C65   A    
C55   C71   A    
C1    O74   A    
C281  H47   S    
C365  C371  A    
C348  H102  S    
C483  O9    S    
C368  C500  A    
C367  H119  S    
C276  C277  A    
C449  C450  A    
C501  C504  S    
C283  C284  A    
C230  H5    S    
C159  C164  A    
C252  C253  A    
C30   O49   A    
C49   C69   A    
C380  H129  S    
C442  C443  A    
C152  O114  S    
C27   O39   A    
C242  H15   S    
C255  C256  A    
C321  H81   S    
C407  H152  S    
C461  H196  S    
C126  C137  A    
C382  C383  A    
C523  O35   A    
C296  H60   S    
C40   O79   S    
C73   C74   A    
C174  H262  S    
Cu3   Cu4   S    
C465  C496  S    
C314  H74   S    
C86   H283  S    
C336  C337  A    
C488  O19   D    
C168  C265  S    
C490  C506  A    
C85   H272  S    
C161  C162  A    
C399  H145  S    
C204  H287  S    
C220  C221  A    
C263  C264  A    
C126  C226  S    
C213  C214  A    
C428  C429  A    
C166  H255  S    
C105  C150  S    
C144  O99   S    
C341  H96   S    
C421  C422  A    
C65   C76   A    
C236  H9    S    
C444  C447  A    
C28   C134  S    
C31   O48   A    
C427  C428  A    
C239  C240  A    
C7    C495  S    
C238  H11   S    
C369  C370  A    
C334  C502  S    
C294  C295  A    
C414  H158  S    
C489  C544  S    
C179  C357  A    
C473  H206  S    
C130  C139  A    
C250  H21   S    
C191  H276  S    
C94   H57   S    
C323  C496  A    
C176  H264  S    
C39   O78   S    
C190  C368  A    
C440  C441  A    
C370  H121  S    
C312  C352  S    
C169  C170  A    
C300  H63   S    
C326  H84   S    
C50   O89   S    
C169  H257  S    
C477  H210  S    
C114  C158  S    
Cu8   O118  S    
C96   C141  S    
C385  C391  A    
C171  H259  S    
C142  O93   D    
C178  C184  A    
C361  H114  S    
C2    C97   A    
C208  C209  A    
C433  C435  A    
C21   C529  A    
C20   C521  A    
C458  H194  S    
C363  C364  A    
Cu7   O42   S    
C487  C542  S    
C328  H86   S    
C263  H32   S    
C127  C138  A    
C121  C134  A    
C345  C347  A    
H246  O121  S    
C9    C541  A    
C59   C72   A    
Cu10  O34   S    
C413  H156  S    
C3    C491  S    
C288  H53   S    
C194  C195  A    
C245  C251  A    
C489  O21   D    
C315  C316  A    
C294  H58   S    
C30   C137  S    
C269  C270  A    
Cu7   O107  S    
C369  H120  S    
Cu9   Cu11  S    
C122  C205  S    
C312  C490  A    
C161  H251  S    
Cu9   O48   S    
C52   C78   A    
C82   H239  S    
C247  H18   S    
C476  C477  A    
C203  H286  S    
C300  C302  A    
C451  H188  S    
C349  H103  S    
C466  H200  S    
C211  C217  A    
C421  H164  S    
C406  H151  S    
C218  C219  A    
C216  H297  S    
C323  C359  S    
C207  C208  A    
C27   C133  S    
C99   C144  S    
H241  O110  S    
C377  H128  S    
C396  C397  A    
C107  C126  A    
C459  C490  S    
C188  H274  S    
C259  C264  A    
C219  C220  A    
C397  H144  S    
C518  H101  S    
Cu6   O40   S    
C445  O118  A    
C260  C261  A    
C384  H133  S    
C333  H91   S    
C10   C536  A    
C154  O119  S    
C173  C174  A    
C293  H56   S    
C382  H131  S    
C447  C448  A    
C115  C159  S    
C120  C136  A    
C301  C479  A    
H219  O16   S    
C485  C540  S    
C78   H1    S    
C303  H65   S    
C439  C440  A    
C119  C185  S    
H232  O92   S    
C447  H184  S    
C175  C176  A    
C379  C502  A    
C474  H207  S    
C389  H138  S    
C109  C128  A    
C339  C340  A    
C482  O6    D    
C39   C59   A    
C242  C243  A    
C21   C525  A    
C325  C330  A    
C367  C369  A    
C272  C277  A    
C522  H146  S    
C192  C197  A    
C97   C116  A    
C6    C494  S    
C23   C527  A    
Cu4   O69   S    
C290  C468  A    
C8    C113  S    
C301  C511  A    
C131  C259  S    
C150  O110  S    
C418  C419  A    
C423  C499  A    
C245  C247  A    
Cu5   O39   S    
C414  C415  A    
H240  O108  S    
C116  C165  S    
C187  H273  S    
C312  C515  A    
C8    C533  A    
C468  C506  A    
C483  C538  S    
C295  C296  A    
C102  C120  A    
C248  C249  A    
C484  O11   S    
C385  C386  A    
C522  C540  A    
C13   N6    S    
Cu12  O59   S    
C285  C291  A    
C307  C308  A    
C495  O33   S    
C106  C151  S    
C386  H134  S    
C79   O56   A    
C462  C463  A    
C19   C509  S    
C23   C514  S    
C392  C393  A    
H222  O22   S    
C86   C89   A    
C310  H72   S    
C506  C523  S    
C190  C509  A    
C178  C180  A    
C353  H106  S    
C376  C377  A    
C519  H113  S    
C130  C252  S    
C395  H142  S    
C459  C464  A    
C446  C504  A    
C357  C378  S    
C57   N2    S    
C31   C138  S    
C254  C255  A    
C386  C387  A    
C265  C271  A    
C532  H231  S    
C327  C328  A    
C207  H289  S    
C160  H249  S    
C192  C193  A    
C444  C468  S    
C343  C344  A    
C185  C186  A    
C253  C254  A    
C233  H7    S    
C428  H170  S    
C311  C317  A    
C157  O68   A    
C45   C61   A    
C232  C233  A    
C83   H250  S    
Cu2   O62   S    
C220  H300  S    
C24   C102  A    
C354  H107  S    
C153  O116  S    
C42   O81   S    
C325  C326  A    
C106  C125  A    
C274  H41   S    
C534  N8    S    
C7    C532  A    
C90   O61   A    
C437  H177  S    
C434  C503  A    
Cu12  O56   S    
Cu5   O41   S    
C424  H166  S    
C246  C423  A    
C394  H141  S    
C88   H2    S    
C460  C461  A    
C10   C90   S    
C524  C541  A    
C456  C458  A    
C87   H294  S    
C98   C534  A    
C463  H198  S    
C411  C412  S    
C81   H223  S    
C406  C407  A    
C151  O111  D    
C455  C456  A    
C486  O15   D    
C78   C93   A    
C408  H153  S    
C3    C528  A    
Cu2   O60   S    
C112  O41   A    
C104  C149  S    
C65   C92   A    
C371  H122  S    
C203  C204  A    
C165  C166  A    
C516  C533  A    
C80   H112  S    
C1    O1    A    
C98   C143  S    
C327  H85   S    
C438  C457  S    
C329  C330  A    
C287  H52   S    
C163  C164  A    
C84   C87   A    
C526  C543  A    
C331  C332  A    
Cu8   O54   S    
C257  C318  S    
C38   N2    A    
C431  C446  S    
C225  H303  S    
C85   C91   A    
C37   N1    A    
C155  O120  D    
H243  O114  S    
C341  C342  A    
C309  C310  A    
C154  O117  D    
Cu10  O51   S    
C141  O92   S    
C158  O125  S    
C39   N3    A    
C410  H155  S    
C487  O17   D    
C51   O90   S    
C148  O105  S    
C305  C306  A    
C205  C210  A    
C404  H150  S    
C292  C293  A    
C117  C132  A    
C101  O58   A    
C432  H173  S    
C120  C192  S    
C405  C410  A    
C84   H261  S    
C185  C191  A    
C283  H49   S    
C15   C135  S    
C270  H38   S    
C33   C140  S    
Cu7   O63   S    
C226  C231  A    
C181  C182  A    
C495  O32   D    
C316  H76   S    
C491  O25   S    
C16   C146  S    
C383  H132  S    
C168  C507  A    
C227  C228  A    
C240  C241  A    
C364  H117  S    
C158  O124  D    
C412  C500  A    
Cu8   O47   S    
C168  C346  A    
C6    C15   A    
C174  C175  A    
C396  H143  S    
C7    C14   A    
C390  C498  A    
C523  O24   A    
C112  O107  A    
C93   H46   S    
C5    C16   A    
C286  H51   S    
C123  C211  S    
C407  C408  A    
C251  H22   S    
C295  H59   S    
C198  C199  A    
C202  H285  S    
C111  C156  S    
H213  O3    S    
C218  C225  A    
C336  H92   S    
H225  O25   S    
C450  C451  A    
C34   O73   S    
C278  C284  A    
C49   N8    A    
C422  C424  A    
C179  C508  A    
C373  H123  S    
C439  H178  S    
C357  C499  A    
C241  H14   S    
Cu7   O46   S    
C103  C148  S    
Cu11  O37   S    
H245  O119  S    
C343  H98   S    
C121  C198  S    
H236  O101  S    
C68   C114  A    
C1    C498  S    
C273  H40   S    
C25   C515  S    
C36   N2    A    
C526  H179  S    
C30   O47   A    
C144  O98   D    
C227  H304  S    
C400  C402  A    
C248  H19   S    
C475  C476  A    
C471  H205  S    
C299  C300  A    
C286  C287  A    
C470  H204  S    
C5    C530  A    
H227  O29   S    
C479  C503  A    
C281  C282  A    
Cu11  O24   S    
C230  C231  A    
C362  C363  A    
C342  H97   S    
C256  C258  A    
C188  C189  A    
C478  C533  S    
C237  H10   S    
C345  C351  A    
C329  H87   S    
C183  C184  A    
C461  C462  A    
C318  C319  A    
C58   C84   A    
C25   C530  A    
C390  C398  S    
Cu12  O58   S    
C257  C434  A    
C306  H67   S    
C415  C416  A    
C517  C535  A    
C34   N1    A    
C11   C539  A    
C433  H174  S    
C332  H89   S    
C275  H42   S    
C280  H45   S    
C465  C466  A    
C28   O45   A    
Cu4   O71   S    
C92   H35   S    
C298  C304  A    
C35   N4    S    
C55   C82   A    
C50   N7    A    
C359  C364  A    
C118  C133  A    
C297  H61   S    
C145  O100  D    
Cu1   O1    S    
C107  C152  S    
C176  C177  A    
C400  H147  S    
C275  C276  A    
C180  H266  S    
C354  C355  A    
C391  H139  S    
C422  H165  S    
C166  C167  A    
H233  O94   S    
C33   O53   A    
Cu6   O74   S    
C481  O4    D    
C485  O14   S    
C268  C513  A    
C488  C543  S    
C201  C510  A    
C276  H43   S    
C482  O7    S    
Cu3   O66   S    
C267  C269  A    
C308  C309  A    
C98   C117  A    
C317  H77   S    
C289  H54   S    
C265  C266  A    
C10   C540  A    
H221  O20   S    
C235  C305  S    
C302  C303  A    
C296  C297  A    
C223  O52   A    
C149  O108  S    
C44   N6    A    
Cu10  O49   S    
C426  H167  S    
C101  O60   A    
C279  C331  S    
C488  O20   S    
C521  H135  S    
C25   C528  A    
C285  C286  A    
C247  C248  A    
C331  C338  A    
C484  O10   D    
C223  O96   A    
C67   C76   A    
C361  C362  A    
H214  O5    S    
C457  C505  A    
C466  C467  A    
C196  H280  S    
C491  O23   D    
C160  C161  A    
C13   C100  A    
C346  C498  A    
C418  C424  A    
C496  C505  A    
C347  C348  A    
C373  C374  A    
C99   C118  A    
H229  O33   S    
C243  H16   S    
C4    C492  S    
C356  H109  S    
C212  C390  A    
C441  C442  A    
C129  C140  A    
C17   C520  A    
C291  H55   S    
C381  H130  S    
C170  H258  S    
C289  C291  A    
C481  C536  S    
C199  C200  A    
C108  C127  A    
C378  C384  A    
C453  C454  A    
C182  H268  S    
C237  C238  A    
C250  C251  A    
C323  C514  A    
C52   C70   A    
C266  C267  A    
C3    C16   A    
C320  H80   S    
C435  C436  A    
C155  O121  S    
C163  H253  S    
C322  H82   S    
C215  C216  A    
C313  H73   S    
C214  H295  S    
C48   O87   S    
C212  C507  A    
C29   O46   A    
C145  O101  S    
C31   O50   A    
C453  H189  S    
C398  C399  A    
C224  C298  S    
C409  H154  S    
C374  H125  S    
C366  C367  A    
C29   O44   A    
C452  C458  A    
C17   C507  S    
C401  C405  S    
C387  C388  A    
C58   C73   A    
C224  C401  A    
C217  H298  S    
C113  O64   A    
C299  H62   S    
C53   C71   A    
