data_mof_unit_64952.cif
_audit_creation_date              2012-10-26T18:46:11-0400
_audit_creation_method            fapswitch 2.2
_symmetry_space_group_name_H-M    P1
_symmetry_Int_Tables_number       1
_space_group_crystal_system       triclinic
_cell_length_a                    13.902545
_cell_length_b                    16.541703
_cell_length_c                    17.860632
_cell_angle_alpha                 90.48387
_cell_angle_beta                  92.251934
_cell_angle_gamma                 84.220499
_cell_volume                      4083.36459574

loop_
_atom_site_label
_atom_site_type_symbol
_atom_type_description
_atom_site_fract_x
_atom_site_fract_y
_atom_site_fract_z
_atom_type_partial_charge
C1    C     C_R   0.494247 0.500916 0.644620 0.546875
C2    C     C_R   0.568512 0.824337 0.542239 -0.128600
C3    C     C_R   0.432335 0.261065 0.457753 0.123244
C4    C     C_R   0.567646 0.738935 0.542266 0.123245
C5    C     C_R   0.568955 0.250591 0.542283 0.191672
C6    C     C_R   0.431062 0.749407 0.457700 0.191679
C7    C     C_R   0.569187 0.164437 0.543608 -0.039548
C8    C     C_R   0.430829 0.835560 0.456378 -0.039547
C9    C     C_R   0.499768 0.126319 0.500826 -0.013340
C10   C     C_R   0.500227 0.873681 0.499181 -0.013339
C11   C     C_1   0.499417 0.037072 0.499982 0.028293
C12   C     C_R   0.505755 0.499083 0.355380 0.546866
C13   C     C_1   0.500576 0.962928 0.500026 0.028293
C14   C     C_R   0.683165 0.486559 0.500113 0.560016
C15   C     C_R   0.316835 0.513440 0.499887 0.560024
C16   C     C_1   0.213919 0.522189 0.500508 0.041018
C17   C     C_1   0.786081 0.477811 0.499492 0.040999
C18   C     C_2   0.023442 0.533841 0.502215 -0.027240
C19   C     C_2   0.976558 0.466158 0.497785 -0.027240
C20   C     C_1   0.872778 0.471490 0.498758 -0.013686
C21   C     C_1   0.127222 0.528509 0.501242 -0.013683
C22   C     C_R   0.510987 0.423585 0.151763 0.038335
C23   C     C_R   0.531772 0.568350 0.153912 -0.039700
C24   C     C_R   0.489014 0.576423 0.848235 0.038315
C25   C     C_R   0.512933 0.423079 0.230728 -0.047661
C26   C     C_R   0.487042 0.576926 0.769269 -0.047662
C27   C     C_R   0.516769 0.496918 0.272127 -0.048510
C28   C     C_R   0.483245 0.503079 0.727875 -0.048513
C29   C     C_R   0.533742 0.568299 0.232718 -0.040149
C30   C     C_R   0.466332 0.431686 0.767290 -0.040146
C31   C     C_1   0.027913 0.385932 0.491646 0.248383
C32   C     C_1   0.972086 0.614067 0.508354 0.248378
C33   C     C_2   0.504464 0.346611 0.108689 0.590820
C34   C     C_R   0.468328 0.431636 0.846095 -0.039720
C35   C     C_2   0.495489 0.653408 0.891305 0.590834
C36   C     C_1   0.520600 0.344770 0.267626 0.297745
C37   C     C_1   0.479301 0.655235 0.732365 0.297752
C38   C     C_1   0.559454 0.640857 0.271870 0.291428
C39   C     C_1   0.440653 0.359111 0.728147 0.291435
C40   C     C_1   0.546423 0.641993 0.113923 0.256434
C41   C     C_1   0.453740 0.357978 0.886088 0.256416
C42   C     C_1   0.361601 0.307058 0.409882 0.297322
C43   C     C_1   0.638363 0.692940 0.590150 0.297314
C44   C     C_2   0.647800 0.286059 0.584838 0.630253
C45   C     C_R   0.516610 0.497044 0.113893 -0.022473
C46   C     C_2   0.352245 0.713934 0.415117 0.630255
C47   C     C_1   0.641256 0.115111 0.588864 0.241140
C48   C     C_1   0.358777 0.884884 0.411105 0.241138
C49   C     C_R   0.483457 0.502953 0.886110 -0.022475
C50   C     C_1   0.505173 0.499308 0.033477 0.068096
C51   C     C_1   0.494912 0.500691 0.966525 0.068100
C52   C     C_R   0.431468 0.175664 0.457783 -0.128601
Cu1   Cu    Cu3+1 0.500000 0.419580 0.500020 1.044311
Cu2   Cu    Cu3+1 0.500000 0.580420 0.499980 1.044320
H1    H     H_    0.377630 0.147641 0.423620 0.141374
H2    H     H_    0.622335 0.852360 0.576417 0.141372
H3    H     H_    0.437811 0.244656 0.092893 0.365718
H4    H     H_    0.562009 0.755446 0.907045 0.365710
H5    H     H_    0.694152 0.335615 0.681467 0.341628
H6    H     H_    0.305937 0.664424 0.318454 0.341644
N1    N     N_R   0.500030 0.298780 0.500030 -0.267038
N2    N     N_1   0.441771 0.299179 0.917582 -0.205379
N3    N     N_1   0.304542 0.343426 0.371034 -0.256529
N4    N     N_1   0.695408 0.656570 0.629008 -0.256543
N5    N     N_1   0.698706 0.075745 0.624955 -0.222612
N6    N     N_1   0.301342 0.924249 0.375000 -0.222611
N7    N     N_R   0.499970 0.701220 0.499970 -0.267043
N8    N     N_1   0.069039 0.321827 0.486725 -0.232985
N9    N     N_1   0.930961 0.678172 0.513275 -0.232988
N10   N     N_1   0.527862 0.281765 0.296145 -0.244601
N11   N     N_1   0.471981 0.718236 0.703839 -0.244578
N12   N     N_1   0.580397 0.698754 0.302731 -0.232205
N13   N     N_1   0.419735 0.301201 0.697294 -0.232225
N14   N     N_1   0.558441 0.700779 0.082431 -0.205404
O1    O     O_R   0.500010 0.432070 0.608760 -0.467109
O2    O     O_R   0.434704 0.295052 0.125758 -0.658402
O3    O     O_2   0.439251 0.671765 0.941059 -0.480800
O4    O     O_R   0.565146 0.705047 0.874180 -0.658392
O5    O     O_2   0.727818 0.283492 0.558293 -0.496660
O6    O     O_R   0.633982 0.314645 0.657742 -0.675201
O7    O     O_2   0.272223 0.716462 0.441648 -0.496654
O8    O     O_R   0.366091 0.685400 0.342200 -0.675218
O9    O     O_R   0.499990 0.567930 0.391240 -0.467136
O10   O     O_R   0.500000 0.567880 0.608730 -0.503263
O11   O     O_R   0.500000 0.432120 0.391270 -0.503259
O12   O     O_R   0.637850 0.422490 0.500000 -0.475350
O13   O     O_R   0.362150 0.577510 0.500000 -0.475332
O14   O     O_R   0.637840 0.558310 0.499970 -0.505030
O15   O     O_R   0.362160 0.441690 0.500030 -0.505044
O16   O     O_2   0.560749 0.328196 0.058981 -0.480769

loop_
_geom_bond_atom_site_label_1
_geom_bond_atom_site_label_2
_ccdc_geom_bond_type
C3    C42   S    
C16   C21   T    
C23   C45   A    
C27   C29   A    
C18   C21   S    
C19   C20   S    
C19   C31   S    
Cu2   O10   S    
Cu1   Cu2   S    
C1    O10   A    
C9    C52   A    
C12   O11   A    
C23   C29   A    
H3    O2    S    
C24   C26   A    
Cu2   O13   S    
C23   C40   S    
C17   C20   T    
C18   C19   D    
C46   O8    S    
Cu1   N1    S    
C49   C51   S    
C22   C25   A    
C29   C38   S    
C1    C28   S    
Cu1   O12   S    
C52   H1    S    
C14   C17   S    
Cu1   O1    S    
C34   C41   S    
H6    O8    S    
C41   N2    T    
Cu2   O9    S    
C36   N10   T    
C43   N4    T    
C3    N1    A    
C31   N8    T    
C38   N12   T    
C24   C35   S    
C30   C34   A    
C12   C27   S    
C1    O1    A    
C44   O6    S    
C14   O12   A    
C5    C7    A    
C6    C8    A    
Cu2   N7    S    
C35   O3    D    
C12   O9    A    
C7    C47   S    
C2    C4    A    
C8    C48   S    
C15   O15   A    
C46   O7    D    
C33   O2    S    
C50   C51   T    
C5    N1    A    
C9    C11   S    
C6    N7    A    
C5    C44   S    
C37   N11   T    
Cu1   O15   S    
C18   C32   S    
C2    C10   A    
C15   O13   A    
C24   C49   A    
C7    C9    A    
C22   C33   S    
C34   C49   A    
C6    C46   S    
C44   O5    D    
C10   C13   S    
H5    O6    S    
C4    N7    A    
C3    C52   A    
C26   C37   S    
C32   N9    T    
C4    C43   S    
C25   C27   A    
C35   O4    S    
C26   C28   A    
C28   C30   A    
C14   O14   A    
C2    H2    S    
C33   O16   D    
Cu2   O14   S    
C11   C13   T    
C45   C50   S    
C40   N14   T    
C30   C39   S    
C39   N13   T    
H4    O4    S    
C25   C36   S    
C22   C45   A    
C8    C10   A    
Cu1   O11   S    
C48   N6    T    
C42   N3    T    
C47   N5    T    
C15   C16   S    
