data_mof_unit_22210.cif
_audit_creation_date              2012-10-26T19:17:53-0400
_audit_creation_method            fapswitch 2.2
_symmetry_space_group_name_H-M    P1
_symmetry_Int_Tables_number       1
_space_group_crystal_system       triclinic
_cell_length_a                    10.783516
_cell_length_b                    12.391475
_cell_length_c                    13.228135
_cell_angle_alpha                 117.110153
_cell_angle_beta                  75.806989
_cell_angle_gamma                 101.496811
_cell_volume                      1517.48715317

loop_
_atom_site_label
_atom_site_type_symbol
_atom_type_description
_atom_site_fract_x
_atom_site_fract_y
_atom_site_fract_z
_atom_type_partial_charge
C1    C     C_R   0.513863 0.855027 0.286489 0.559452
C2    C     C_R   0.304701 0.230926 0.280783 0.377916
C3    C     C_R   0.378064 0.144250 0.187412 -0.073571
C4    C     C_R   0.736972 0.001589 0.502280 0.579167
C5    C     C_R   0.356220 0.022250 0.169295 -0.152962
C6    C     C_R   0.261867 0.986890 0.245170 -0.076689
C7    C     C_R   0.188354 0.073697 0.339589 -0.005679
C8    C     C_R   0.314350 0.285070 0.020660 -0.114215
C9    C     C_R   0.454802 0.228201 0.835607 -0.007528
C10   C     C_R   0.625232 0.809431 0.087735 -0.131189
C11   C     C_R   0.664326 0.726497 0.975287 -0.137492
C12   C     C_R   0.614519 0.849992 0.803967 -0.110526
C13   C     C_R   0.612391 0.605439 0.936779 -0.112784
C14   C     C_R   0.516396 0.564857 0.010256 0.040304
C15   C     C_R   0.469301 0.652328 0.122185 0.031757
C16   C     C_R   0.481272 0.144960 0.713529 0.530298
C17   C     C_R   0.465737 0.440582 0.976749 0.028534
C18   C     C_R   0.364447 0.407386 0.052254 0.066335
C19   C     C_R   0.311476 0.496856 0.156880 -0.084887
C20   C     C_R   0.361603 0.617680 0.190602 -0.109911
C21   C     C_R   0.511618 0.347986 0.869878 -0.131866
C22   C     C_R   0.359210 0.195684 0.912520 -0.154541
C23   C     C_R   0.036039 0.957002 0.568666 -0.150013
C24   C     C_R   0.531032 0.772754 0.162998 0.006770
C25   C     C_R   0.703479 0.339381 0.321950 -0.147837
C26   C     C_R   0.327097 0.761823 0.648839 0.068093
C27   C     C_R   0.289827 0.667161 0.682414 0.342352
C28   C     C_R   0.263049 0.998364 0.497667 0.532569
C29   C     C_R   0.354822 0.562954 0.625909 -0.094287
C30   C     C_R   0.459104 0.551729 0.534527 -0.084801
C31   C     C_R   0.495202 0.651498 0.502601 0.171173
C32   C     C_R   0.529247 0.445584 0.474346 0.009829
C33   C     C_R   0.632767 0.440442 0.383264 -0.003778
C34   C     C_R   0.129292 0.996317 0.494832 0.003951
C35   C     C_R   0.666869 0.536340 0.353375 -0.098450
C36   C     C_R   0.602375 0.639274 0.410772 0.413423
C37   C     C_R   0.502116 0.342944 0.499499 0.068305
C38   C     C_R   0.672205 0.242489 0.351174 0.050059
C39   C     C_R   0.637388 0.972630 0.824391 -0.093778
C40   C     C_R   0.735360 0.009854 0.752088 -0.066917
C41   C     C_R   0.811233 0.924222 0.658778 0.049630
C42   C     C_R   0.789675 0.801596 0.640396 -0.066878
C43   C     C_R   0.691180 0.764703 0.712600 -0.121015
C44   C     C_R   0.093443 0.037975 0.423913 -0.025781
C45   C     C_R   0.963977 0.042257 0.430833 -0.138757
C46   C     C_R   0.870760 0.003215 0.504820 0.012636
C47   C     C_R   0.906572 0.961142 0.575461 -0.028304
C48   C     C_R   0.209566 0.195807 0.356359 -0.062267
Cu1   Cu    Cu3+1 0.529370 0.098270 0.475420 0.940061
Cu2   Cu    Cu3+1 0.470630 0.901730 0.524580 1.009037
F1    F     F_    0.190054 0.676456 0.770415 -0.646313
F2    F     F_    0.654401 0.722725 0.370916 -0.615240
F3    F     F_    0.326914 0.349405 0.299011 -0.667687
H1    H     H_    0.537397 0.821053 0.858958 0.122338
H2    H     H_    0.649166 0.546870 0.848756 0.104871
H3    H     H_    0.738851 0.755346 0.918546 0.140063
H4    H     H_    0.578058 0.038566 0.895269 0.104373
H5    H     H_    0.313345 0.683832 0.270391 0.132169
H6    H     H_    0.782613 0.335534 0.251995 0.091019
H7    H     H_    0.424768 0.337241 0.566618 0.115245
H8    H     H_    0.276226 0.842470 0.693354 0.137672
H9    H     H_    0.321593 0.492595 0.655620 0.129299
H10   H     H_    0.846411 0.734230 0.568236 0.116911
H11   H     H_    0.673275 0.669733 0.696924 0.106336
H12   H     H_    0.452004 0.171578 0.129219 0.127222
H13   H     H_    0.064231 0.926748 0.624149 0.131023
H14   H     H_    0.935726 0.072320 0.375234 0.126595
H15   H     H_    0.154542 0.263963 0.429366 0.128948
H16   H     H_    0.725748 0.163591 0.304441 0.117014
H17   H     H_    0.747113 0.532546 0.284076 0.141051
H18   H     H_    0.750286 0.104665 0.767087 0.093489
H19   H     H_    0.413161 0.955272 0.097034 0.116873
H20   H     H_    0.247108 0.892428 0.231325 0.110350
H21   H     H_    0.314244 0.102953 0.886706 0.126486
H22   H     H_    0.230323 0.473459 0.212864 0.154772
H23   H     H_    0.237204 0.259290 0.077982 0.134506
H24   H     H_    0.588976 0.366410 0.809054 0.117897
H25   H     H_    0.673038 0.901310 0.117317 0.125510
N1    N     N_R   0.573890 0.246290 0.438210 -0.235814
N2    N     N_R   0.426890 0.754320 0.561170 -0.269379
O1    O     O_R   0.536940 0.972510 0.318130 -0.516146
O2    O     O_R   0.487330 0.806530 0.359650 -0.421490
O3    O     O_R   0.705160 0.082990 0.479250 -0.522401
O4    O     O_R   0.655550 0.917010 0.520760 -0.409197
O5    O     O_R   0.512670 0.193470 0.640350 -0.511703
O6    O     O_R   0.463060 0.027490 0.681870 -0.516661
O7    O     O_R   0.344450 0.082990 0.479240 -0.495172
O8    O     O_R   0.294840 0.917010 0.520750 -0.529775

loop_
_geom_bond_atom_site_label_1
_geom_bond_atom_site_label_2
_ccdc_geom_bond_type
C40   H18   S    
C27   C29   A    
C41   C42   A    
Cu1   O7    S    
C19   C20   A    
C10   H25   S    
Cu2   O4    S    
C31   N2    A    
C4    C46   S    
C45   C46   A    
C37   N1    A    
C26   C27   A    
C23   H13   S    
C26   H8    S    
C5    H19   S    
C5    C6    A    
C9    C22   A    
C38   N1    A    
C1    O1    A    
C39   H4    S    
C8    H23   S    
C18   C19   A    
Cu1   O1    S    
C46   C47   A    
C35   C36   A    
C35   H17   S    
C45   H14   S    
C8    C22   A    
C36   F2    S    
Cu2   O8    S    
C38   H16   S    
C28   C34   S    
C13   C14   A    
C16   O6    A    
C14   C17   A    
C3    H12   S    
C27   F1    S    
C43   H11   S    
C15   C20   A    
C23   C47   A    
Cu1   O5    S    
C34   C44   A    
C39   C40   A    
C2    C48   A    
C1    O2    A    
C7    C44   S    
C26   N2    A    
Cu1   N1    S    
C28   O8    A    
C29   C30   A    
C25   C38   A    
C4    O4    A    
C23   C34   A    
C28   O7    A    
C17   C18   A    
C41   C47   S    
C32   C37   A    
C48   H15   S    
C40   C41   A    
C16   O5    A    
C42   C43   A    
C22   H21   S    
C20   H5    S    
C44   C45   A    
Cu2   O2    S    
C6    H20   S    
C29   H9    S    
C15   C24   A    
C31   C36   A    
C9    C16   S    
C3    C5    A    
C2    F3    S    
Cu2   N2    S    
C6    C7    A    
C12   C43   A    
C10   C24   A    
C7    C48   A    
Cu1   O3    S    
C12   C39   A    
C19   H22   S    
C2    C3    A    
C32   C33   A    
C30   C32   A    
C11   C13   A    
C9    C21   A    
C30   C31   A    
C4    O3    A    
C33   C35   A    
C8    C18   A    
C37   H7    S    
C10   C11   A    
Cu2   O6    S    
C1    C24   S    
Cu1   Cu2   S    
C21   H24   S    
C14   C15   A    
C25   H6    S    
C42   H10   S    
C12   H1    S    
C11   H3    S    
C25   C33   A    
C13   H2    S    
C17   C21   A    
