data_mof_unit_23620.cif
_audit_creation_date              2012-12-10T19:03:07-0500
_audit_creation_method            fapswitch 2.2
_symmetry_space_group_name_H-M    P1
_symmetry_Int_Tables_number       1
_space_group_crystal_system       triclinic
_cell_length_a                    10.752301
_cell_length_b                    10.840153
_cell_length_c                    9.546298
_cell_angle_alpha                 90.553169
_cell_angle_beta                  90.130055
_cell_angle_gamma                 90.204101
_cell_volume                      1112.62205164

loop_
_atom_site_label
_atom_site_type_symbol
_atom_type_description
_atom_site_fract_x
_atom_site_fract_y
_atom_site_fract_z
_atom_type_partial_charge
C1    C     C_R   0.496456 0.262421 0.499294 0.805647
C2    C     C_R   0.467038 0.938395 0.622901 0.128247
C3    C     C_3   0.537701 0.936515 0.757644 -0.495681
C4    C     C_R   0.260016 0.498675 0.499644 0.758716
C5    C     C_3   0.534488 0.076165 0.756947 -0.441584
C6    C     C_R   0.604044 0.533900 0.074395 0.263280
C7    C     C_R   0.401946 0.454205 0.073593 -0.089050
C8    C     C_R   0.401869 0.454340 0.924837 -0.086053
C9    C     C_R   0.604478 0.532729 0.926944 0.298016
C10   C     C_3   0.669446 0.653868 0.922182 -0.509574
C11   C     C_3   0.667625 0.656162 0.080820 -0.498592
C12   C     C_3   0.878728 0.495680 0.501461 0.065273
C13   C     C_R   0.497505 0.737860 0.500275 0.795709
C14   C     C_R   0.740298 0.497628 0.500259 0.754619
C15   C     C_3   0.074706 0.382557 0.580028 -0.430000
C16   C     C_3   0.930414 0.382937 0.585745 -0.124167
C17   C     C_3   0.072657 0.615651 0.570351 -0.356475
C18   C     C_3   0.071010 0.488671 0.347226 -0.371265
C19   C     C_3   0.122434 0.496521 0.499137 0.135816
C20   C     C_2   0.885884 0.376607 0.736262 0.859898
C21   C     C_3   0.929438 0.618738 0.563641 -0.367922
C22   C     C_3   0.928580 0.484494 0.348817 -0.385606
C23   C     C_R   0.465391 0.065476 0.621853 0.115634
C24   C     C_R   0.481726 0.129598 0.497296 -0.097660
C25   C     C_R   0.479732 0.063287 0.370070 -0.222989
C26   C     C_R   0.480736 0.934606 0.370924 -0.218247
C27   C     C_R   0.484134 0.871161 0.498978 -0.100672
Cu1   Cu    Cu3+1 0.499990 0.499980 0.640670 0.951279
Cu2   Cu    Cu3+1 0.500010 0.500020 0.359330 0.932340
H1    H     H_    0.116150 0.381671 0.687030 0.181447
H2    H     H_    0.627871 0.118662 0.744729 0.244102
H3    H     H_    0.321797 0.418557 0.128285 0.141513
H4    H     H_    0.106877 0.296664 0.526659 0.138026
H5    H     H_    0.321627 0.418833 0.869008 0.145147
H6    H     H_    0.764516 0.646555 0.878014 0.221111
H7    H     H_    0.610344 0.725349 0.875304 0.206981
H8    H     H_    0.761981 0.651026 0.127236 0.193852
H9    H     H_    0.607648 0.730092 0.125061 0.207539
H10   H     H_    0.896548 0.297370 0.532236 0.107605
H11   H     H_    0.103156 0.619792 0.681810 0.193863
H12   H     H_    0.893343 0.561657 0.284416 0.177912
H13   H     H_    0.891071 0.637224 0.669512 0.189928
H14   H     H_    0.102458 0.570188 0.286438 0.178900
H15   H     H_    0.106749 0.404616 0.293010 0.165854
H16   H     H_    0.895659 0.396821 0.299317 0.173418
H17   H     H_    0.781898 0.286573 0.878265 0.319711
H18   H     H_    0.111197 0.698488 0.517530 0.143502
H19   H     H_    0.899477 0.696897 0.496837 0.149036
H20   H     H_    0.484500 0.110069 0.270470 0.165735
H21   H     H_    0.485535 0.885738 0.271654 0.160499
H22   H     H_    0.481998 0.896557 0.844151 0.197298
H23   H     H_    0.633345 0.899520 0.744530 0.199657
H24   H     H_    0.476363 0.116369 0.841927 0.193408
N1    N     N_R   0.500800 0.500930 0.147930 -0.189418
N2    N     N_R   0.500800 0.500890 0.852020 -0.190517
O1    O     O_R   0.500000 0.319640 0.618810 -0.566943
O2    O     O_R   0.806152 0.281165 0.775812 -0.790797
O3    O     O_R   0.500010 0.319680 0.381230 -0.588323
O4    O     O_R   0.317690 0.499960 0.618790 -0.594698
O5    O     O_R   0.317700 0.500000 0.381210 -0.595211
O6    O     O_R   0.499990 0.680320 0.618770 -0.578282
O7    O     O_R   0.500000 0.680360 0.381190 -0.583251
O8    O     O_R   0.682300 0.500000 0.618790 -0.566979
O9    O     O_R   0.682310 0.500040 0.381210 -0.585083
O10   O     O_2   0.920348 0.453102 0.823149 -0.635479

loop_
_geom_bond_atom_site_label_1
_geom_bond_atom_site_label_2
_ccdc_geom_bond_type
C11   H9    S    
C23   C24   A    
C10   H6    S    
C9    N2    A    
C18   H15   S    
C9    C10   S    
C15   H1    S    
C5    C23   S    
Cu2   O5    S    
C16   C20   S    
C21   H19   S    
C14   O9    A    
Cu1   O6    S    
C4    O5    A    
C6    C9    A    
C2    C3    S    
Cu1   O1    S    
Cu2   O9    S    
C13   O6    A    
C7    C8    A    
C8    H5    S    
C18   H14   S    
C24   C25   A    
C15   C19   S    
C26   C27   A    
C2    C27   A    
C1    O3    A    
C6    N1    A    
C14   O8    A    
C4    O4    A    
C5    H24   S    
Cu1   Cu2   S    
C17   C19   S    
Cu1   N2    S    
C12   C14   S    
C26   H21   S    
H17   O2    S    
C3    H23   S    
C25   H20   S    
C22   H12   S    
C10   C11   S    
C16   H10   S    
C21   H13   S    
Cu1   O8    S    
C12   C16   S    
C20   O10   D    
C6    C11   S    
C22   H16   S    
C12   C22   S    
Cu2   O3    S    
C8    N2    A    
C1    C24   S    
C18   C19   S    
Cu2   N1    S    
Cu1   O4    S    
C2    C23   A    
C11   H8    S    
C3    H22   S    
Cu2   O7    S    
C13   C27   S    
C10   H7    S    
C7    H3    S    
C7    N1    A    
C3    C5    S    
C25   C26   A    
C18   C22   S    
C4    C19   S    
C20   O2    S    
C12   C21   S    
C1    O1    A    
C15   C16   S    
C17   C21   S    
C13   O7    A    
C17   H18   S    
C15   H4    S    
C5    H2    S    
C17   H11   S    
