data_mof_unit_58295.cif
_audit_creation_date              2012-12-11T16:53:39-0500
_audit_creation_method            fapswitch 2.2
_symmetry_space_group_name_H-M    P1
_symmetry_Int_Tables_number       1
_space_group_crystal_system       triclinic
_cell_length_a                    15.161298
_cell_length_b                    14.826958
_cell_length_c                    16.931193
_cell_angle_alpha                 109.090285
_cell_angle_beta                  107.077872
_cell_angle_gamma                 107.88333
_cell_volume                      3076.80639737

loop_
_atom_site_label
_atom_site_type_symbol
_atom_type_description
_atom_site_fract_x
_atom_site_fract_y
_atom_site_fract_z
_atom_type_partial_charge
C1    C     C_R   0.088844 0.273734 0.044384 -0.109747
C2    C     C_R   0.028438 0.568440 0.738513 -0.032396
C3    C     C_R   0.775312 0.197205 0.727175 0.003609
C4    C     C_R   0.299674 0.473693 0.976407 0.075171
C5    C     C_R   0.266711 0.696546 0.259704 -0.050104
C6    C     C_R   0.704522 0.498709 0.916867 -0.167437
C7    C     C_R   0.895805 0.475168 0.190661 -0.041414
C8    C     C_R   0.080718 0.807577 0.054836 -0.090164
C9    C     C_R   0.910414 0.723619 0.985804 -0.063185
C10   C     C_R   0.067205 0.551872 0.265203 -0.082919
C11   C     C_R   0.273650 0.788876 0.180203 -0.070611
C12   C     C_R   0.936732 0.517947 0.744051 0.448238
C13   C     C_R   0.701813 0.410234 0.000438 -0.083472
C14   C     C_R   0.321354 0.794615 0.265836 0.162719
C15   C     C_R   0.644592 0.443448 0.948205 -0.007998
C16   C     C_R   0.980518 0.550408 0.277097 0.081869
C17   C     C_R   0.993654 0.822985 0.048135 0.065883
C18   C     C_R   0.430857 0.513987 0.923241 0.263958
C19   C     C_R   0.371452 0.446224 0.947744 0.041510
C20   C     C_R   0.388690 0.359412 0.950889 -0.144526
C21   C     C_R   0.473718 0.349635 0.940846 -0.147501
C22   C     C_R   0.541229 0.428227 0.929777 0.049760
C23   C     C_R   0.780093 0.201341 0.811011 -0.015897
C24   C     C_R   0.514962 0.505530 0.915063 0.180116
C25   C     C_3   0.578970 0.624138 0.962873 -0.525773
C26   C     C_3   0.486283 0.633551 0.972738 -0.509258
C27   C     C_R   0.984437 0.614403 0.367948 -0.062931
C28   C     C_R   0.044996 0.595596 0.665215 -0.042743
C29   C     C_R   0.143186 0.622901 0.577522 -0.251252
C30   C     C_R   0.126246 0.588587 0.641631 0.446407
C31   C     C_R   0.979222 0.628169 0.616545 -0.147049
C32   C     C_R   0.981070 0.634768 0.536465 0.030022
C33   C     C_R   0.068925 0.641252 0.522477 -0.013442
C34   C     C_R   0.262176 0.539577 0.953566 -0.082762
C35   C     C_R   0.076583 0.656214 0.447881 0.444160
C36   C     C_R   0.895496 0.613526 0.379876 -0.186810
C37   C     C_R   0.897075 0.631792 0.468484 -0.134523
C38   C     C_R   0.736276 0.102754 0.638284 0.134589
C39   C     C_R   0.420917 0.879991 0.340665 -0.054788
C40   C     C_R   0.557574 0.060667 0.416068 -0.456850
C41   C     C_R   0.454205 0.986983 0.354858 0.493967
C42   C     C_R   0.483620 0.853870 0.399462 -0.257742
C43   C     C_R   0.576242 0.932879 0.473851 0.205742
C44   C     C_R   0.616289 0.035420 0.479768 0.044136
C45   C     C_R   0.798632 0.299001 0.738265 -0.052715
C46   C     C_R   0.707254 0.114445 0.557133 -0.209543
C47   C     C_R   0.701846 0.999877 0.631067 -0.141630
C48   C     C_R   0.625351 0.913559 0.546538 -0.133564
C49   C     C_R   0.019865 0.076100 0.856548 0.105612
C50   C     C_R   0.002336 0.077060 0.933653 0.032359
C51   C     C_R   0.966386 0.979365 0.936909 -0.130025
C52   C     C_R   0.962359 0.888062 0.871287 -0.189100
C53   C     C_R   0.994767 0.893363 0.802772 0.133038
C54   C     C_R   0.016333 0.986076 0.792786 0.121087
C55   C     C_3   0.105382 0.048859 0.781854 -0.485277
C56   C     C_R   0.264132 0.449079 0.036599 -0.161760
C57   C     C_3   0.111158 0.148233 0.853099 -0.335236
C58   C     C_R   0.107533 0.598180 0.821735 -0.106664
C59   C     C_R   0.917968 0.193051 0.979133 -0.068693
C60   C     C_R   0.004049 0.173588 0.998105 0.010880
H1    H     H_    0.167852 0.287964 0.074605 0.104316
H2    H     H_    0.815481 0.451419 0.174530 0.111310
H3    H     H_    0.159183 0.868144 0.098558 0.175986
H4    H     H_    0.831846 0.707145 0.971957 0.155333
H5    H     H_    0.145375 0.594227 0.316749 0.165776
H6    H     H_    0.305566 0.840820 0.153307 0.137819
H7    H     H_    0.674622 0.353571 0.025141 0.125582
H8    H     H_    0.342914 0.305374 0.969013 0.122402
H9    H     H_    0.491486 0.287501 0.950396 0.139968
H10   H     H_    0.644962 0.653437 0.030590 0.206790
H11   H     H_    0.598739 0.654762 0.915521 0.230573
H12   H     H_    0.498005 0.667636 0.046204 0.198859
H13   H     H_    0.454159 0.670641 0.932028 0.249091
H14   H     H_    0.207604 0.622116 0.562320 0.209276
H15   H     H_    0.924239 0.644715 0.638056 0.204336
H16   H     H_    0.742784 0.190757 0.559433 0.131458
H17   H     H_    0.761722 0.133807 0.824197 0.090259
H18   H     H_    0.727612 0.987137 0.691472 0.132946
H19   H     H_    0.595783 0.834810 0.542320 0.145612
H20   H     H_    0.457821 0.773547 0.391718 0.147770
H21   H     H_    0.944881 0.974555 0.991484 0.175150
H22   H     H_    0.938682 0.814236 0.875630 0.189383
H23   H     H_    0.173169 0.033850 0.807631 0.205454
H24   H     H_    0.081887 0.041025 0.710292 0.230546
H25   H     H_    0.181164 0.189487 0.920088 0.117356
H26   H     H_    0.276344 0.575445 0.909795 0.171532
H27   H     H_    0.811589 0.325428 0.689392 0.144441
H28   H     H_    0.287431 0.407617 0.073909 0.105460
H29   H     H_    0.186553 0.655596 0.848864 0.157778
H30   H     H_    0.291042 0.665595 0.307192 0.116733
N1    N     N_R   0.055640 0.348550 0.045600 -0.040991
N2    N     N_R   0.798340 0.505430 0.954400 -0.065942
N3    N     N_R   0.931580 0.439470 0.128350 -0.045781
N4    N     N_R   0.051950 0.704140 0.002340 -0.067722
N5    N     N_R   0.944360 0.651450 0.954400 -0.039943
N6    N     N_R   0.039170 0.492150 0.176290 -0.063963
N7    N     N_R   0.188710 0.696600 0.128350 -0.057551
N8    N     N_R   0.794820 0.447010 0.002340 -0.043436
N9    N     N_R   0.960830 0.507850 0.823710 -0.114525
N10   N     N_R   0.811290 0.303400 0.871650 -0.042416
N11   N     N_R   0.205180 0.552990 0.997660 -0.056871
N12   N     N_R   0.814810 0.361830 0.823710 -0.045121
N13   N     N_R   0.201660 0.494570 0.045600 -0.040818
N14   N     N_R   0.068420 0.560530 0.871650 -0.085559
N15   N     N_R   0.948050 0.295860 0.997660 -0.046666
N16   N     N_R   0.185190 0.638170 0.176290 -0.056990
Ni1   Ni    Ni4+2 0.119330 0.493420 0.109950 0.235250
Ni2   Ni    Ni4+2 0.880670 0.506580 0.890050 0.325766
Ni3   Ni    Ni4+2 0.872590 0.372590 0.000000 0.284682
Ni4   Ni    Ni4+2 0.127410 0.627410 0.000000 0.215407
C61   C     C_2   0.660910 0.503393 0.828468 1.080475
O1    O     O_2   0.581154 0.428121 0.764053 -0.573000
O2    O     O_R   0.706509 0.594010 0.819073 -0.787579
H31   H     H_    0.663202 0.589981 0.758470 0.362479
S1    S     S_3+6 0.814208 0.505171 0.678020 -0.061022
O3    O     O_2   0.790209 0.456940 0.576689 -0.248258
O4    O     O_2   0.729311 0.436557 0.690663 -0.285702
O5    O     O_3   0.817621 0.626746 0.712476 -0.570863
H32   H     H_    0.758898 0.619032 0.661027 0.377949
S2    S     S_3+6 0.191003 0.761887 0.470597 -0.040780
O6    O     O_2   0.275639 0.727881 0.478196 -0.351212
O7    O     O_2   0.171822 0.795240 0.394785 -0.246412
O8    O     O_3   0.228179 0.866191 0.572320 -0.502645
H33   H     H_    0.292394 0.921748 0.581804 0.386420
C62   C     C_2   0.807744 0.603784 0.303471 1.020421
O9    O     O_2   0.718898 0.555293 0.289443 -0.611784
O10   O     O_R   0.827329 0.649745 0.246483 -0.775085
H34   H     H_    0.761857 0.636504 0.195897 0.318370
C63   C     C_2   0.809909 0.639704 0.487739 1.069042
O11   O     O_2   0.820516 0.726123 0.539673 -0.659867
O12   O     O_R   0.717307 0.548070 0.449068 -0.685137
H35   H     H_    0.664307 0.563571 0.468605 0.335703
S3    S     S_3+6 0.203078 0.528899 0.681443 -0.022307
O13   O     O_2   0.144731 0.443075 0.700744 -0.234881
O14   O     O_2   0.235441 0.479822 0.609067 -0.238017
O15   O     O_3   0.309431 0.623174 0.778790 -0.581637
H36   H     H_    0.344941 0.674963 0.760251 0.349121
C64   C     C_2   0.598835 0.167648 0.420161 1.235433
O16   O     O_2   0.615081 0.176296 0.355929 -0.541681
O17   O     O_R   0.616542 0.258224 0.495126 -0.661636
H37   H     H_    0.595688 0.240991 0.542057 0.328357
S4    S     S_3+6 0.365293 0.035514 0.312449 -0.035147
O18   O     O_2   0.366227 0.039797 0.225206 -0.322085
O19   O     O_2   0.257860 0.965539 0.292915 -0.264823
O20   O     O_3   0.399576 0.158998 0.392028 -0.491157
H38   H     H_    0.352172 0.182879 0.360520 0.393667
C65   C     C_2   0.089981 0.221852 0.814897 1.100368
O21   O     O_2   0.142671 0.257539 0.779847 -0.580584
O22   O     O_R   0.013021 0.252233 0.822298 -0.818872
H39   H     H_    0.008948 0.304593 0.796712 0.324292
C66   C     C_2   0.818009 0.125560 0.971592 0.956836
O23   O     O_2   0.794830 0.032876 0.955941 -0.639284
O24   O     O_R   0.750252 0.169049 0.983492 -0.814199
H40   H     H_    0.684288 0.115724 0.976821 0.333288

loop_
_geom_bond_atom_site_label_1
_geom_bond_atom_site_label_2
_ccdc_geom_bond_type
C42   H20   S    
C9    H4    S    
C26   H12   S    
C6    C61   S    
N1    N15   A    
C3    C23   A    
C36   C62   S    
C18   C26   S    
C2    C12   A    
C46   H16   S    
O20   H38   S    
N2    N8    A    
O8    H33   S    
C39   C41   A    
C53   C54   A    
C52   C53   A    
N9    Ni2   S    
C59   N15   A    
C18   C24   A    
C48   H19   S    
C36   C37   A    
C65   O22   S    
C63   O11   D    
N10   Ni3   S    
C11   C14   A    
C56   H28   S    
N16   Ni1   S    
C49   C54   A    
C29   C33   A    
C26   H13   S    
C49   C57   S    
C18   C19   A    
C34   H26   S    
C13   N8    A    
O5    H32   S    
C12   N9    A    
N15   Ni3   S    
C14   C39   S    
C4    C19   S    
N2    Ni2   S    
C15   C22   S    
C65   O21   D    
C3    C38   S    
S2    O7    D    
S1    O4    D    
C40   C64   S    
S3    O15   S    
C66   O23   D    
N12   Ni2   S    
C25   H11   S    
C43   C48   A    
C9    N5    A    
C5    H30   S    
C11   H6    S    
C57   H25   S    
C12   S1    S    
S1    O5    S    
C16   C27   S    
C23   N10   A    
C6    C15   A    
C59   C60   A    
C1    N1    A    
N8    Ni3   S    
C21   C22   A    
C4    C56   A    
S4    O20   S    
C35   S2    S    
N4    N5    A    
C44   C46   A    
C39   C42   A    
C5    N16   A    
C7    N3    A    
C4    C34   A    
C34   N11   A    
C51   C52   A    
C47   C48   A    
N1    Ni1   S    
C8    N4    A    
C24   C25   S    
C64   O16   D    
C1    C60   A    
C29   H14   S    
C27   C35   A    
N11   Ni4   S    
N4    Ni4   S    
C23   H17   S    
C21   H9    S    
C43   C44   A    
C7    H2    S    
C29   C30   A    
C31   H15   S    
C31   C32   A    
C13   C15   A    
C10   N6    A    
C30   S3    S    
N10   N12   A    
C50   C51   A    
C38   C47   A    
C61   O2    S    
C32   C37   A    
O17   H37   S    
C52   H22   S    
C5    C14   A    
C64   O17   S    
N7    N16   A    
C9    C17   A    
C7    C16   A    
N6    Ni1   S    
N3    N6    A    
C57   C65   S    
S3    O13   D    
C22   C24   A    
C58   N14   A    
C42   C43   A    
C55   H23   S    
O10   H34   S    
S2    O6    D    
S3    O14   D    
O2    H31   S    
C13   H7    S    
C10   H5    S    
C51   H21   S    
C54   C55   S    
C40   C41   A    
C61   O1    D    
C45   H27   S    
C45   N12   A    
C20   H8    S    
C28   C31   A    
C56   N13   A    
O15   H36   S    
O12   H35   S    
C1    H1    S    
N13   Ni1   S    
S2    O8    S    
C59   C66   S    
C27   C36   A    
C8    C17   A    
C55   H24   S    
C11   N7    A    
C50   C60   S    
C32   C33   A    
C19   C20   A    
C55   C57   S    
C25   C26   S    
C41   S4    S    
C10   C16   A    
O22   H39   S    
N14   Ni4   S    
N7    Ni4   S    
C62   O9    D    
C6    N2    A    
C28   C30   A    
C33   C35   A    
C3    C45   A    
N9    N14   A    
S4    O19   D    
C66   O24   S    
C2    C58   A    
C58   H29   S    
C38   C46   A    
N5    Ni2   S    
C8    H3    S    
C40   C44   A    
C20   C21   A    
N11   N13   A    
C49   C50   A    
C62   O10   S    
S4    O18   D    
C2    C28   S    
C25   H10   S    
C47   H18   S    
O24   H40   S    
C37   C63   S    
S1    O3    D    
N3    Ni3   S    
C63   O12   S    
