data_mof_unit_23459.cif
_audit_creation_date              2012-12-10T18:44:21-0500
_audit_creation_method            fapswitch 2.2
_symmetry_space_group_name_H-M    P1
_symmetry_Int_Tables_number       1
_space_group_crystal_system       triclinic
_cell_length_a                    12.859233
_cell_length_b                    10.628985
_cell_length_c                    9.900134
_cell_angle_alpha                 90.573624
_cell_angle_beta                  98.399165
_cell_angle_gamma                 90.564675
_cell_volume                      1338.48817755

loop_
_atom_site_label
_atom_site_type_symbol
_atom_type_description
_atom_site_fract_x
_atom_site_fract_y
_atom_site_fract_z
_atom_type_partial_charge
C1    C     C_R   0.497229 0.260350 0.498939 0.928893
C2    C     C_R   0.502771 0.739650 0.501061 0.928892
C3    C     C_R   0.503887 0.872104 0.502114 -0.142035
C4    C     C_R   0.496113 0.127896 0.497886 -0.142034
C5    C     C_R   0.575408 0.563981 0.088282 -0.082379
C6    C     C_R   0.424592 0.436019 0.911718 -0.082379
C7    C     C_R   0.576314 0.564407 0.945119 0.222430
C8    C     C_R   0.423686 0.435593 0.054881 0.222430
C9    C     C_R   0.298059 0.498601 0.472071 0.914878
C10   C     C_R   0.701940 0.501399 0.527929 0.914878
C11   C     C_R   0.814623 0.501185 0.545723 -0.102306
C12   C     C_R   0.185376 0.498815 0.454277 -0.102306
C13   C     C_R   0.019460 0.556056 0.325144 0.214197
C14   C     C_R   0.980540 0.443944 0.674856 0.214197
C15   C     C_R   0.127732 0.543596 0.334662 -0.201432
C16   C     C_R   0.872268 0.456404 0.665338 -0.201432
C17   C     C_R   0.136566 0.461772 0.564055 -0.227197
C18   C     C_R   0.863434 0.538228 0.435945 -0.227197
C19   C     C_R   0.029590 0.475882 0.560344 0.111376
C20   C     C_R   0.970410 0.524118 0.439656 0.111376
C21   C     C_R   0.571079 0.067131 0.433075 -0.241329
C22   C     C_R   0.428921 0.932869 0.566925 -0.241329
C23   C     C_R   0.575901 0.938103 0.435295 0.280894
C24   C     C_R   0.424099 0.061897 0.564705 0.280894
H1    H     H_    0.816454 0.575807 0.346093 0.192952
H2    H     H_    0.183546 0.424193 0.653907 0.192952
H3    H     H_    0.832498 0.427539 0.749346 0.158307
H4    H     H_    0.167502 0.572461 0.250653 0.158307
H5    H     H_    0.627131 0.120250 0.383813 0.188195
H6    H     H_    0.372869 0.879750 0.616187 0.188195
H7    H     H_    0.635686 0.614061 0.156395 0.175078
H8    H     H_    0.364314 0.385939 0.843604 0.175078
N1    N     N_R   0.499970 0.499970 0.857200 -0.100285
N2    N     N_R   0.500030 0.500030 0.142800 -0.100285
O1    O     O_R   0.499990 0.316750 0.614620 -0.581130
O2    O     O_R   0.500010 0.683250 0.385380 -0.581130
O3    O     O_R   0.499990 0.316780 0.385290 -0.631355
O4    O     O_R   0.500010 0.683220 0.614710 -0.631355
O5    O     O_R   0.346360 0.499970 0.595710 -0.619290
O6    O     O_R   0.653640 0.500030 0.404290 -0.619290
O7    O     O_R   0.346360 0.499990 0.366380 -0.632020
O8    O     O_R   0.653640 0.500010 0.633620 -0.632020
Zn1   Zn    Zn3+2 0.500000 0.499980 0.653120 0.970521
Zn2   Zn    Zn3+2 0.500000 0.500020 0.346880 0.970521
C25   C     C_3   0.959186 0.604432 0.193675 -0.915094
H9    H     H_    0.011359 0.622591 0.115729 0.246387
H10   H     H_    0.899079 0.533770 0.149904 0.237912
H11   H     H_    0.920279 0.694195 0.213415 0.264964
C26   C     C_3   0.040814 0.395568 0.806325 -0.915094
H12   H     H_    0.988641 0.377409 0.884271 0.246387
H13   H     H_    0.079721 0.305805 0.786585 0.264964
H14   H     H_    0.100921 0.466230 0.850096 0.237912
Br1   Br    Br    0.685056 0.857813 0.353251 -0.557105
Br2   Br    Br    0.314943 0.142187 0.646748 -0.557105
C27   C     C_3   0.664729 0.633764 0.893934 -0.799079
H15   H     H_    0.635269 0.695190 0.807902 0.273796
H16   H     H_    0.708207 0.695561 0.974683 0.214933
H17   H     H_    0.722016 0.565529 0.864404 0.236324
C28   C     C_3   0.335271 0.366236 0.106066 -0.799079
H18   H     H_    0.364731 0.304810 0.192098 0.273796
H19   H     H_    0.277984 0.434471 0.135596 0.236323
H20   H     H_    0.291793 0.304438 0.025317 0.214933

loop_
_geom_bond_atom_site_label_1
_geom_bond_atom_site_label_2
_ccdc_geom_bond_type
C12   C17   A    
C6    H8    S    
C27   H15   S    
C6    N1    A    
C11   C18   A    
C14   C16   A    
C7    C27   S    
C10   O8    A    
O1    Zn1   S    
C11   C16   A    
C2    O4    A    
C3    C23   A    
C19   C20   A    
C12   C15   A    
C1    O3    A    
C1    C4    S    
C5    N2    A    
C26   H14   S    
C16   H3    S    
C25   H10   S    
C2    C3    S    
C28   H18   S    
C8    C28   S    
C27   H16   S    
C8    N2    A    
C25   H9    S    
C13   C25   S    
C4    C21   A    
C7    N1    A    
C15   H4    S    
C27   H17   S    
C18   H1    S    
C21   H5    S    
O3    Zn2   S    
C17   H2    S    
C17   C19   A    
C23   Br1   S    
C18   C20   A    
C21   C23   A    
C13   C15   A    
O5    Zn1   S    
C4    C24   A    
O7    Zn2   S    
C22   C24   A    
C28   H19   S    
C14   C26   S    
O2    Zn2   S    
C10   C11   S    
C24   Br2   S    
N1    Zn1   S    
O6    Zn2   S    
N2    Zn2   S    
C1    O1    A    
C10   O6    A    
C26   H12   S    
O8    Zn1   S    
C25   H11   S    
C2    O2    A    
C5    C7    A    
C28   H20   S    
C6    C8    A    
C22   H6    S    
C13   C20   A    
C5    H7    S    
C9    C12   S    
C9    O7    A    
C14   C19   A    
C9    O5    A    
C3    C22   A    
O4    Zn1   S    
C26   H13   S    
