data_mof_unit_35724.cif
_audit_creation_date              2013-03-05T15:48:01-0500
_audit_creation_method            fapswitch 2.2
_symmetry_space_group_name_H-M    P1
_symmetry_Int_Tables_number       1
_space_group_crystal_system       triclinic
_cell_length_a                    10.154801
_cell_length_b                    10.536834
_cell_length_c                    10.517582
_cell_angle_alpha                 90.311039
_cell_angle_beta                  94.244058
_cell_angle_gamma                 81.806679
_cell_volume                      1110.81927363

loop_
_atom_site_label
_atom_site_type_symbol
_atom_site_description
_atom_site_fract_x
_atom_site_fract_y
_atom_site_fract_z
_atom_type_partial_charge
O1    O     O_R   0.568940 0.489500 0.307530 -0.589984
O2    O     O_R   0.431060 0.510500 0.692470 -0.578399
O3    O     O_R   0.348880 0.522990 0.340350 -0.586233
O4    O     O_R   0.651120 0.477010 0.659650 -0.588153
C1    C     C_R   0.445988 0.515340 0.265821 0.961507
C2    C     C_R   0.554148 0.500763 0.734210 0.995818
O5    O     O_R   0.610000 0.297210 0.483560 -0.592298
O6    O     O_R   0.390000 0.702790 0.516440 -0.579009
O7    O     O_R   0.389940 0.330700 0.516390 -0.628087
O8    O     O_R   0.610060 0.669300 0.483610 -0.615886
C3    C     C_R   0.499321 0.257673 0.500558 0.957501
C4    C     C_R   0.500490 0.742413 0.498536 0.972040
Zn1   Zn    Zn3+2 0.646930 0.477640 0.478080 1.022814
Zn2   Zn    Zn3+2 0.353070 0.522360 0.521920 1.029078
C5    C     C_3   0.546296 0.037546 0.389711 -0.247345
C6    C     C_3   0.453449 0.962831 0.607922 -0.248077
C7    C     C_3   0.422886 0.970745 0.400393 0.363511
C8    C     C_3   0.576796 0.029498 0.597298 0.349929
H1    H     H_    0.581738 0.071290 0.300164 0.199065
H2    H     H_    0.418002 0.930755 0.697905 0.226573
C9    C     C_3   0.501308 0.876813 0.497113 -0.140705
C10   C     C_3   0.498366 0.123382 0.500703 -0.152687
C11   C     C_3   0.626727 0.941889 0.488836 -0.217810
C12   C     C_3   0.373030 0.058378 0.508858 -0.241393
H3    H     H_    0.730074 0.892160 0.482614 0.199664
H4    H     H_    0.269637 0.107994 0.515068 0.194862
C13   C     C_2   0.420620 0.543574 0.130912 -0.335383
C14   C     C_2   0.579980 0.523699 0.869380 -0.394447
C15   C     C_2   0.505546 0.604334 0.069582 0.293538
C16   C     C_2   0.493573 0.605926 0.932202 0.241096
H5    H     H_    0.666148 0.468123 0.920151 0.176837
H6    H     H_    0.336838 0.507879 0.079164 0.156998
H7    H     H_    0.890489 0.582374 0.579232 0.170595
H8    H     H_    0.109384 0.418045 0.420365 0.169493
N1    N     N_2   0.157310 0.552180 0.551120 -0.175912
N2    N     N_2   0.842690 0.447820 0.448880 -0.176024
C17   C     C_2   0.072960 0.489049 0.489347 -0.099916
C18   C     C_2   0.926961 0.511230 0.510398 -0.078405
H9    H     H_    0.880718 0.381020 0.384262 0.185170
H10   H     H_    0.119324 0.618892 0.615842 0.204253
N3    N     N_R   0.337565 0.940072 0.290202 0.228468
O9    O     O_R   0.278490 0.031626 0.214850 -0.349523
O10   O     O_R   0.320290 0.822266 0.265834 -0.359293
N4    N     N_R   0.661556 0.060492 0.707795 0.219871
O11   O     O_R   0.723792 0.968711 0.781131 -0.337151
O12   O     O_R   0.671664 0.178979 0.736801 -0.388592
Br1   Br    Br    0.346194 0.722429 0.854248 -0.424746
Br2   Br    Br    0.644457 0.690363 0.151327 -0.393224

loop_
_geom_bond_atom_site_label_1
_geom_bond_atom_site_label_2
_geom_bond_distance
_ccdc_geom_bond_type
C5    H1    1.110518 S    
O7    Zn2   2.002082 S    
C6    C9    1.537120 S    
C8    C10   1.520415 S    
C8    N4    1.458095 S    
C13   C15   1.346810 D    
H8    C17   1.085298 S    
N3    O10   1.299714 A    
N3    O9    1.300610 A    
C3    C10   1.416433 S    
H7    C18   1.085321 S    
O6    C4    1.278395 A    
C6    H2    1.108170 S    
C14   C16   1.349101 D    
N1    H10   1.030865 S    
C6    C12   1.554726 S    
O2    C2    1.283865 A    
O5    C3    1.277773 A    
O7    C3    1.279039 A    
C17   C18   1.500331 S    
O3    Zn2   1.907027 S    
O8    C4    1.279208 A    
O1    C1    1.284047 A    
C5    C11   1.555853 S    
N1    C17   1.293694 D    
N4    O12   1.300027 A    
C7    N3    1.457878 S    
C9    C11   1.538113 S    
O2    Zn2   1.903790 S    
C10   C12   1.536778 S    
C7    C12   1.533339 S    
O1    Zn1   1.903790 S    
C15   Br2   1.930595 S    
C15   C16   1.441002 S    
N2    C18   1.293705 D    
C16   Br1   1.929933 S    
O5    Zn1   1.991475 S    
C11   H3    1.110532 S    
N4    O11   1.300515 A    
Zn1   N2    2.013972 S    
C6    C8    1.532065 S    
O4    C2    1.299698 A    
C5    C10   1.537798 S    
Zn2   N1    2.013972 S    
C5    C7    1.533517 S    
O6    Zn2   1.991477 S    
C13   H6    1.087190 S    
C1    C13   1.448048 S    
C4    C9    1.417528 S    
N2    H9    1.030831 S    
C14   H5    1.087155 S    
C2    C14   1.451708 S    
C8    C11   1.533408 S    
O4    Zn1   1.907027 S    
C12   H4    1.110527 S    
O3    C1    1.297855 A    
O8    Zn1   2.002084 S    
C7    C9    1.521510 S    
