data_mof_unit_18300.cif
_audit_creation_date              2012-10-26T18:44:09-0400
_audit_creation_method            fapswitch 2.2
_symmetry_space_group_name_H-M    P1
_symmetry_Int_Tables_number       1
_space_group_crystal_system       triclinic
_cell_length_a                    19.352548
_cell_length_b                    9.080349
_cell_length_c                    7.759578
_cell_angle_alpha                 90.12866
_cell_angle_beta                  89.900387
_cell_angle_gamma                 90.036287
_cell_volume                      1363.56849952

loop_
_atom_site_label
_atom_site_type_symbol
_atom_type_description
_atom_site_fract_x
_atom_site_fract_y
_atom_site_fract_z
_atom_type_partial_charge
C1    C     C_R   0.499987 0.219932 0.499881 0.565018
C2    C     C_R   0.253972 0.593013 0.385095 0.108024
C3    C     C_R   0.181986 0.393662 0.599060 0.111897
C4    C     C_R   0.818758 0.573991 0.369324 0.118173
C5    C     C_R   0.817367 0.387799 0.596743 0.103207
C6    C     C_R   0.181685 0.584481 0.376167 0.122925
C7    C     C_R   0.145666 0.485084 0.483702 0.002015
C8    C     C_R   0.854064 0.475937 0.478392 0.021046
C9    C     C_R   0.290778 0.501250 0.500176 -0.014510
C10   C     C_R   0.709255 0.498714 0.498987 -0.006399
C11   C     C_R   0.930052 0.473942 0.478957 0.379142
C12   C     C_R   0.499932 0.780057 0.500109 0.535875
C13   C     C_R   0.069737 0.479463 0.481494 0.344320
C14   C     C_3   0.299056 0.379883 0.902698 -0.267900
C15   C     C_3   0.694564 0.829382 0.366200 -0.298518
C16   C     C_3   0.699613 0.378385 0.901681 -0.267514
C17   C     C_3   0.304163 0.836950 0.378084 -0.278382
C18   C     C_3   0.129379 0.152225 0.607244 -0.291275
C19   C     C_3   0.856572 0.612541 0.075876 -0.262394
C20   C     C_3   0.869854 0.146558 0.609114 -0.297333
C21   C     C_3   0.146497 0.641944 0.084079 -0.260286
C22   C     C_R   0.367001 0.501812 0.500206 0.571476
C23   C     C_R   0.633018 0.501250 0.499895 0.573553
C24   C     C_1   0.499960 0.065359 0.499811 -0.059836
C25   C     C_1   0.499940 0.934614 0.500127 -0.070977
C26   C     C_R   0.254504 0.405987 0.612516 0.090676
C27   C     C_R   0.746626 0.587386 0.381145 0.087357
C28   C     C_R   0.744949 0.402653 0.611354 0.090859
Cu1   Cu    Cu3+1 0.500000 0.500000 0.669080 1.007529
Cu2   Cu    Cu3+1 0.500000 0.500000 0.330920 0.975549
H1    H     H_    0.276973 0.207919 0.734049 0.246007
H2    H     H_    0.659324 0.317018 0.973950 0.160135
H3    H     H_    0.683819 0.495777 0.894372 0.168931
H4    H     H_    0.748774 0.371304 0.974332 0.108362
H5    H     H_    0.327352 0.666142 0.206712 0.265219
H6    H     H_    0.326296 0.919124 0.287719 0.142773
H7    H     H_    0.342448 0.814878 0.481302 0.134013
H8    H     H_    0.256491 0.884094 0.436002 0.156642
H9    H     H_    0.163397 0.269143 0.820748 0.254854
H10   H     H_    0.177850 0.093236 0.573588 0.121289
H11   H     H_    0.099893 0.175424 0.487684 0.170745
H12   H     H_    0.249200 0.377024 0.973294 0.110535
H13   H     H_    0.097313 0.079953 0.690469 0.147749
H14   H     H_    0.844684 0.774799 0.261633 0.262610
H15   H     H_    0.872398 0.495070 0.069154 0.176416
H16   H     H_    0.893810 0.678439 0.999044 0.157658
H17   H     H_    0.804416 0.624974 0.018283 0.142681
H18   H     H_    0.835005 0.265554 0.820499 0.253371
H19   H     H_    0.901511 0.075124 0.693936 0.148669
H20   H     H_    0.899906 0.168662 0.489831 0.165428
H21   H     H_    0.821492 0.087203 0.575290 0.118950
H22   H     H_    0.098135 0.718109 0.307491 0.259815
H23   H     H_    0.317057 0.495896 0.896039 0.170028
H24   H     H_    0.200271 0.635689 0.034748 0.160708
H25   H     H_    0.118502 0.726246 0.007858 0.145127
H26   H     H_    0.120807 0.533701 0.065103 0.171883
H27   H     H_    0.337605 0.315360 0.976612 0.159081
H28   H     H_    0.675462 0.655404 0.195901 0.271240
H29   H     H_    0.673708 0.909986 0.272349 0.145495
H30   H     H_    0.740742 0.878599 0.428820 0.137086
H31   H     H_    0.654495 0.807301 0.465405 0.145976
H32   H     H_    0.721300 0.205433 0.733903 0.245851
N1    N     N_1   0.500000 0.500000 0.076820 -0.098898
N2    N     N_2   0.288109 0.702941 0.285375 -0.498259
N3    N     N_2   0.144968 0.287399 0.698375 -0.495664
N4    N     N_2   0.856601 0.664385 0.252467 -0.493163
N5    N     N_2   0.853905 0.282579 0.698156 -0.499179
N6    N     N_2   0.145798 0.683021 0.264527 -0.489281
N7    N     N_1   0.500000 0.500000 0.923180 -0.094100
N8    N     N_R   0.033598 0.489935 0.630922 -0.203151
N9    N     N_R   0.966208 0.461829 0.329752 -0.220369
N10   N     N_R   0.964925 0.487249 0.629663 -0.207350
N11   N     N_R   0.034910 0.464240 0.331014 -0.248765
N12   N     N_2   0.291768 0.316970 0.731744 -0.503031
N13   N     N_2   0.713174 0.694997 0.277119 -0.524197
N14   N     N_2   0.707108 0.314803 0.731088 -0.503356
O1    O     O_R   0.500000 0.288390 0.642760 -0.481109
O2    O     O_R   0.500000 0.711610 0.357240 -0.497949
O3    O     O_R   0.500000 0.711610 0.642760 -0.501917
O4    O     O_R   0.500000 0.288390 0.357240 -0.497610
O5    O     O_R   0.400140 0.500000 0.642830 -0.481174
O6    O     O_R   0.599860 0.500000 0.357170 -0.517837
O7    O     O_R   0.599860 0.500000 0.642830 -0.482454
O8    O     O_R   0.400140 0.500000 0.357170 -0.519832

loop_
_geom_bond_atom_site_label_1
_geom_bond_atom_site_label_2
_ccdc_geom_bond_type
C10   C27   A    
C15   N13   S    
C23   O6    A    
C1    O1    A    
C15   H30   S    
C20   N5    S    
H14   N4    S    
C5    N5    S    
C19   H16   S    
C3    N3    S    
C18   N3    S    
Cu1   Cu2   S    
C23   O7    A    
C14   N12   S    
Cu1   O7    S    
C20   H21   S    
C3    C7    A    
C17   N2    S    
C21   H24   S    
C11   N9    A    
C9    C22   S    
C13   N8    A    
C12   O3    A    
C19   N4    S    
C18   H10   S    
C20   H20   S    
C16   H4    S    
N1    N7    T    
C12   O2    A    
H28   N13   S    
H5    N2    S    
C17   H6    S    
H22   N6    S    
C4    C8    A    
C14   H12   S    
Cu2   O4    S    
C6    N6    S    
Cu2   N1    S    
H9    N3    S    
H32   N14   S    
C2    C6    A    
C27   N13   S    
C2    N2    S    
C9    C26   A    
Cu1   N7    S    
C22   O5    A    
C24   C25   T    
C18   H11   S    
C21   H25   S    
C11   N10   A    
H1    N12   S    
C22   O8    A    
Cu2   O6    S    
Cu1   O5    S    
C20   H19   S    
C16   H3    S    
C5    C8    A    
C5    C28   A    
Cu1   O3    S    
C15   H31   S    
C17   H7    S    
C13   N11   A    
C21   N6    S    
C28   N14   S    
C4    C27   A    
N9    N11   A    
C10   C28   A    
C14   H27   S    
C16   N14   S    
C15   H29   S    
C3    C26   A    
C21   H26   S    
C19   H15   S    
C6    C7    A    
C10   C23   S    
C16   H2    S    
C12   C25   S    
C18   H13   S    
C4    N4    S    
C8    C11   S    
C26   N12   S    
C19   H17   S    
C17   H8    S    
H18   N5    S    
Cu2   O8    S    
Cu2   O2    S    
C7    C13   S    
C14   H23   S    
Cu1   O1    S    
C1    C24   S    
C1    O4    A    
N8    N10   A    
C2    C9    A    
