data_mof_unit_32930.cif
_audit_creation_date              2012-12-10T16:32:38-0500
_audit_creation_method            fapswitch 2.2
_symmetry_space_group_name_H-M    P1
_symmetry_Int_Tables_number       1
_space_group_crystal_system       triclinic
_cell_length_a                    16.858664
_cell_length_b                    16.918993
_cell_length_c                    16.917456
_cell_angle_alpha                 65.058945
_cell_angle_beta                  64.407202
_cell_angle_gamma                 64.533881
_cell_volume                      3760.54816299

loop_
_atom_site_label
_atom_site_type_symbol
_atom_type_description
_atom_site_fract_x
_atom_site_fract_y
_atom_site_fract_z
_atom_type_partial_charge
C1    C     C_R   0.599746 0.034525 0.584996 0.145620
C2    C     C_R   0.821618 0.567752 0.028344 0.947460
C3    C     C_R   0.441252 0.954628 0.178323 0.888077
C4    C     C_R   0.568038 0.027708 0.821767 0.938214
C5    C     C_R   0.558703 0.821734 0.045540 0.903044
C6    C     C_R   0.432157 0.178107 0.972097 0.940709
C7    C     C_R   0.027788 0.567893 0.822007 0.911365
C8    C     C_R   0.003008 0.424467 0.164048 0.970479
C9    C     C_R   0.821371 0.045974 0.558784 0.873172
C10   C     C_R   0.178377 0.972191 0.431968 0.946039
C11   C     C_R   0.553877 0.015939 0.536665 -0.021832
C12   C     C_R   0.416512 0.964491 0.399803 0.149314
C13   C     C_R   0.465024 0.981873 0.446543 -0.022643
C14   C     C_R   0.999011 0.555512 0.546438 -0.024062
C15   C     C_R   0.983259 0.458634 0.451766 -0.020839
C16   C     C_R   0.535254 0.553177 0.018517 -0.022463
C17   C     C_R   0.445037 0.461425 0.988155 -0.020660
C18   C     C_R   0.601435 0.999861 0.449409 0.126047
C19   C     C_R   0.423207 0.983861 0.539197 0.122244
C20   C     C_R   0.990200 0.465865 0.590991 0.123964
C21   C     C_R   0.977209 0.552785 0.413066 0.124159
C22   C     C_R   0.447090 0.598739 0.004473 0.123574
C23   C     C_R   0.002858 0.608683 0.597583 0.160615
C24   C     C_R   0.537869 0.420343 0.990124 0.123758
C25   C     C_R   0.552987 0.996680 0.400371 0.124379
C26   C     C_R   0.460959 0.014025 0.577761 0.124134
C27   C     C_R   0.398072 0.549102 0.003047 0.125445
C28   C     C_R   0.576534 0.460194 0.017970 0.122120
C29   C     C_R   0.994737 0.414453 0.540296 0.123748
C30   C     C_R   0.999485 0.595290 0.453662 0.119656
C31   C     C_R   0.571995 0.012403 0.681239 -0.227132
C32   C     C_R   0.463769 0.929892 0.323394 -0.205624
C33   C     C_R   0.970543 0.704975 0.573143 -0.207989
C34   C     C_R   0.983232 0.406128 0.397710 0.154046
C35   C     C_R   0.953417 0.327628 0.440020 -0.228146
C36   C     C_R   0.681060 0.572999 0.011546 -0.217538
C37   C     C_R   0.324378 0.460721 0.932967 -0.225187
C38   C     C_R   0.319563 0.986881 0.428011 -0.228278
C39   C     C_R   0.675181 0.070100 0.537832 -0.212793
C40   C     C_R   0.425670 0.317184 0.991953 -0.215292
C41   C     C_R   0.536934 0.676896 0.069252 -0.224169
C42   C     C_R   0.015093 0.432290 0.301322 -0.225280
C43   C     C_R   0.037667 0.565134 0.673006 -0.233301
C44   C     C_R   0.604619 0.042602 0.724384 -0.147106
C45   C     C_R   0.584121 0.600745 0.034441 0.152091
C46   C     C_R   0.413941 0.924491 0.277775 -0.133214
C47   C     C_R   0.975299 0.751938 0.621599 -0.181712
C48   C     C_R   0.977072 0.268524 0.388818 -0.129553
C49   C     C_R   0.724091 0.605097 0.042427 -0.156381
C50   C     C_R   0.278859 0.412249 0.925283 -0.114386
C51   C     C_R   0.276282 0.957122 0.395123 -0.143779
C52   C     C_R   0.721110 0.075985 0.586961 -0.120597
C53   C     C_R   0.394838 0.274856 0.959039 -0.154615
C54   C     C_R   0.586575 0.722540 0.075033 -0.130496
C55   C     C_R   0.015278 0.381803 0.253109 -0.129611
C56   C     C_R   0.398740 0.413240 0.969793 0.146050
C57   C     C_R   0.018764 0.614558 0.732044 -0.107466
C58   C     C_R   0.674052 0.083603 0.674258 0.153204
C59   C     C_R   0.326696 0.916541 0.325014 0.158552
C60   C     C_R   0.978463 0.709022 0.709346 0.159326
C61   C     C_R   0.017554 0.292741 0.294609 0.147184
C62   C     C_R   0.674084 0.676228 0.081784 0.155577
C63   C     C_R   0.325192 0.324907 0.918385 0.150417
C64   C     C_3   0.353661 0.140327 0.638520 -0.799905
C65   C     C_3   0.567411 0.105700 0.250200 -0.797555
C66   C     C_3   0.122789 0.661102 0.351074 -0.787302
C67   C     C_R   0.970765 0.177961 0.433144 0.881617
C68   C     C_3   0.108600 0.265525 0.556424 -0.798428
C69   C     C_3   0.636334 0.358757 0.144343 -0.795958
C70   C     C_3   0.246979 0.559085 0.114362 -0.797826
C71   C     C_3   0.365058 0.856874 0.643467 -0.792325
C72   C     C_3   0.753024 0.889923 0.438914 -0.801803
C73   C     C_3   0.644045 0.355412 0.866200 -0.799639
C74   C     C_3   0.432311 0.747958 0.893874 -0.796362
C75   C     C_3   0.846922 0.641280 0.355179 -0.792690
C76   C     C_3   0.879376 0.448215 0.741963 -0.799639
C77   C     C_3   0.711542 0.213383 0.662330 -0.782357
C78   C     C_R   0.992794 0.839124 0.576332 0.965410
C79   C     C_3   0.339874 0.786629 0.286513 -0.768743
C80   C     C_3   0.963527 0.798833 0.802344 -0.644785
C81   C     C_3   0.048100 0.198369 0.198931 -0.649316
C82   C     C_3   0.753016 0.754954 0.105887 -0.673894
C83   C     C_3   0.247352 0.247310 0.891507 -0.670699
C84   C     C_R   0.178739 0.441069 0.954103 0.908330
H1    H     H_    0.525514 0.971618 0.723575 0.177180
H2    H     H_    0.463012 0.705658 0.087331 0.180304
H3    H     H_    0.039010 0.491463 0.261922 0.179015
H4    H     H_    0.073870 0.492735 0.690029 0.171474
H5    H     H_    0.365852 0.002606 0.709140 0.222595
H6    H     H_    0.316205 0.158788 0.703745 0.235688
H7    H     H_    0.302838 0.156300 0.604483 0.229622
H8    H     H_    0.401763 0.181858 0.593875 0.257084
H9    H     H_    0.660878 0.975679 0.281390 0.219994
H10   H     H_    0.595791 0.110007 0.176313 0.239615
H11   H     H_    0.596166 0.145746 0.262859 0.225245
H12   H     H_    0.537648 0.912356 0.294128 0.178638
H13   H     H_    0.491123 0.135539 0.267725 0.254997
H14   H     H_    0.983242 0.726752 0.361535 0.218180
H15   H     H_    0.137526 0.727692 0.315739 0.239362
H16   H     H_    0.143612 0.626171 0.299258 0.224448
H17   H     H_    0.163824 0.618691 0.399628 0.256627
H18   H     H_    0.974744 0.295832 0.645809 0.224062
H19   H     H_    0.115390 0.191398 0.583564 0.239044
H20   H     H_    0.144775 0.280187 0.587756 0.225558
H21   H     H_    0.141564 0.282268 0.480999 0.255263
H22   H     H_    0.708368 0.365418 0.006876 0.223656
H23   H     H_    0.943001 0.745591 0.516551 0.174475
H24   H     H_    0.701761 0.322290 0.162127 0.238194
H25   H     H_    0.601016 0.308205 0.162930 0.227951
H26   H     H_    0.591875 0.408718 0.184405 0.256004
H27   H     H_    0.276863 0.655102 0.986857 0.221718
H28   H     H_    0.172428 0.587128 0.120274 0.236551
H29   H     H_    0.259757 0.585455 0.156412 0.225789
H30   H     H_    0.265095 0.483294 0.140792 0.254874
H31   H     H_    0.291348 0.994278 0.634262 0.222960
H32   H     H_    0.300129 0.837974 0.680808 0.238333
H33   H     H_    0.399861 0.840797 0.693563 0.227255
H34   H     H_    0.917540 0.308631 0.512543 0.172305
H35   H     H_    0.410378 0.815786 0.594509 0.256750
H36   H     H_    0.722376 0.017138 0.342976 0.222029
H37   H     H_    0.827384 0.884964 0.411123 0.237183
H38   H     H_    0.741360 0.847562 0.411996 0.225699
H39   H     H_    0.734503 0.863250 0.514791 0.252961
H40   H     H_    0.631768 0.288615 0.004599 0.223972
H41   H     H_    0.681326 0.289076 0.850084 0.237956
H42   H     H_    0.694969 0.390308 0.847892 0.228253
H43   H     H_    0.595885 0.398128 0.824674 0.257111
H44   H     H_    0.339812 0.717878 0.025133 0.220452
H45   H     H_    0.723824 0.525695 0.971147 0.175635
H46   H     H_    0.404287 0.821972 0.888653 0.239181
H47   H     H_    0.402699 0.734395 0.855280 0.225352
H48   H     H_    0.508540 0.730452 0.863025 0.254752
H49   H     H_    0.980271 0.651850 0.285394 0.220512
H50   H     H_    0.828784 0.677320 0.290383 0.236343
H51   H     H_    0.818274 0.690220 0.395552 0.228434
H52   H     H_    0.815604 0.584598 0.394453 0.255234
H53   H     H_    0.013376 0.360352 0.708573 0.223773
H54   H     H_    0.874352 0.420552 0.815716 0.238926
H55   H     H_    0.842537 0.416649 0.728446 0.225045
H56   H     H_    0.296530 0.534138 0.915207 0.181311
H57   H     H_    0.845891 0.523431 0.726130 0.255215
H58   H     H_    0.752571 0.078885 0.744444 0.252253
H59   H     H_    0.771960 0.210588 0.599600 0.228332
H60   H     H_    0.722183 0.240900 0.704847 0.230466
H61   H     H_    0.648056 0.260414 0.643098 0.243806
H62   H     H_    0.256239 0.921303 0.246757 0.250070
H63   H     H_    0.297595 0.759371 0.275196 0.229519
H64   H     H_    0.359250 0.739696 0.349424 0.248214
H65   H     H_    0.403144 0.788902 0.226780 0.218326
H66   H     H_    0.857462 0.797895 0.770724 0.203593
H67   H     H_    0.276765 0.027480 0.475128 0.174865
H68   H     H_    0.938258 0.874558 0.775950 0.209444
H69   H     H_    0.040154 0.775304 0.775606 0.245256
H70   H     H_    0.942607 0.780599 0.878113 0.218531
H71   H     H_    0.127624 0.174285 0.278326 0.219267
H72   H     H_    0.067769 0.122503 0.219613 0.210438
H73   H     H_    0.080890 0.222104 0.123962 0.223163
H74   H     H_    0.971750 0.225656 0.215125 0.245567
H75   H     H_    0.729152 0.629575 0.187741 0.223480
H76   H     H_    0.817520 0.722461 0.125335 0.213145
H77   H     H_    0.710136 0.813036 0.135557 0.226221
H78   H     H_    0.703744 0.087643 0.464388 0.180717
H79   H     H_    0.772536 0.780859 0.029912 0.252851
H80   H     H_    0.375371 0.268671 0.811810 0.220152
H81   H     H_    0.280180 0.183329 0.870907 0.212963
H82   H     H_    0.189780 0.290469 0.861735 0.229260
H83   H     H_    0.219698 0.228249 0.967481 0.248965
H84   H     H_    0.471331 0.274503 0.033380 0.177088
N1    N     N_2   0.404370 0.043982 0.657330 -0.311698
N2    N     N_2   0.408300 0.695079 0.989017 -0.314495
N3    N     N_2   0.946095 0.605654 0.334681 -0.314711
N4    N     N_2   0.975336 0.427556 0.687184 -0.310032
N5    N     N_2   0.701534 0.123129 0.714373 -0.280714
N6    N     N_2   0.286733 0.877139 0.297231 -0.277327
N7    N     N_2   0.921946 0.757004 0.777275 -0.294905
N8    N     N_2   0.081217 0.226776 0.245834 -0.306829
N9    N     N_2   0.702607 0.689515 0.142526 -0.310084
N10   N     N_2   0.313943 0.296237 0.856387 -0.308271
N11   N     N_2   0.592156 0.011122 0.304047 -0.316693
N12   N     N_2   0.025406 0.676537 0.399857 -0.311932
N13   N     N_2   0.012005 0.318027 0.578287 -0.309970
N14   N     N_2   0.656232 0.405545 0.047371 -0.311521
N15   N     N_2   0.300836 0.586650 0.019562 -0.314006
N16   N     N_2   0.344113 0.953350 0.594898 -0.310328
N17   N     N_2   0.698579 0.984283 0.411531 -0.314214
N18   N     N_2   0.593486 0.339342 0.962684 -0.310675
O1    O     O_R   0.982940 0.138950 0.510160 -0.629625
O2    O     O_R   0.982940 0.510160 0.138950 -0.635389
O3    O     O_R   0.861050 0.017060 0.489840 -0.641060
O4    O     O_R   0.138950 0.982940 0.510160 -0.622600
O5    O     O_R   0.867700 0.025880 0.612340 -0.655417
O6    O     O_R   0.132300 0.974120 0.387660 -0.621217
O7    O     O_R   0.025880 0.612340 0.867700 -0.616869
O8    O     O_R   0.974120 0.387660 0.132300 -0.620103
O9    O     O_R   0.612340 0.867700 0.025880 -0.625511
O10   O     O_R   0.387660 0.132300 0.974120 -0.617998
O11   O     O_R   0.387660 0.974120 0.132300 -0.637158
O12   O     O_R   0.017060 0.861050 0.489840 -0.610642
O13   O     O_R   0.612340 0.025880 0.867700 -0.619798
O14   O     O_R   0.132300 0.387660 0.974120 -0.637222
O15   O     O_R   0.867700 0.612340 0.025880 -0.612168
O16   O     O_R   0.974120 0.132300 0.387660 -0.628049
O17   O     O_R   0.025880 0.867700 0.612340 -0.615663
O18   O     O_R   0.138950 0.510160 0.982940 -0.644639
O19   O     O_R   0.861050 0.489840 0.017060 -0.625432
O20   O     O_R   0.510160 0.982940 0.138950 -0.626193
O21   O     O_R   0.489840 0.017060 0.861050 -0.629998
O22   O     O_R   0.489840 0.861050 0.017060 -0.628946
O23   O     O_R   0.510160 0.138950 0.982940 -0.620764
O24   O     O_R   0.017060 0.489840 0.861050 -0.634848
Zn1   Zn    Zn3+2 0.004880 0.004880 0.583590 0.903371
Zn2   Zn    Zn3+2 0.995120 0.995120 0.416410 0.909113
Zn3   Zn    Zn3+2 0.004880 0.583590 0.004880 0.900404
Zn4   Zn    Zn3+2 0.995120 0.416410 0.995120 0.902650
Zn5   Zn    Zn3+2 0.583590 0.004880 0.004880 0.918900
Zn6   Zn    Zn3+2 0.416410 0.995120 0.995120 0.911419

loop_
_geom_bond_atom_site_label_1
_geom_bond_atom_site_label_2
_ccdc_geom_bond_type
H71   N8    S    
C16   C28   A    
H40   N18   S    
C11   C18   A    
H44   N2    S    
C31   H1    S    
C74   H48   S    
C46   C59   A    
C13   C19   A    
C34   C42   A    
C68   H19   S    
C64   H6    S    
C59   N6    S    
O17   Zn1   S    
H36   N17   S    
C62   N9    S    
C6    O10   A    
H31   N16   S    
H9    N11   S    
C75   H50   S    
C50   C84   S    
C80   H69   S    
C6    O23   A    
C70   H30   S    
C41   H2    S    
C18   C25   A    
O23   Zn5   S    
C63   N10   S    
C29   N13   S    
O13   Zn5   S    
C43   H4    S    
H75   N9    S    
C80   H70   S    
C2    O15   A    
C72   H37   S    
C75   H51   S    
C82   H79   S    
C35   C48   A    
C73   H42   S    
C5    O9    A    
C55   C61   A    
C1    C31   A    
C23   C43   A    
C24   N18   S    
C34   C35   A    
C66   H16   S    
C64   N1    S    
C76   N4    S    
C19   C26   A    
C28   N14   S    
O6    Zn2   S    
H53   N4    S    
C47   C60   A    
C37   C56   A    
C69   H25   S    
C4    O13   A    
H22   N14   S    
C26   N1    S    
C44   C58   A    
C40   C56   A    
C37   H56   S    
C33   H23   S    
O14   Zn4   S    
C8    O8    A    
C49   C62   A    
C7    O7    A    
O12   Zn2   S    
C15   C34   S    
O9    Zn5   S    
C69   N14   S    
C79   H65   S    
C76   H57   S    
C84   O18   A    
C39   C52   A    
O22   Zn6   S    
C74   H47   S    
C12   C32   A    
C50   C63   A    
H18   N13   S    
C66   H17   S    
C13   C25   A    
C9    C52   S    
C14   C30   A    
C9    O3    A    
C10   C51   S    
C8    C55   S    
C69   H24   S    
C67   O1    A    
C15   C29   A    
H58   N5    S    
C27   N15   S    
C20   C29   A    
C70   H29   S    
C41   C54   A    
C83   H82   S    
C68   N13   S    
C17   C24   A    
C81   H73   S    
C31   C44   A    
C71   H33   S    
C17   C27   A    
C81   N8    S    
C14   C20   A    
C5    C54   S    
C78   O17   A    
C1    C39   A    
C75   H52   S    
C57   C60   A    
C79   H63   S    
C38   C51   A    
C4    C44   S    
C11   C26   A    
C23   C33   A    
C73   H43   S    
C66   N12   S    
O18   Zn3   S    
O3    Zn2   S    
C84   O14   A    
C24   C28   A    
C14   C23   S    
C16   C45   S    
O4    Zn1   S    
C77   H59   S    
C2    C49   S    
C42   C55   A    
C82   H76   S    
C69   H26   S    
C73   H41   S    
C15   C21   A    
H27   N15   S    
C36   C45   A    
C2    O19   A    
C10   O4    A    
C39   H78   S    
O7    Zn3   S    
C83   H81   S    
C17   C56   S    
O15   Zn3   S    
C22   N2    S    
O11   Zn6   S    
C52   C58   A    
C77   N5    S    
C65   H10   S    
C20   N4    S    
O1    Zn1   S    
O19   Zn4   S    
C22   C27   A    
C74   H46   S    
C72   H39   S    
C73   N18   S    
C33   C47   A    
C40   H84   S    
C58   N5    S    
C79   N6    S    
C68   H21   S    
C64   H8    S    
C6    C53   S    
H14   N12   S    
C77   H61   S    
C38   H67   S    
C7    O24   A    
H80   N10   S    
C4    O21   A    
C76   H55   S    
C80   H68   S    
C16   C22   A    
C81   H74   S    
C18   N17   S    
C83   N10   S    
C72   H38   S    
C3    O20   A    
C32   C46   A    
C71   N16   S    
C68   H20   S    
C80   N7    S    
O16   Zn2   S    
C66   H15   S    
C19   N16   S    
O8    Zn4   S    
O2    Zn3   S    
C25   N11   S    
C61   N8    S    
C79   H64   S    
C42   H3    S    
C82   H77   S    
C76   H54   S    
C65   N11   S    
C21   C30   A    
C3    C46   S    
C47   C78   S    
C71   H35   S    
H49   N3    S    
C77   H60   S    
H5    N1    S    
C32   H12   S    
C67   O16   A    
C21   N3    S    
C36   H45   S    
C5    O22   A    
C75   N3    S    
C37   C50   A    
C53   C63   A    
C48   C61   A    
C83   H83   S    
O10   Zn6   S    
H62   N6    S    
C82   N9    S    
O21   Zn6   S    
C3    O11   A    
C7    C57   S    
C71   H32   S    
H66   N7    S    
C48   C67   S    
C12   C38   A    
C70   H28   S    
C10   O6    A    
C72   N17   S    
C74   N2    S    
O20   Zn5   S    
C43   C57   A    
C65   H13   S    
C30   N12   S    
C70   N15   S    
C65   H11   S    
C51   C59   A    
C12   C13   S    
C40   C53   A    
C81   H72   S    
C60   N7    S    
C41   C45   A    
C54   C62   A    
C35   H34   S    
C1    C11   S    
C78   O12   A    
C64   H7    S    
O24   Zn4   S    
C9    O5    A    
C8    O2    A    
C36   C49   A    
O5    Zn1   S    
