data_mof_unit_66561.cif
_audit_creation_date              2012-12-11T15:26:46-0500
_audit_creation_method            fapswitch 2.2
_symmetry_space_group_name_H-M    P1
_symmetry_Int_Tables_number       1
_space_group_crystal_system       triclinic
_cell_length_a                    7.393813
_cell_length_b                    12.655177
_cell_length_c                    28.79534
_cell_angle_alpha                 89.999849
_cell_angle_beta                  89.996724
_cell_angle_gamma                 90.000305
_cell_volume                      2694.38031122

loop_
_atom_site_label
_atom_site_type_symbol
_atom_type_description
_atom_site_fract_x
_atom_site_fract_y
_atom_site_fract_z
_atom_type_partial_charge
O1    O     O_R   0.647170 0.849180 0.201220 -0.532818
O2    O     O_R   0.352830 0.150820 0.798780 -0.532818
O3    O     O_R   0.352830 0.150820 0.701220 -0.532816
O4    O     O_R   0.647170 0.849180 0.298780 -0.532816
O5    O     O_R   0.147170 0.650820 0.298780 -0.532816
O6    O     O_R   0.852830 0.349180 0.701220 -0.532817
O7    O     O_R   0.852830 0.349180 0.798780 -0.532818
O8    O     O_R   0.147170 0.650820 0.201220 -0.532819
O9    O     O_R   0.317430 0.862210 0.298450 -0.524268
O10   O     O_R   0.682570 0.137790 0.701550 -0.524264
O11   O     O_R   0.682570 0.137790 0.798450 -0.524257
O12   O     O_R   0.317430 0.862210 0.201550 -0.524262
O13   O     O_R   0.817430 0.637790 0.201550 -0.524262
O14   O     O_R   0.182570 0.362210 0.798450 -0.524260
O15   O     O_R   0.182570 0.362210 0.701550 -0.524264
O16   O     O_R   0.817430 0.637790 0.298450 -0.524269
C1    C     C_R   0.485964 0.884868 0.313749 0.746790
C2    C     C_R   0.514036 0.115130 0.686251 0.746782
C3    C     C_R   0.514030 0.115130 0.813749 0.746778
C4    C     C_R   0.485969 0.884868 0.186251 0.746788
C5    C     C_R   0.985970 0.615132 0.186251 0.746788
C6    C     C_R   0.014031 0.384870 0.813748 0.746781
C7    C     C_R   0.014036 0.384870 0.686251 0.746781
C8    C     C_R   0.985964 0.615131 0.313749 0.746792
H1    H     H_    0.851887 0.563631 0.691200 0.128361
H2    H     H_    0.148057 0.436359 0.308794 0.128344
H3    H     H_    0.148102 0.436367 0.191197 0.128360
H4    H     H_    0.851891 0.563638 0.808804 0.128359
H5    H     H_    0.351838 0.936374 0.808808 0.128365
H6    H     H_    0.648094 0.063636 0.191197 0.128357
H7    H     H_    0.648074 0.063636 0.308796 0.128353
H8    H     H_    0.351891 0.936367 0.691200 0.128360
O17   O     O_3   0.480630 0.680630 0.250000 -0.385667
O18   O     O_3   0.519370 0.319370 0.750000 -0.385664
O19   O     O_3   0.980630 0.819370 0.250000 -0.385666
O20   O     O_3   0.019370 0.180630 0.750000 -0.385663
V1    V     V_3+5 0.205800 0.762860 0.250000 1.564045
V2    V     V_3+5 0.794200 0.237140 0.750000 1.564053
V3    V     V_3+5 0.705800 0.737140 0.250000 1.564046
V4    V     V_3+5 0.294200 0.262860 0.750000 1.564052
H9    H     H_    0.006121 0.304251 0.536475 0.208541
H10   H     H_    0.993970 0.695768 0.463528 0.208558
H11   H     H_    0.993972 0.695766 0.036473 0.208547
H12   H     H_    0.006081 0.304250 0.963525 0.208535
H13   H     H_    0.506095 0.195747 0.963523 0.208532
H14   H     H_    0.493983 0.804232 0.036474 0.208548
H15   H     H_    0.493963 0.804233 0.463529 0.208556
H16   H     H_    0.506120 0.195750 0.536474 0.208542
C9    C     C_R   0.000513 0.537768 0.351782 -0.099413
C10   C     C_R   0.999491 0.462235 0.648219 -0.099427
C11   C     C_R   0.999477 0.462233 0.851782 -0.099433
C12   C     C_R   0.000528 0.537772 0.148217 -0.099423
C13   C     C_R   0.500528 0.962229 0.148217 -0.099423
C14   C     C_R   0.499473 0.037767 0.851783 -0.099430
C15   C     C_R   0.499491 0.037765 0.648219 -0.099425
C16   C     C_R   0.500514 0.962231 0.351782 -0.099410
C17   C     C_R   0.120421 0.368161 0.377953 0.135660
C18   C     C_R   0.879619 0.631851 0.622047 0.135646
C19   C     C_R   0.879634 0.631857 0.877956 0.135646
C20   C     C_R   0.120390 0.368153 0.122043 0.135644
C21   C     C_R   0.620391 0.131848 0.122043 0.135642
C22   C     C_R   0.379626 0.868144 0.877957 0.135639
C23   C     C_R   0.379618 0.868149 0.622047 0.135646
C24   C     C_R   0.620420 0.131839 0.377953 0.135660
C25   C     C_R   0.098663 0.446680 0.343767 -0.192563
C26   C     C_R   0.901329 0.553320 0.656231 -0.192543
C27   C     C_R   0.901328 0.553324 0.843772 -0.192538
C28   C     C_R   0.098676 0.446682 0.156228 -0.192545
C29   C     C_R   0.598674 0.053320 0.156228 -0.192549
C30   C     C_R   0.401304 0.946682 0.843774 -0.192539
C31   C     C_R   0.401329 0.946679 0.656231 -0.192544
C32   C     C_R   0.598669 0.053318 0.343767 -0.192576
C33   C     C_R   0.936049 0.559212 0.396261 0.213392
C34   C     C_R   0.063996 0.440803 0.603742 0.213379
C35   C     C_R   0.063982 0.440800 0.896258 0.213382
C36   C     C_R   0.936045 0.559211 0.103740 0.213393
C37   C     C_R   0.436048 0.940789 0.103740 0.213394
C38   C     C_R   0.563991 0.059195 0.896257 0.213379
C39   C     C_R   0.563993 0.059198 0.603742 0.213381
C40   C     C_R   0.436046 0.940789 0.396261 0.213392
C41   C     C_R   0.996465 0.496597 0.434455 0.002965
C42   C     C_R   0.003596 0.503420 0.565547 0.002967
C43   C     C_R   0.003588 0.503419 0.934454 0.002959
C44   C     C_R   0.996449 0.496594 0.065544 0.002964
C45   C     C_R   0.496455 0.003405 0.065544 0.002966
C46   C     C_R   0.503596 0.996577 0.934454 0.002962
C47   C     C_R   0.503593 0.996582 0.565547 0.002968
C48   C     C_R   0.496460 0.003404 0.434455 0.002966
C49   C     C_R   0.067112 0.392563 0.425306 -0.041395
C50   C     C_R   0.932949 0.607454 0.574695 -0.041406
C51   C     C_R   0.932956 0.607457 0.925307 -0.041415
C52   C     C_R   0.067082 0.392556 0.074692 -0.041405
C53   C     C_R   0.567086 0.107444 0.074691 -0.041404
C54   C     C_R   0.432959 0.892541 0.925307 -0.041410
C55   C     C_R   0.432947 0.892547 0.574695 -0.041406
C56   C     C_R   0.567109 0.107438 0.425306 -0.041392
C57   C     C_R   0.986738 0.534419 0.481296 0.015860
C58   C     C_R   0.013336 0.465599 0.518706 0.015867
C59   C     C_R   0.013318 0.465598 0.981294 0.015867
C60   C     C_R   0.986726 0.534417 0.018704 0.015861
C61   C     C_R   0.486735 0.965581 0.018704 0.015860
C62   C     C_R   0.513328 0.034400 0.981294 0.015868
C63   C     C_R   0.513332 0.034402 0.518706 0.015866
C64   C     C_R   0.486733 0.965582 0.481296 0.015860
C65   C     C_R   0.032340 0.358351 0.508633 -0.119184
C66   C     C_R   0.967744 0.641668 0.491370 -0.119174
C67   C     C_R   0.967744 0.641668 0.008631 -0.119175
C68   C     C_R   0.032307 0.358348 0.991367 -0.119180
C69   C     C_R   0.532317 0.141650 0.991366 -0.119181
C70   C     C_R   0.467754 0.858330 0.008632 -0.119176
C71   C     C_R   0.467739 0.858333 0.491370 -0.119174
C72   C     C_R   0.532337 0.141650 0.508632 -0.119185
C73   C     C_R   0.070801 0.319509 0.463861 0.102121
C74   C     C_R   0.929279 0.680510 0.536142 0.102117
C75   C     C_R   0.929291 0.680513 0.963860 0.102124
C76   C     C_R   0.070763 0.319504 0.036137 0.102118
C77   C     C_R   0.570767 0.180495 0.036136 0.102120
C78   C     C_R   0.429295 0.819485 0.963862 0.102125
C79   C     C_R   0.429276 0.819491 0.536142 0.102117
C80   C     C_R   0.570800 0.180491 0.463860 0.102117
C81   C     C_3   0.093960 0.199826 0.458371 -0.387452
C82   C     C_3   0.082986 0.131805 0.502051 -0.699724
H17   H     H_    0.174422 0.160611 0.529748 0.262230
H18   H     H_    0.941711 0.129178 0.514599 0.262415
H19   H     H_    0.126865 0.050680 0.493329 0.227372
H20   H     H_    0.988207 0.168527 0.435077 0.186990
H21   H     H_    0.227669 0.182717 0.444200 0.199436
C83   C     C_3   0.906128 0.800193 0.541632 -0.387435
C84   C     C_3   0.917100 0.868215 0.497952 -0.699717
H22   H     H_    0.058376 0.870844 0.485405 0.262411
H23   H     H_    0.825666 0.839409 0.470255 0.262238
H24   H     H_    0.873219 0.949339 0.506675 0.227376
H25   H     H_    0.772419 0.817305 0.555803 0.199437
H26   H     H_    0.011889 0.831488 0.564926 0.186996
C85   C     C_3   0.906157 0.800198 0.958372 -0.387431
C86   C     C_3   0.917112 0.868214 0.002053 -0.699731
H27   H     H_    0.825667 0.839405 0.029749 0.262232
H28   H     H_    0.058382 0.870843 0.014600 0.262411
H29   H     H_    0.873229 0.949339 0.993332 0.227375
H30   H     H_    0.011931 0.831490 0.935077 0.187001
H31   H     H_    0.772456 0.817318 0.944200 0.199437
C87   C     C_3   0.093915 0.199819 0.041624 -0.387442
C88   C     C_3   0.082974 0.131805 0.997942 -0.699724
H32   H     H_    0.941705 0.129171 0.985394 0.262412
H33   H     H_    0.174418 0.160621 0.970247 0.262232
H34   H     H_    0.126865 0.050681 0.006663 0.227369
H35   H     H_    0.227618 0.182708 0.055797 0.199435
H36   H     H_    0.988142 0.168520 0.064918 0.186992
C89   C     C_3   0.593912 0.300180 0.041623 -0.387442
C90   C     C_3   0.582966 0.368194 0.997941 -0.699728
H37   H     H_    0.674411 0.339381 0.970246 0.262226
H38   H     H_    0.441697 0.370826 0.985393 0.262414
H39   H     H_    0.626853 0.449319 0.006661 0.227369
H40   H     H_    0.488137 0.331477 0.064916 0.186992
H41   H     H_    0.727613 0.317294 0.055796 0.199435
C91   C     C_3   0.406152 0.699800 0.958373 -0.387430
C92   C     C_3   0.417100 0.631785 0.002055 -0.699727
H42   H     H_    0.558370 0.629151 0.014603 0.262410
H43   H     H_    0.325659 0.660598 0.029751 0.262236
H44   H     H_    0.373211 0.550661 0.993335 0.227373
H45   H     H_    0.272451 0.682683 0.944202 0.199437
H46   H     H_    0.511925 0.668504 0.935080 0.187000
C93   C     C_3   0.406130 0.699807 0.541632 -0.387436
C94   C     C_3   0.417106 0.631786 0.497953 -0.699719
H47   H     H_    0.325670 0.660590 0.470256 0.262235
H48   H     H_    0.558381 0.629158 0.485406 0.262412
H49   H     H_    0.373228 0.550661 0.506676 0.227378
H50   H     H_    0.511892 0.668514 0.564927 0.186996
H51   H     H_    0.272421 0.682694 0.555804 0.199437
C95   C     C_3   0.593963 0.300175 0.458370 -0.387451
C96   C     C_3   0.582991 0.368196 0.502050 -0.699722
H52   H     H_    0.441716 0.370824 0.514598 0.262413
H53   H     H_    0.674426 0.339389 0.529747 0.262231
H54   H     H_    0.626872 0.449320 0.493327 0.227373
H55   H     H_    0.727674 0.317282 0.444199 0.199436
H56   H     H_    0.488211 0.331476 0.435075 0.186990
C97   C     C_3   0.204209 0.263047 0.362566 -0.344675
C98   C     C_3   0.262321 0.253041 0.311753 -0.790156
H57   H     H_    0.144189 0.262916 0.288708 0.220503
H58   H     H_    0.366896 0.312708 0.303094 0.235510
H59   H     H_    0.318801 0.173174 0.305332 0.230338
H60   H     H_    0.326322 0.249767 0.382930 0.178720
H61   H     H_    0.109027 0.197177 0.368036 0.193800
C99   C     C_3   0.795867 0.736974 0.637435 -0.344677
C100  C     C_3   0.737793 0.746992 0.688251 -0.790154
H62   H     H_    0.633158 0.687362 0.696912 0.235506
H63   H     H_    0.855928 0.737066 0.711291 0.220499
H64   H     H_    0.681406 0.826881 0.694678 0.230333
H65   H     H_    0.891070 0.802832 0.631962 0.193803
H66   H     H_    0.673748 0.750268 0.617075 0.178727
C101  C     C_3   0.795916 0.736989 0.862568 -0.344695
C102  C     C_3   0.737861 0.747009 0.811753 -0.790135
H67   H     H_    0.856002 0.737065 0.788712 0.220489
H68   H     H_    0.633212 0.687383 0.803094 0.235506
H69   H     H_    0.681490 0.826905 0.805327 0.230336
H70   H     H_    0.673791 0.750298 0.882929 0.178736
H71   H     H_    0.891137 0.802840 0.868040 0.193801
C103  C     C_3   0.204125 0.263027 0.137430 -0.344670
C104  C     C_3   0.262168 0.253004 0.188246 -0.790154
H72   H     H_    0.366796 0.312634 0.196910 0.235505
H73   H     H_    0.144021 0.262927 0.211286 0.220489
H74   H     H_    0.318556 0.173115 0.194672 0.230337
H75   H     H_    0.108922 0.197171 0.131956 0.193799
H76   H     H_    0.326256 0.249732 0.117070 0.178724
C105  C     C_3   0.704125 0.236975 0.137430 -0.344668
C106  C     C_3   0.762167 0.246999 0.188245 -0.790146
H77   H     H_    0.644021 0.237073 0.211285 0.220488
H78   H     H_    0.866799 0.187371 0.196909 0.235505
H79   H     H_    0.818548 0.326889 0.194671 0.230336
H80   H     H_    0.826255 0.250270 0.117070 0.178724
H81   H     H_    0.608922 0.302830 0.131954 0.193798
C107  C     C_3   0.295917 0.763010 0.862569 -0.344702
C108  C     C_3   0.237876 0.752989 0.811753 -0.790102
H82   H     H_    0.133191 0.812598 0.803097 0.235496
H83   H     H_    0.356015 0.762967 0.788713 0.220484
H84   H     H_    0.181556 0.673080 0.805323 0.230332
H85   H     H_    0.391142 0.697162 0.868041 0.193804
H86   H     H_    0.173790 0.749698 0.882928 0.178735
C109  C     C_3   0.295866 0.763026 0.637436 -0.344676
C110  C     C_3   0.237792 0.753007 0.688251 -0.790155
H87   H     H_    0.355927 0.762930 0.711291 0.220499
H88   H     H_    0.133160 0.812638 0.696913 0.235505
H89   H     H_    0.181401 0.673119 0.694677 0.230333
H90   H     H_    0.173747 0.749732 0.617075 0.178728
H91   H     H_    0.391068 0.697168 0.631963 0.193801
C111  C     C_3   0.704206 0.236952 0.362564 -0.344665
C112  C     C_3   0.762307 0.246958 0.311751 -0.790192
H92   H     H_    0.866896 0.187301 0.303092 0.235511
H93   H     H_    0.644181 0.237068 0.288706 0.220504
H94   H     H_    0.818762 0.326827 0.305326 0.230342
H95   H     H_    0.609024 0.302822 0.368035 0.193802
H96   H     H_    0.826322 0.250234 0.382927 0.178720
Br1   Br    Br    0.258646 0.338704 0.598882 -0.608547
Br2   Br    Br    0.741426 0.661328 0.401124 -0.608556
Br3   Br    Br    0.741416 0.661324 0.098882 -0.608543
Br4   Br    Br    0.258627 0.338697 0.901113 -0.608543
Br5   Br    Br    0.758643 0.161293 0.901112 -0.608541
Br6   Br    Br    0.241421 0.838674 0.098882 -0.608544
Br7   Br    Br    0.241421 0.838674 0.401124 -0.608556
Br8   Br    Br    0.758640 0.161298 0.598882 -0.608550

loop_
_geom_bond_atom_site_label_1
_geom_bond_atom_site_label_2
_ccdc_geom_bond_type
C88   H34   S    
C96   H52   S    
C48   C56   A    
C61   C62   A    
O5    V1    S    
C19   C101  S    
C93   C94   S    
C9    C33   A    
C13   C29   A    
C83   C84   S    
C36   C44   A    
C110  H88   S    
C57   C58   A    
C69   C77   A    
C85   C86   S    
C95   H56   S    
C108  H82   S    
C50   C74   A    
C59   C68   A    
C96   H53   S    
O11   C3    A    
O17   V3    S    
C58   C65   A    
C9    C25   A    
C66   C74   A    
O18   V4    S    
C40   Br7   S    
C71   C79   A    
C94   H47   S    
O19   V1    S    
C11   C35   A    
C81   H21   S    
C10   C34   A    
H13   C69   S    
C100  H63   S    
C95   C96   S    
C105  H81   S    
C88   H32   S    
C23   C55   A    
C74   C83   S    
C99   C100  S    
C22   C30   A    
O3    C2    A    
C18   C99   S    
O1    C4    A    
C23   C109  S    
O12   V1    S    
C101  H70   S    
H3    C28   S    
C46   C54   A    
C37   C45   A    
C19   C27   A    
C109  H90   S    
C45   C53   A    
C18   C26   A    
C92   H42   S    
C112  H92   S    
C75   C85   S    
C16   C32   A    
C90   H39   S    
C47   C55   A    
C65   C73   A    
C104  H74   S    
O6    V2    S    
C78   C91   S    
C103  C104  S    
C99   H65   S    
C12   C28   A    
C20   C103  S    
C84   H24   S    
C41   C49   A    
C38   C46   A    
O15   C7    A    
C91   H46   S    
C104  H72   S    
C92   H43   S    
C43   C59   A    
O14   C6    A    
C42   C58   A    
C70   C78   A    
C53   C77   A    
C39   Br8   S    
C34   C42   A    
C86   H29   S    
C39   C47   A    
C110  H87   S    
C48   C64   A    
C98   H57   S    
H8    C31   S    
C95   H55   S    
H12   C68   S    
C85   H30   S    
C111  H95   S    
C96   H54   S    
C49   C73   A    
O3    V4    S    
C101  C102  S    
C44   C60   A    
C102  H69   S    
C87   H36   S    
C5    C12   S    
H4    C27   S    
C24   C56   A    
C86   H28   S    
C79   C93   S    
C109  C110  S    
C72   C80   A    
C106  H77   S    
C86   H27   S    
C100  H64   S    
C11   C27   A    
C55   C79   A    
C61   C70   A    
C105  C106  S    
C99   H66   S    
C63   C72   A    
C102  H68   S    
O11   V2    S    
C13   C37   A    
C89   H40   S    
C83   H26   S    
C15   C39   A    
C59   C60   A    
C14   C30   A    
O4    V3    S    
C24   C111  S    
C106  H78   S    
O12   C4    A    
O9    V1    S    
O8    C5    A    
C81   C82   S    
O13   C5    A    
C35   Br4   S    
H11   C67   S    
C109  H91   S    
C34   Br1   S    
C18   C50   A    
C1    C16   S    
C67   C75   A    
C33   Br2   S    
C17   C49   A    
C2    C15   S    
C33   C41   A    
C47   C63   A    
C57   C66   A    
C3    C14   S    
O9    C1    A    
H7    C32   S    
C112  H93   S    
C23   C31   A    
C91   H45   S    
C97   C98   S    
C38   Br5   S    
C22   C54   A    
C103  H76   S    
C37   Br6   S    
C90   H38   S    
O8    V1    S    
O4    C1    A    
C82   H18   S    
C111  H96   S    
C46   C62   A    
C63   C64   A    
H6    C29   S    
C45   C61   A    
H5    C30   S    
C19   C51   A    
C108  H84   S    
C21   C29   A    
C8    C9    S    
C88   H33   S    
C91   C92   S    
C60   C67   A    
H16   C72   S    
O2    C3    A    
C87   C88   S    
H2    C25   S    
C87   H35   S    
C56   C80   A    
C94   H49   S    
H1    C26   S    
C101  H71   S    
C17   C25   A    
C4    C13   S    
C7    C10   S    
C42   C50   A    
C76   C87   S    
C64   C71   A    
C98   H58   S    
C10   C26   A    
C92   H44   S    
O7    C6    A    
C43   C51   A    
C52   C76   A    
C12   C36   A    
O10   V2    S    
C102  H67   S    
C68   C76   A    
C82   H19   S    
H14   C70   S    
C16   C40   A    
C84   H22   S    
C108  H83   S    
C81   H20   S    
C40   C48   A    
C97   H61   S    
C83   H25   S    
O20   V2    S    
C17   C97   S    
C54   C78   A    
C106  H79   S    
C35   C43   A    
C100  H62   S    
C107  C108  S    
O5    C8    A    
C107  H86   S    
C105  H80   S    
O10   C2    A    
H15   C71   S    
O6    C7    A    
C94   H48   S    
C41   C57   A    
O7    V2    S    
C51   C75   A    
C93   H50   S    
C36   Br3   S    
C21   C53   A    
C24   C32   A    
C89   H41   S    
C93   H51   S    
O15   V4    S    
O13   V3    S    
C98   H59   S    
O1    V3    S    
O16   V3    S    
O14   V4    S    
H10   C66   S    
O2    V4    S    
C85   H31   S    
C112  H94   S    
C73   C81   S    
H9    C65   S    
C20   C28   A    
O16   C8    A    
C111  C112  S    
C107  H85   S    
C103  H75   S    
C104  H73   S    
C22   C107  S    
C90   H37   S    
C62   C69   A    
C77   C89   S    
C44   C52   A    
C84   H23   S    
C82   H17   S    
C89   C90   S    
C20   C52   A    
C80   C95   S    
C110  H89   S    
C15   C31   A    
C97   H60   S    
C21   C105  S    
C6    C11   S    
C14   C38   A    
