data_mof_unit_62454.cif
_audit_creation_date              2012-12-10T17:49:59-0500
_audit_creation_method            fapswitch 2.2
_symmetry_space_group_name_H-M    P1
_symmetry_Int_Tables_number       1
_space_group_crystal_system       triclinic
_cell_length_a                    27.796405
_cell_length_b                    36.139206
_cell_length_c                    27.787704
_cell_angle_alpha                 89.893018
_cell_angle_beta                  90.000143
_cell_angle_gamma                 90.000469
_cell_volume                      27913.8116924

loop_
_atom_site_label
_atom_site_type_symbol
_atom_type_description
_atom_site_fract_x
_atom_site_fract_y
_atom_site_fract_z
_atom_type_partial_charge
C1    C     C_R   0.500016 0.650299 0.250057 0.824834
C2    C     C_R   0.500009 0.650286 0.750073 0.826427
C3    C     C_R   0.500016 0.349701 0.749942 0.824848
C4    C     C_R   0.500008 0.349714 0.249929 0.826426
C5    C     C_R   0.500016 0.150299 0.750057 0.824804
C6    C     C_R   0.500007 0.150286 0.250071 0.826434
C7    C     C_R   0.500015 0.849701 0.249942 0.824800
C8    C     C_R   0.500008 0.849714 0.749929 0.826444
C9    C     C_R   0.000017 0.650299 0.750057 0.824836
C10   C     C_R   0.000009 0.650286 0.250072 0.826428
C11   C     C_R   0.000017 0.349701 0.249942 0.824849
C12   C     C_R   0.000008 0.349714 0.749929 0.826428
C13   C     C_R   0.000017 0.150299 0.250055 0.824862
C14   C     C_R   0.000012 0.150286 0.750077 0.826406
C15   C     C_R   0.000017 0.849701 0.749943 0.824869
C16   C     C_R   0.000011 0.849714 0.249925 0.826409
C17   C     C_3   0.490779 0.977757 0.303945 0.378992
C18   C     C_3   0.489459 0.978741 0.695616 0.352320
C19   C     C_3   0.490766 0.022243 0.696057 0.379021
C20   C     C_3   0.489475 0.021259 0.304387 0.352311
C21   C     C_3   0.490650 0.477755 0.803928 0.379109
C22   C     C_3   0.489446 0.478739 0.195606 0.352514
C23   C     C_3   0.490719 0.522243 0.196053 0.378999
C24   C     C_3   0.489395 0.521259 0.804381 0.352600
C25   C     C_3   0.990534 0.977757 0.803965 0.378686
C26   C     C_3   0.989362 0.978739 0.195582 0.352261
C27   C     C_3   0.990568 0.022242 0.196034 0.378719
C28   C     C_3   0.989337 0.021259 0.804419 0.352239
C29   C     C_3   0.990645 0.477755 0.303925 0.379128
C30   C     C_3   0.989436 0.478739 0.695610 0.352534
C31   C     C_3   0.990710 0.522243 0.696057 0.379020
C32   C     C_3   0.989388 0.521259 0.304377 0.352617
C33   C     C_1   0.000188 0.610609 0.250679 -0.162688
C34   C     C_1   0.000209 0.610651 0.749933 -0.164577
C35   C     C_1   0.000185 0.389391 0.749324 -0.162692
C36   C     C_1   0.000214 0.389349 0.250067 -0.164587
C37   C     C_1   0.000205 0.110610 0.750699 -0.162654
C38   C     C_1   0.000215 0.110650 0.249925 -0.164764
C39   C     C_1   0.000203 0.889390 0.249305 -0.162668
C40   C     C_1   0.000217 0.889350 0.750073 -0.164782
C41   C     C_1   0.500189 0.610609 0.750680 -0.162686
C42   C     C_1   0.500210 0.610651 0.249933 -0.164581
C43   C     C_1   0.500185 0.389391 0.249324 -0.162691
C44   C     C_1   0.500214 0.389349 0.750068 -0.164595
C45   C     C_1   0.500175 0.110609 0.250668 -0.162752
C46   C     C_1   0.500204 0.110651 0.749938 -0.164459
C47   C     C_1   0.500184 0.889391 0.749326 -0.162778
C48   C     C_1   0.500202 0.889349 0.250061 -0.164459
C49   C     C_3   0.499858 0.963448 0.251799 0.211925
C50   C     C_3   0.499642 0.963527 0.747389 0.205826
C51   C     C_3   0.499866 0.036552 0.748198 0.211921
C52   C     C_3   0.499624 0.036473 0.252603 0.205826
C53   C     C_3   0.499883 0.463448 0.751820 0.211925
C54   C     C_3   0.499644 0.463527 0.247378 0.205807
C55   C     C_3   0.499873 0.536552 0.248181 0.211928
C56   C     C_3   0.499650 0.536473 0.752627 0.205815
C57   C     C_3   0.999892 0.963449 0.751833 0.211866
C58   C     C_3   0.999676 0.963526 0.247357 0.205838
C59   C     C_3   0.999887 0.036551 0.248167 0.211869
C60   C     C_3   0.999679 0.036474 0.752646 0.205836
C61   C     C_3   0.999882 0.463448 0.251820 0.211928
C62   C     C_3   0.999642 0.463527 0.747378 0.205808
C63   C     C_3   0.999872 0.536552 0.748181 0.211932
C64   C     C_3   0.999648 0.536473 0.252626 0.205815
C65   C     C_3   0.960627 0.521579 0.217746 -0.371456
C66   C     C_3   0.960139 0.521285 0.782036 -0.376239
C67   C     C_3   0.960577 0.478421 0.782218 -0.371394
C68   C     C_3   0.960202 0.478715 0.217913 -0.376263
C69   C     C_3   0.960671 0.021588 0.717684 -0.371278
C70   C     C_3   0.960233 0.021277 0.282161 -0.375951
C71   C     C_3   0.960651 0.978413 0.282294 -0.371278
C72   C     C_3   0.960258 0.978724 0.717807 -0.375905
C73   C     C_3   0.460623 0.521579 0.717750 -0.371447
C74   C     C_3   0.460133 0.521285 0.282031 -0.376222
C75   C     C_3   0.460571 0.478420 0.282211 -0.371383
C76   C     C_3   0.460199 0.478715 0.717915 -0.376246
C77   C     C_3   0.460512 0.021578 0.217808 -0.371296
C78   C     C_3   0.460089 0.021283 0.782009 -0.376229
C79   C     C_3   0.460551 0.978418 0.782208 -0.371288
C80   C     C_3   0.460060 0.978713 0.218005 -0.376209
C81   C     C_1   0.000052 0.577258 0.251593 -0.082870
C82   C     C_1   0.000211 0.577312 0.749385 -0.055410
C83   C     C_1   0.000047 0.422742 0.748412 -0.082890
C84   C     C_1   0.000220 0.422687 0.250616 -0.055430
C85   C     C_1   0.000081 0.077258 0.751620 -0.082639
C86   C     C_1   0.000220 0.077312 0.249372 -0.055677
C87   C     C_1   0.000078 0.922741 0.248385 -0.082675
C88   C     C_1   0.000224 0.922688 0.750626 -0.055708
C89   C     C_1   0.500053 0.577257 0.751594 -0.082861
C90   C     C_1   0.500212 0.577312 0.249385 -0.055419
C91   C     C_1   0.500048 0.422742 0.248410 -0.082883
C92   C     C_1   0.500221 0.422687 0.750616 -0.055441
C93   C     C_1   0.500031 0.077257 0.251574 -0.083036
C94   C     C_1   0.500203 0.077312 0.749397 -0.055294
C95   C     C_1   0.500047 0.922742 0.748417 -0.083086
C96   C     C_1   0.500199 0.922687 0.250601 -0.055283
C97   C     C_1   0.500057 0.750030 0.431112 -0.152280
C98   C     C_1   0.499963 0.750083 0.568885 -0.150787
C99   C     C_1   0.500057 0.249970 0.568888 -0.152284
C100  C     C_1   0.499963 0.249917 0.431115 -0.150793
C101  C     C_1   0.500056 0.250030 0.931112 -0.152313
C102  C     C_1   0.499963 0.250082 0.068885 -0.150802
C103  C     C_1   0.500057 0.749970 0.068888 -0.152315
C104  C     C_1   0.499963 0.749917 0.931115 -0.150803
C105  C     C_1   0.000056 0.750029 0.931112 -0.152380
C106  C     C_1   0.999963 0.750082 0.068885 -0.150814
C107  C     C_1   0.000056 0.249970 0.068888 -0.152374
C108  C     C_1   0.999963 0.249918 0.931115 -0.150816
C109  C     C_1   0.000056 0.250030 0.431112 -0.152306
C110  C     C_1   0.999963 0.250082 0.568885 -0.150798
C111  C     C_1   0.000056 0.749970 0.568888 -0.152308
C112  C     C_1   0.999963 0.749917 0.431115 -0.150798
C113  C     C_1   0.500035 0.750073 0.474550 -0.002315
C114  C     C_1   0.499989 0.750098 0.525446 -0.001655
C115  C     C_1   0.500035 0.249927 0.525450 -0.002318
C116  C     C_1   0.499989 0.249902 0.474554 -0.001660
C117  C     C_1   0.500035 0.250072 0.974550 -0.002318
C118  C     C_1   0.499989 0.250098 0.025446 -0.001668
C119  C     C_1   0.500035 0.749927 0.025450 -0.002321
C120  C     C_1   0.499989 0.749902 0.974554 -0.001668
C121  C     C_1   0.000034 0.750072 0.974550 -0.002341
C122  C     C_1   0.999988 0.750098 0.025446 -0.001684
C123  C     C_1   0.000034 0.249928 0.025450 -0.002342
C124  C     C_1   0.999989 0.249902 0.974554 -0.001685
C125  C     C_1   0.000035 0.250072 0.474550 -0.002312
C126  C     C_1   0.999989 0.250098 0.525446 -0.001662
C127  C     C_1   0.000035 0.749927 0.525450 -0.002314
C128  C     C_1   0.999989 0.749902 0.474554 -0.001661
C129  C     C_R   0.500021 0.749997 0.120619 0.821364
C130  C     C_R   0.499974 0.749979 0.879382 0.821257
C131  C     C_R   0.500021 0.250003 0.879381 0.821366
C132  C     C_R   0.499974 0.250021 0.120618 0.821253
C133  C     C_R   0.500021 0.249997 0.620619 0.821366
C134  C     C_R   0.499974 0.249979 0.379382 0.821262
C135  C     C_R   0.500021 0.750003 0.379381 0.821361
C136  C     C_R   0.499974 0.750021 0.620618 0.821261
C137  C     C_R   0.000021 0.749997 0.620619 0.821368
C138  C     C_R   0.999974 0.749979 0.379382 0.821262
C139  C     C_R   0.000021 0.250003 0.379381 0.821369
C140  C     C_R   0.999974 0.250021 0.620618 0.821258
C141  C     C_R   0.000021 0.249997 0.120619 0.821361
C142  C     C_R   0.999974 0.249979 0.879382 0.821255
C143  C     C_R   0.000021 0.750003 0.879381 0.821359
C144  C     C_R   0.999974 0.750021 0.120618 0.821252
C145  C     C_R   0.370622 0.750000 0.250000 0.823580
C146  C     C_R   0.370599 0.750000 0.750000 0.824618
C147  C     C_R   0.370622 0.250000 0.750000 0.823583
C148  C     C_R   0.370599 0.250000 0.250000 0.824617
C149  C     C_R   0.870622 0.750000 0.750000 0.823598
C150  C     C_R   0.870599 0.750000 0.250000 0.824624
C151  C     C_R   0.870622 0.250000 0.250000 0.823598
C152  C     C_R   0.870599 0.250000 0.750000 0.824624
C153  C     C_R   0.629394 0.750000 0.250000 0.821326
C154  C     C_R   0.629372 0.750000 0.750000 0.820062
C155  C     C_R   0.629394 0.250000 0.750000 0.821327
C156  C     C_R   0.629372 0.250000 0.250000 0.820062
C157  C     C_R   0.129394 0.750000 0.750000 0.821322
C158  C     C_R   0.129372 0.750000 0.250000 0.820058
C159  C     C_R   0.129394 0.250000 0.250000 0.821322
C160  C     C_R   0.129372 0.250000 0.750000 0.820058
C161  C     C_1   0.681120 0.750000 0.250000 -0.149402
C162  C     C_1   0.681109 0.750000 0.750000 -0.148400
C163  C     C_1   0.681120 0.250000 0.750000 -0.149401
C164  C     C_1   0.681109 0.250000 0.250000 -0.148401
C165  C     C_1   0.181120 0.750000 0.750000 -0.149402
C166  C     C_1   0.181109 0.750000 0.250000 -0.148396
C167  C     C_1   0.181120 0.250000 0.250000 -0.149402
C168  C     C_1   0.181109 0.250000 0.750000 -0.148397
C169  C     C_1   0.724551 0.750000 0.250000 -0.000816
C170  C     C_1   0.724547 0.750000 0.750000 -0.000286
C171  C     C_1   0.724551 0.250000 0.750000 -0.000816
C172  C     C_1   0.724547 0.250000 0.250000 -0.000287
C173  C     C_1   0.224551 0.750000 0.750000 -0.000818
C174  C     C_1   0.224547 0.750000 0.250000 -0.000281
C175  C     C_1   0.224551 0.250000 0.250000 -0.000818
C176  C     C_1   0.224547 0.250000 0.750000 -0.000282
C177  C     C_1   0.775442 0.750000 0.250000 -0.000704
C178  C     C_1   0.775448 0.750000 0.750000 0.000225
C179  C     C_1   0.775442 0.250000 0.750000 -0.000703
C180  C     C_1   0.775448 0.250000 0.250000 0.000225
C181  C     C_1   0.275442 0.750000 0.750000 -0.000706
C182  C     C_1   0.275448 0.750000 0.250000 0.000235
C183  C     C_1   0.275442 0.250000 0.250000 -0.000706
C184  C     C_1   0.275448 0.250000 0.750000 0.000233
C185  C     C_1   0.818873 0.750000 0.250000 -0.150358
C186  C     C_1   0.818886 0.750000 0.750000 -0.148322
C187  C     C_1   0.818873 0.250000 0.750000 -0.150358
C188  C     C_1   0.818886 0.250000 0.250000 -0.148323
C189  C     C_1   0.318873 0.750000 0.750000 -0.150360
C190  C     C_1   0.318885 0.750000 0.250000 -0.148296
C191  C     C_1   0.318873 0.250000 0.250000 -0.150358
C192  C     C_1   0.318885 0.250000 0.750000 -0.148301
C193  C     C_3   0.549003 0.978693 0.234301 -0.511471
C194  C     C_3   0.549174 0.978446 0.764303 -0.500052
C195  C     C_3   0.549021 0.021310 0.765670 -0.511475
C196  C     C_3   0.549150 0.021557 0.235659 -0.499997
C197  C     C_3   0.549070 0.478692 0.734478 -0.511703
C198  C     C_3   0.549184 0.478444 0.264266 -0.500062
C199  C     C_3   0.549041 0.521309 0.265601 -0.511562
C200  C     C_3   0.549206 0.521558 0.735799 -0.500108
C201  C     C_3   0.049166 0.978685 0.734589 -0.510976
C202  C     C_3   0.049276 0.978449 0.264152 -0.499713
C203  C     C_3   0.049143 0.021316 0.265446 -0.511060
C204  C     C_3   0.049293 0.021552 0.735877 -0.499671
C205  C     C_3   0.049069 0.478692 0.234482 -0.511732
C206  C     C_3   0.049184 0.478444 0.764257 -0.500087
C207  C     C_3   0.049041 0.521309 0.765593 -0.511594
C208  C     C_3   0.049205 0.521558 0.235805 -0.500133
H1    H     H_    0.077984 0.531300 0.260607 0.178773
H2    H     H_    0.078560 0.532123 0.742396 0.180009
H3    H     H_    0.077993 0.468710 0.739478 0.178758
H4    H     H_    0.078547 0.467886 0.257727 0.180016
H5    H     H_    0.078069 0.031307 0.760716 0.178671
H6    H     H_    0.078606 0.032115 0.242123 0.179851
H7    H     H_    0.078063 0.968697 0.239328 0.178680
H8    H     H_    0.078615 0.967890 0.757940 0.179825
H9    H     H_    0.577989 0.531301 0.760598 0.178768
H10   H     H_    0.578565 0.532123 0.242407 0.180002
H11   H     H_    0.577998 0.468709 0.239492 0.178754
H12   H     H_    0.578552 0.467887 0.757722 0.180009
H13   H     H_    0.577991 0.031284 0.260412 0.178736
H14   H     H_    0.578576 0.032138 0.742521 0.180006
H15   H     H_    0.577998 0.968726 0.739530 0.178738
H16   H     H_    0.578572 0.967871 0.257442 0.180000
H17   H     H_    0.522397 0.968540 0.325899 -0.021651
H18   H     H_    0.519378 0.969614 0.671468 -0.018918
H19   H     H_    0.522376 0.031460 0.674093 -0.021626
H20   H     H_    0.519418 0.030391 0.328507 -0.018934
H21   H     H_    0.522174 0.468515 0.825980 -0.021676
H22   H     H_    0.519388 0.469620 0.171475 -0.018975
H23   H     H_    0.522288 0.531474 0.174050 -0.021656
H24   H     H_    0.519316 0.530369 0.828537 -0.018970
H25   H     H_    0.022021 0.968488 0.826116 -0.021816
H26   H     H_    0.019288 0.969657 0.171380 -0.019059
H27   H     H_    0.022070 0.031506 0.173912 -0.021778
H28   H     H_    0.019256 0.030337 0.828635 -0.019068
H29   H     H_    0.022166 0.468516 0.325978 -0.021669
H30   H     H_    0.019372 0.469619 0.671474 -0.018971
H31   H     H_    0.022275 0.531473 0.674050 -0.021650
H32   H     H_    0.019304 0.530370 0.328537 -0.018965
H33   H     H_    0.465853 0.968418 0.180686 0.166025
H34   H     H_    0.467730 0.968307 0.819408 0.168578
H35   H     H_    0.465895 0.031580 0.819323 0.166026
H36   H     H_    0.467663 0.031693 0.180602 0.168565
H37   H     H_    0.466126 0.468440 0.680620 0.166118
H38   H     H_    0.467753 0.468297 0.319404 0.168581
H39   H     H_    0.465995 0.531569 0.319338 0.166082
H40   H     H_    0.467840 0.531712 0.680571 0.168592
H41   H     H_    0.966296 0.968469 0.680486 0.166054
H42   H     H_    0.967891 0.968265 0.319485 0.168467
H43   H     H_    0.966238 0.031537 0.319480 0.166057
H44   H     H_    0.967928 0.031741 0.680496 0.168455
H45   H     H_    0.966131 0.468438 0.180620 0.166121
H46   H     H_    0.967767 0.468298 0.819409 0.168588
H47   H     H_    0.966006 0.531570 0.819340 0.166087
H48   H     H_    0.967850 0.531710 0.180569 0.168599
H49   H     H_    0.424085 0.968633 0.229814 0.213299
H50   H     H_    0.424447 0.967857 0.771666 0.208521
H51   H     H_    0.424108 0.031357 0.770214 0.213312
H52   H     H_    0.424410 0.032133 0.228376 0.208529
H53   H     H_    0.424201 0.468616 0.729589 0.213274
H54   H     H_    0.424458 0.467874 0.271672 0.208572
H55   H     H_    0.424147 0.531374 0.270291 0.213280
H56   H     H_    0.424500 0.532116 0.728254 0.208608
H57   H     H_    0.924200 0.968612 0.729382 0.213032
H58   H     H_    0.924496 0.967884 0.271798 0.208564
H59   H     H_    0.924187 0.031383 0.270555 0.213071
H60   H     H_    0.924507 0.032111 0.728165 0.208567
H61   H     H_    0.924205 0.468617 0.229584 0.213284
H62   H     H_    0.924464 0.467874 0.771687 0.208574
H63   H     H_    0.924152 0.531373 0.770301 0.213289
H64   H     H_    0.924504 0.532116 0.228243 0.208608
H65   H     H_    0.556250 0.969163 0.196889 0.211710
H66   H     H_    0.557771 0.967517 0.800807 0.211749
H67   H     H_    0.556281 0.030836 0.803081 0.211719
H68   H     H_    0.557722 0.032482 0.199145 0.211732
H69   H     H_    0.556445 0.469145 0.697110 0.211791
H70   H     H_    0.557790 0.467529 0.300774 0.211758
H71   H     H_    0.556353 0.530850 0.302990 0.211753
H72   H     H_    0.557848 0.532467 0.699300 0.211784
H73   H     H_    0.056646 0.969120 0.697214 0.211577
H74   H     H_    0.057943 0.967555 0.300678 0.211637
H75   H     H_    0.056592 0.030878 0.302823 0.211602
H76   H     H_    0.057978 0.032444 0.699352 0.211622
H77   H     H_    0.056445 0.469146 0.197116 0.211800
H78   H     H_    0.057798 0.467529 0.800762 0.211767
H79   H     H_    0.056357 0.530849 0.802980 0.211763
H80   H     H_    0.057853 0.532468 0.199309 0.211792
O1    O     O_3   0.499990 0.750000 0.250000 -0.477019
O2    O     O_3   0.499990 0.750000 0.750000 -0.476886
O3    O     O_3   0.499990 0.250000 0.750000 -0.477016
O4    O     O_3   0.499990 0.250000 0.250000 -0.476887
O5    O     O_3   0.999990 0.750000 0.750000 -0.476994
O6    O     O_3   0.999990 0.750000 0.250000 -0.476886
O7    O     O_3   0.999990 0.250000 0.250000 -0.476994
O8    O     O_3   0.999990 0.250000 0.750000 -0.476886
O9    O     O_R   0.527870 0.668020 0.277880 -0.634485
O10   O     O_R   0.527870 0.668020 0.722120 -0.633414
O11   O     O_R   0.527870 0.331980 0.722120 -0.634480
O12   O     O_R   0.527870 0.331980 0.277880 -0.633416
O13   O     O_R   0.527870 0.168020 0.777880 -0.634510
O14   O     O_R   0.527870 0.168020 0.222120 -0.633407
O15   O     O_R   0.527870 0.831980 0.222120 -0.634512
O16   O     O_R   0.527870 0.831980 0.777880 -0.633402
O17   O     O_R   0.027870 0.668020 0.777880 -0.634484
O18   O     O_R   0.027870 0.668020 0.222120 -0.633412
O19   O     O_R   0.027870 0.331980 0.222120 -0.634480
O20   O     O_R   0.027870 0.331980 0.777880 -0.633415
O21   O     O_R   0.027870 0.168020 0.277880 -0.634446
O22   O     O_R   0.027870 0.168020 0.722120 -0.633425
O23   O     O_R   0.027870 0.831980 0.722120 -0.634442
O24   O     O_R   0.027870 0.831980 0.277880 -0.633424
O25   O     O_R   0.472130 0.728510 0.143730 -0.636015
O26   O     O_R   0.472130 0.728510 0.856270 -0.636836
O27   O     O_R   0.472130 0.271490 0.856270 -0.636019
O28   O     O_R   0.472130 0.271490 0.143730 -0.636836
O29   O     O_R   0.472130 0.228510 0.643730 -0.635984
O30   O     O_R   0.472130 0.228510 0.356270 -0.636828
O31   O     O_R   0.472130 0.771490 0.356270 -0.635974
O32   O     O_R   0.472130 0.771490 0.643730 -0.636824
O33   O     O_R   0.972130 0.728510 0.643730 -0.636015
O34   O     O_R   0.972130 0.728510 0.356270 -0.636835
O35   O     O_R   0.972130 0.271490 0.356270 -0.636018
O36   O     O_R   0.972130 0.271490 0.643730 -0.636835
O37   O     O_R   0.972130 0.228510 0.143730 -0.636082
O38   O     O_R   0.972130 0.228510 0.856270 -0.636849
O39   O     O_R   0.972130 0.771490 0.856270 -0.636089
O40   O     O_R   0.972130 0.771490 0.143730 -0.636849
O41   O     O_R   0.393720 0.728520 0.222140 -0.633448
O42   O     O_R   0.393720 0.728520 0.777860 -0.634305
O43   O     O_R   0.393720 0.271480 0.777860 -0.633449
O44   O     O_R   0.393720 0.271480 0.222140 -0.634305
O45   O     O_R   0.393720 0.228520 0.722140 -0.633435
O46   O     O_R   0.393720 0.228520 0.277860 -0.634311
O47   O     O_R   0.393720 0.771480 0.277860 -0.633431
O48   O     O_R   0.393720 0.771480 0.722140 -0.634313
O49   O     O_R   0.893720 0.728520 0.722140 -0.633436
O50   O     O_R   0.893720 0.728520 0.277860 -0.634305
O51   O     O_R   0.893720 0.271480 0.277860 -0.633438
O52   O     O_R   0.893720 0.271480 0.722140 -0.634304
O53   O     O_R   0.893720 0.228520 0.222140 -0.633457
O54   O     O_R   0.893720 0.228520 0.777860 -0.634310
O55   O     O_R   0.893720 0.771480 0.777860 -0.633458
O56   O     O_R   0.893720 0.771480 0.222140 -0.634310
O57   O     O_R   0.606280 0.728500 0.277860 -0.634535
O58   O     O_R   0.606280 0.728500 0.722140 -0.634336
O59   O     O_R   0.606280 0.271500 0.722140 -0.634535
O60   O     O_R   0.606280 0.271500 0.277860 -0.634339
O61   O     O_R   0.606280 0.228500 0.777860 -0.634538
O62   O     O_R   0.606280 0.228500 0.222140 -0.634343
O63   O     O_R   0.606280 0.771500 0.222140 -0.634539
O64   O     O_R   0.606280 0.771500 0.777860 -0.634345
O65   O     O_R   0.106280 0.728500 0.777860 -0.634537
O66   O     O_R   0.106280 0.728500 0.222140 -0.634340
O67   O     O_R   0.106280 0.271500 0.222140 -0.634537
O68   O     O_R   0.106280 0.271500 0.777860 -0.634341
O69   O     O_R   0.106280 0.228500 0.277860 -0.634538
O70   O     O_R   0.106280 0.228500 0.722140 -0.634340
O71   O     O_R   0.106280 0.771500 0.722140 -0.634539
O72   O     O_R   0.106280 0.771500 0.277860 -0.634340
O73   O     O_R   0.527850 0.771500 0.143710 -0.633394
O74   O     O_R   0.527850 0.771500 0.856290 -0.633114
O75   O     O_R   0.527850 0.228500 0.856290 -0.633391
O76   O     O_R   0.527850 0.228500 0.143710 -0.633112
O77   O     O_R   0.527850 0.271500 0.643710 -0.633401
O78   O     O_R   0.527850 0.271500 0.356290 -0.633111
O79   O     O_R   0.527850 0.728500 0.356290 -0.633401
O80   O     O_R   0.527850 0.728500 0.643710 -0.633110
O81   O     O_R   0.027850 0.771500 0.643710 -0.633390
O82   O     O_R   0.027850 0.771500 0.356290 -0.633108
O83   O     O_R   0.027850 0.228500 0.356290 -0.633389
O84   O     O_R   0.027850 0.228500 0.643710 -0.633106
O85   O     O_R   0.027850 0.271500 0.143710 -0.633370
O86   O     O_R   0.027850 0.271500 0.856290 -0.633106
O87   O     O_R   0.027850 0.728500 0.856290 -0.633366
O88   O     O_R   0.027850 0.728500 0.143710 -0.633104
O89   O     O_R   0.472140 0.668020 0.222150 -0.641216
O90   O     O_R   0.472140 0.668020 0.777850 -0.642698
O91   O     O_R   0.472140 0.331980 0.777850 -0.641236
O92   O     O_R   0.472140 0.331980 0.222150 -0.642698
O93   O     O_R   0.472140 0.168020 0.722150 -0.641180
O94   O     O_R   0.472140 0.168020 0.277850 -0.642720
O95   O     O_R   0.472140 0.831980 0.277850 -0.641179
O96   O     O_R   0.472140 0.831980 0.722150 -0.642739
O97   O     O_R   0.972140 0.668020 0.722150 -0.641215
O98   O     O_R   0.972140 0.668020 0.277850 -0.642701
O99   O     O_R   0.972140 0.331980 0.277850 -0.641232
O100  O     O_R   0.972140 0.331980 0.722150 -0.642700
O101  O     O_R   0.972140 0.168020 0.222150 -0.641301
O102  O     O_R   0.972140 0.168020 0.777850 -0.642698
O103  O     O_R   0.972140 0.831980 0.777850 -0.641318
O104  O     O_R   0.972140 0.831980 0.222150 -0.642702
Zn1   Zn    Zn3+2 0.539790 0.780710 0.210180 0.979992
Zn2   Zn    Zn3+2 0.539790 0.780710 0.789820 0.980004
Zn3   Zn    Zn3+2 0.539790 0.219290 0.789820 0.979996
Zn4   Zn    Zn3+2 0.539790 0.219290 0.210180 0.980003
Zn5   Zn    Zn3+2 0.539790 0.280710 0.710180 0.980008
Zn6   Zn    Zn3+2 0.539790 0.280710 0.289820 0.980012
Zn7   Zn    Zn3+2 0.539790 0.719290 0.289820 0.980004
Zn8   Zn    Zn3+2 0.539790 0.719290 0.710180 0.980015
Zn9   Zn    Zn3+2 0.039790 0.780710 0.710180 0.980016
Zn10  Zn    Zn3+2 0.039790 0.780710 0.289820 0.980007
Zn11  Zn    Zn3+2 0.039790 0.219290 0.289820 0.980016
Zn12  Zn    Zn3+2 0.039790 0.219290 0.710180 0.980006
Zn13  Zn    Zn3+2 0.039790 0.280710 0.210180 0.980015
Zn14  Zn    Zn3+2 0.039790 0.280710 0.789820 0.980007
Zn15  Zn    Zn3+2 0.039790 0.719290 0.789820 0.980013
Zn16  Zn    Zn3+2 0.039790 0.719290 0.210180 0.980011
Zn17  Zn    Zn3+2 0.460190 0.719300 0.210200 0.975944
Zn18  Zn    Zn3+2 0.460190 0.719300 0.789800 0.974473
Zn19  Zn    Zn3+2 0.460190 0.280700 0.789800 0.975931
Zn20  Zn    Zn3+2 0.460190 0.280700 0.210200 0.974471
Zn21  Zn    Zn3+2 0.460190 0.219300 0.710200 0.976000
Zn22  Zn    Zn3+2 0.460190 0.219300 0.289800 0.974463
Zn23  Zn    Zn3+2 0.460190 0.780700 0.289800 0.976011
Zn24  Zn    Zn3+2 0.460190 0.780700 0.710200 0.974454
Zn25  Zn    Zn3+2 0.960190 0.719300 0.710200 0.975959
Zn26  Zn    Zn3+2 0.960190 0.719300 0.289800 0.974477
Zn27  Zn    Zn3+2 0.960190 0.280700 0.289800 0.975946
Zn28  Zn    Zn3+2 0.960190 0.280700 0.710200 0.974476
Zn29  Zn    Zn3+2 0.960190 0.219300 0.210200 0.975844
Zn30  Zn    Zn3+2 0.960190 0.219300 0.789800 0.974456
Zn31  Zn    Zn3+2 0.960190 0.780700 0.789800 0.975829
Zn32  Zn    Zn3+2 0.960190 0.780700 0.210200 0.974454
O105  O     O_3   0.446621 0.962804 0.321360 -0.601726
C209  C     C_3   0.450429 0.950305 0.369576 0.110307
H81   H     H_    0.414285 0.952911 0.386335 0.169492
H82   H     H_    0.475328 0.967467 0.391658 0.102195
C210  C     C_3   0.465561 0.909544 0.371013 -0.358448
H83   H     H_    0.440054 0.892886 0.349137 0.251809
H84   H     H_    0.502155 0.906469 0.355457 0.210218
C211  C     C_3   0.466104 0.894632 0.422411 -0.951344
H85   H     H_    0.492338 0.910328 0.444562 0.258594
H86   H     H_    0.476886 0.865052 0.422151 0.277469
H87   H     H_    0.429761 0.896878 0.438792 0.267872
O106  O     O_3   0.443587 0.966292 0.679423 -0.608143
C212  C     C_3   0.447184 0.937462 0.645132 0.113329
H88   H     H_    0.413980 0.920503 0.648015 0.174771
H89   H     H_    0.477811 0.918322 0.652133 0.123462
C213  C     C_3   0.450375 0.953337 0.594096 -0.381842
H90   H     H_    0.420090 0.972884 0.588033 0.233618
H91   H     H_    0.484761 0.968594 0.589739 0.197733
C214  C     C_3   0.448194 0.922823 0.556318 -0.951167
H92   H     H_    0.478812 0.903387 0.560896 0.267794
H93   H     H_    0.450268 0.935378 0.519899 0.262332
H94   H     H_    0.413844 0.907306 0.559316 0.270731
O107  O     O_3   0.446603 0.037197 0.678658 -0.601748
C215  C     C_3   0.450397 0.049693 0.630442 0.110251
H95   H     H_    0.414249 0.047086 0.613691 0.169447
H96   H     H_    0.475289 0.032530 0.608354 0.102211
C216  C     C_3   0.465524 0.090454 0.629001 -0.358276
H97   H     H_    0.439988 0.107114 0.650846 0.251720
H98   H     H_    0.502105 0.093541 0.644594 0.210229
C217  C     C_3   0.466116 0.105353 0.577593 -0.951231
H99   H     H_    0.492407 0.089671 0.555481 0.258528
H100  H     H_    0.476865 0.134941 0.577858 0.277464
H101  H     H_    0.429793 0.103074 0.561161 0.267840
O108  O     O_3   0.443613 0.033709 0.320617 -0.608123
C218  C     C_3   0.447236 0.062512 0.354948 0.113547
H102  H     H_    0.413960 0.079419 0.352205 0.174644
H103  H     H_    0.477794 0.081701 0.347849 0.123526
C219  C     C_3   0.450649 0.046607 0.405980 -0.381917
H104  H     H_    0.420425 0.027010 0.412138 0.233412
H105  H     H_    0.485104 0.031396 0.410207 0.197593
C220  C     C_3   0.448506 0.077095 0.443803 -0.950617
H106  H     H_    0.479091 0.096567 0.439162 0.267730
H107  H     H_    0.450697 0.064513 0.480214 0.262194
H108  H     H_    0.414108 0.092585 0.440911 0.270577
O109  O     O_3   0.446428 0.462831 0.821181 -0.601855
C221  C     C_3   0.450070 0.450272 0.869366 0.110149
H109  H     H_    0.413890 0.452894 0.886016 0.169565
H110  H     H_    0.474924 0.467381 0.891554 0.102316
C222  C     C_3   0.465126 0.409496 0.870759 -0.358474
H111  H     H_    0.439611 0.392887 0.848832 0.251785
H112  H     H_    0.501731 0.406387 0.855247 0.210411
C223  C     C_3   0.465589 0.394547 0.922126 -0.951242
H113  H     H_    0.491891 0.410157 0.944305 0.258507
H114  H     H_    0.476250 0.364942 0.921818 0.277597
H115  H     H_    0.429249 0.396876 0.938500 0.267883
O110  O     O_3   0.443586 0.466264 0.179398 -0.608100
C224  C     C_3   0.447219 0.437514 0.144991 0.113719
H116  H     H_    0.413888 0.420634 0.147610 0.174474
H117  H     H_    0.477734 0.418292 0.152133 0.123590
C225  C     C_3   0.450788 0.453490 0.093983 -0.382111
H118  H     H_    0.420582 0.473089 0.087774 0.233259
H119  H     H_    0.485277 0.468709 0.089881 0.197471
C226  C     C_3   0.448751 0.423059 0.056068 -0.949731
H120  H     H_    0.479288 0.403553 0.060820 0.267610
H121  H     H_    0.451137 0.435686 0.019661 0.261913
H122  H     H_    0.414279 0.407602 0.058786 0.270410
O111  O     O_3   0.446525 0.537175 0.178719 -0.601784
C227  C     C_3   0.450255 0.549726 0.130529 0.110163
H123  H     H_    0.414099 0.547094 0.113808 0.169460
H124  H     H_    0.475159 0.532620 0.108385 0.102255
C228  C     C_3   0.465305 0.590504 0.129155 -0.358199
H125  H     H_    0.439740 0.607108 0.151036 0.251702
H126  H     H_    0.501888 0.593625 0.144741 0.210307
C229  C     C_3   0.465861 0.605447 0.077778 -0.951059
H127  H     H_    0.492210 0.589841 0.055640 0.258477
H128  H     H_    0.476519 0.635054 0.078103 0.277525
H129  H     H_    0.429543 0.603107 0.061333 0.267813
O112  O     O_3   0.443530 0.533744 0.820548 -0.608146
C230  C     C_3   0.447148 0.562486 0.854965 0.113605
H130  H     H_    0.413827 0.579370 0.852332 0.174520
H131  H     H_    0.477667 0.581705 0.847847 0.123665
C231  C     C_3   0.450678 0.546508 0.905970 -0.382158
H132  H     H_    0.420456 0.526919 0.912159 0.233235
H133  H     H_    0.485152 0.531275 0.910088 0.197485
C232  C     C_3   0.448638 0.576942 0.943885 -0.949838
H134  H     H_    0.479207 0.596426 0.939175 0.267615
H135  H     H_    0.450965 0.564313 0.980286 0.261972
H136  H     H_    0.414197 0.592429 0.941132 0.270408
O113  O     O_3   0.946200 0.962878 0.821121 -0.601337
C233  C     C_3   0.949749 0.950223 0.869342 0.110071
H137  H     H_    0.913509 0.952887 0.885970 0.168967
H138  H     H_    0.974635 0.967250 0.891655 0.102047
C234  C     C_3   0.964720 0.909404 0.870629 -0.357033
H139  H     H_    0.939190 0.892890 0.848550 0.251304
H140  H     H_    0.001392 0.906257 0.855168 0.209835
C235  C     C_3   0.965031 0.894337 0.922013 -0.948908
H141  H     H_    0.991387 0.909822 0.944344 0.258039
H142  H     H_    0.975583 0.864689 0.921599 0.277290
H143  H     H_    0.928628 0.896743 0.938351 0.267335
O114  O     O_3   0.943472 0.966223 0.179454 -0.607939
C236  C     C_3   0.947080 0.937489 0.145008 0.113751
H144  H     H_    0.913867 0.920487 0.147837 0.174541
H145  H     H_    0.977761 0.918368 0.151936 0.123154
C237  C     C_3   0.950220 0.953496 0.093976 -0.381363
H146  H     H_    0.919908 0.973051 0.088022 0.233370
H147  H     H_    0.984639 0.968778 0.089633 0.197326
C238  C     C_3   0.947968 0.923078 0.056037 -0.949902
H148  H     H_    0.978555 0.903589 0.060567 0.267549
H149  H     H_    0.950112 0.935724 0.019627 0.261821
H150  H     H_    0.913531 0.907595 0.058956 0.270409
O115  O     O_3   0.946256 0.037126 0.178845 -0.601392
C239  C     C_3   0.949843 0.049765 0.130626 0.110084
H151  H     H_    0.913621 0.047096 0.113971 0.168983
H152  H     H_    0.974745 0.032731 0.108343 0.102052
C240  C     C_3   0.964814 0.090584 0.129331 -0.357050
H153  H     H_    0.939254 0.107108 0.151361 0.251289
H154  H     H_    0.001462 0.093741 0.144842 0.209880
C241  C     C_3   0.965196 0.105627 0.077939 -0.949090
H155  H     H_    0.991569 0.090123 0.055652 0.258089
H156  H     H_    0.975762 0.135272 0.078343 0.277280
H157  H     H_    0.928814 0.103222 0.061561 0.267371
O116  O     O_3   0.943440 0.033778 0.820527 -0.607924
C242  C     C_3   0.947036 0.062500 0.854991 0.113791
H158  H     H_    0.913828 0.079503 0.852156 0.174564
H159  H     H_    0.977722 0.081620 0.848083 0.123140
C243  C     C_3   0.950149 0.046480 0.906018 -0.381374
H160  H     H_    0.919841 0.026912 0.911948 0.233366
H161  H     H_    0.984571 0.031207 0.910378 0.197315
C244  C     C_3   0.947850 0.076889 0.943964 -0.949946
H162  H     H_    0.978446 0.096381 0.939482 0.267559
H163  H     H_    0.949946 0.064231 0.980366 0.261863
H164  H     H_    0.913421 0.092376 0.941010 0.270397
O117  O     O_3   0.946424 0.462830 0.321174 -0.601881
C245  C     C_3   0.950061 0.450276 0.369358 0.110156
H165  H     H_    0.913880 0.452898 0.386003 0.169592
H166  H     H_    0.974911 0.467388 0.391545 0.102328
C246  C     C_3   0.965118 0.409502 0.370760 -0.358544
H167  H     H_    0.939609 0.392890 0.348834 0.251811
H168  H     H_    0.001724 0.406394 0.355255 0.210439
C247  C     C_3   0.965575 0.394558 0.422126 -0.951346
H169  H     H_    0.991869 0.410173 0.444305 0.258532
H170  H     H_    0.976238 0.364955 0.421826 0.277615
H171  H     H_    0.929234 0.396887 0.438493 0.267905
O118  O     O_3   0.943574 0.466264 0.679410 -0.608111
C248  C     C_3   0.947200 0.437514 0.645004 0.113713
H172  H     H_    0.913866 0.420638 0.647622 0.174474
H173  H     H_    0.977710 0.418288 0.652146 0.123619
C249  C     C_3   0.950775 0.453489 0.593998 -0.382169
H174  H     H_    0.920571 0.473089 0.587786 0.233260
H175  H     H_    0.985264 0.468707 0.589898 0.197484
C250  C     C_3   0.948739 0.423058 0.556085 -0.949738
H176  H     H_    0.979277 0.403553 0.560837 0.267616
H177  H     H_    0.951123 0.435685 0.519678 0.261925
H178  H     H_    0.914269 0.407600 0.558804 0.270415
O119  O     O_3   0.946516 0.537176 0.678730 -0.601811
C251  C     C_3   0.950237 0.549723 0.630541 0.110164
H179  H     H_    0.914080 0.547090 0.613829 0.169489
H180  H     H_    0.975135 0.532615 0.608396 0.102267
C252  C     C_3   0.965288 0.590500 0.629160 -0.358274
H181  H     H_    0.939730 0.607106 0.651044 0.251731
H182  H     H_    0.001872 0.593619 0.644735 0.210336
C253  C     C_3   0.965831 0.605439 0.577785 -0.951159
H183  H     H_    0.992171 0.589830 0.555644 0.258500
H184  H     H_    0.976490 0.635045 0.578104 0.277546
H185  H     H_    0.929511 0.603100 0.561351 0.267836
O120  O     O_3   0.943522 0.533744 0.320539 -0.608156
C254  C     C_3   0.947134 0.562487 0.354954 0.113595
H186  H     H_    0.913810 0.579366 0.352323 0.174519
H187  H     H_    0.977648 0.581709 0.347833 0.123694
C255  C     C_3   0.950672 0.546510 0.405958 -0.382213
H188  H     H_    0.920452 0.526922 0.412152 0.233234
H189  H     H_    0.985146 0.531279 0.410072 0.197497
C256  C     C_3   0.948637 0.576946 0.443869 -0.949832
H190  H     H_    0.979206 0.596429 0.439156 0.267616
H191  H     H_    0.950965 0.564318 0.480271 0.261981
H192  H     H_    0.914197 0.592434 0.441117 0.270412

loop_
_geom_bond_atom_site_label_1
_geom_bond_atom_site_label_2
_ccdc_geom_bond_type
C62   C83   S    
C8    O16   A    
C77   H36   S    
O62   Zn4   S    
C244  H162  S    
C228  H125  S    
O54   Zn30  S    
C239  C240  S    
C39   C87   T    
C218  H102  S    
C50   C79   S    
C150  C185  S    
C10   O98   A    
C152  O52   A    
C212  H88   S    
O1    Zn7   S    
C222  C223  S    
C245  C246  S    
O2    Zn8   S    
C170  C178  S    
O117  C245  S    
C102  C132  S    
C241  H155  S    
O93   Zn21  S    
C98   C114  T    
C2    C41   S    
C10   O18   A    
C220  H108  S    
O118  C248  S    
C249  H175  S    
O105  C209  S    
O86   Zn14  S    
O26   Zn18  S    
C55   C74   S    
C55   C199  S    
C198  H11   S    
C247  H170  S    
C251  H179  S    
C246  H168  S    
C77   H52   S    
C52   C196  S    
C207  H2    S    
C78   H51   S    
C107  C123  T    
O8    Zn30  S    
C44   C92   T    
C247  H171  S    
C74   H55   S    
C148  C191  S    
O94   Zn22  S    
C20   O108  S    
C149  C186  S    
O110  C224  S    
C140  O36   A    
C199  H10   S    
O5    Zn15  S    
C152  C187  S    
C159  O69   A    
O6    Zn16  S    
C230  H131  S    
C151  C188  S    
C166  C174  T    
C202  C203  S    
C112  C138  S    
O29   Zn21  S    
O82   Zn10  S    
C253  H183  S    
O2    Zn18  S    
C5    O93   A    
O76   Zn4   S    
C206  C207  S    
C248  C249  S    
O104  Zn32  S    
C7    O95   A    
C231  H132  S    
O109  C221  S    
O44   Zn20  S    
C153  C161  S    
O28   Zn20  S    
C155  O59   A    
O101  Zn29  S    
C195  H14   S    
C24   O112  S    
C22   H22   S    
O99   Zn27  S    
C60   C85   S    
C65   C68   S    
O15   Zn1   S    
C229  H127  S    
O5    Zn25  S    
C226  H121  S    
C3    O11   A    
C211  H85   S    
C104  C130  S    
O92   Zn20  S    
O10   Zn8   S    
C9    C34   S    
C244  H164  S    
C17   O105  S    
O11   Zn5   S    
C17   C49   S    
C52   C77   S    
O59   Zn5   S    
O106  C212  S    
C111  C137  S    
C175  C183  S    
C212  C213  S    
C176  C184  S    
C245  H165  S    
C14   O102  A    
C56   C73   S    
C48   C96   T    
C78   C79   S    
C130  O74   A    
C61   C84   S    
C252  C253  S    
C213  C214  S    
C23   C55   S    
C4    C43   S    
C24   C56   S    
C5    C46   S    
C78   H35   S    
C49   C80   S    
C53   C197  S    
C7    C48   S    
C132  O28   A    
C51   C78   S    
C133  O29   A    
C51   C195  S    
C215  H95   S    
O64   Zn2   S    
C40   C88   T    
C232  H134  S    
C234  H140  S    
O25   Zn17  S    
C251  C252  S    
C12   O20   A    
C159  C167  S    
C153  O63   A    
C21   O109  S    
C160  C168  S    
C214  H93   S    
O74   Zn2   S    
C178  C186  T    
O18   Zn16  S    
O6    Zn26  S    
O19   Zn13  S    
C235  H142  S    
C255  H188  S    
C21   C24   S    
O7    Zn11  S    
C22   C23   S    
C27   O115  S    
C80   H49   S    
C4    O12   A    
O5    Zn9   S    
C5    O13   A    
C62   C206  S    
C23   H23   S    
O1    Zn23  S    
C58   C202  S    
C56   C200  S    
O2    Zn24  S    
C41   C89   T    
C145  C190  S    
C154  O58   A    
C158  O66   A    
C45   C93   T    
C174  C182  S    
C123  C124  S    
C22   C54   S    
O66   Zn16  S    
C210  H83   S    
C227  H123  S    
C31   O119  S    
C218  H103  S    
C208  H80   S    
C253  H184  S    
C38   C86   T    
C146  O48   A    
C238  H149  S    
C239  H152  S    
O9    Zn7   S    
C55   C90   S    
C237  C238  S    
C151  O53   A    
C243  H160  S    
C22   O110  S    
C137  O33   A    
O23   Zn9   S    
C115  C116  S    
O21   Zn11  S    
C139  O83   A    
C80   H33   S    
O78   Zn6   S    
C19   H19   S    
O70   Zn12  S    
C67   H62   S    
C17   H17   S    
C68   H45   S    
C60   C204  S    
C193  H16   S    
O55   Zn31  S    
C129  O73   A    
C140  O84   A    
C253  H185  S    
C11   O99   A    
C217  H99   S    
C9    O97   A    
C72   H41   S    
C107  C141  S    
C197  H12   S    
O60   Zn6   S    
C13   O21   A    
O52   Zn28  S    
O4    Zn22  S    
C216  C217  S    
C197  H69   S    
C26   H26   S    
C66   C67   S    
C138  O34   A    
C236  H144  S    
C240  C241  S    
C132  O76   A    
C171  C179  S    
C25   C57   S    
C30   H30   S    
C169  C177  S    
C225  H118  S    
C100  C134  S    
C28   C60   S    
O87   Zn15  S    
C29   C61   S    
C3    C44   S    
O88   Zn16  S    
C11   O19   A    
O108  C218  S    
O17   Zn15  S    
C63   C82   S    
C215  C216  S    
C31   C63   S    
C242  C243  S    
C32   C64   S    
C243  C244  S    
C146  O42   A    
C157  C165  S    
O27   Zn19  S    
C221  H109  S    
C237  H146  S    
C16   C39   S    
C155  C163  S    
O57   Zn7   S    
C32   O120  S    
C29   O117  S    
C42   C90   T    
O7    Zn29  S    
C69   C72   S    
C201  H8    S    
O43   Zn19  S    
C138  O82   A    
C193  C196  S    
C106  C122  T    
C217  H101  S    
C149  O55   A    
C224  H116  S    
O8    Zn14  S    
C52   C93   S    
C12   C35   S    
C145  O41   A    
O4    Zn4   S    
C6    O94   A    
C13   C38   S    
C75   H38   S    
C110  C126  T    
O12   Zn6   S    
C56   C89   S    
C28   H28   S    
C71   H58   S    
C154  O64   A    
C164  C172  T    
C15   O103  A    
C97   C135  S    
O41   Zn17  S    
O95   Zn23  S    
O96   Zn24  S    
C167  C175  T    
C67   H46   S    
C109  C125  T    
C168  C176  T    
C241  H157  S    
C154  C162  S    
C160  O68   A    
C221  C222  S    
C196  H68   S    
C254  C255  S    
C217  H100  S    
C230  H130  S    
C73   H56   S    
C129  O25   A    
C222  H112  S    
C182  C190  T    
C20   H20   S    
O16   Zn2   S    
C101  C117  T    
C233  H137  S    
C68   H61   S    
C117  C118  S    
C241  H156  S    
C219  C220  S    
C135  O31   A    
C60   C69   S    
C136  O32   A    
C211  H86   S    
C220  H107  S    
C3    O91   A    
C10   C33   S    
C64   C81   S    
C250  H178  S    
C250  H176  S    
C203  H75   S    
C251  H180  S    
C246  H167  S    
C236  C237  S    
C57   C201  S    
C240  H153  S    
C63   C207  S    
C34   C82   T    
C216  H98   S    
O7    Zn27  S    
C225  C226  S    
C61   C205  S    
C194  H15   S    
C141  O85   A    
C130  O26   A    
C6    C45   S    
O90   Zn18  S    
C76   H37   S    
C100  C116  T    
O31   Zn23  S    
C137  O81   A    
C256  H192  S    
C181  C189  T    
C25   C28   S    
C4    O92   A    
C26   C27   S    
C133  O77   A    
C1    O9    A    
C14   O22   A    
C143  O87   A    
O8    Zn28  S    
C29   C32   S    
C207  H79   S    
C30   C31   S    
C58   C71   S    
C248  H173  S    
C179  C187  T    
C209  H81   S    
C231  H133  S    
C46   C94   T    
C150  O50   A    
O13   Zn3   S    
C224  C225  S    
C177  C185  T    
C213  H90   S    
O42   Zn18  S    
O116  C242  S    
O100  Zn28  S    
C65   H64   S    
O4    Zn6   S    
O6    Zn10  S    
C66   H63   S    
C6    O14   A    
O3    Zn3   S    
C223  H114  S    
C152  O54   A    
C199  H71   S    
O1    Zn1   S    
C208  H1    S    
C200  H72   S    
C229  H128  S    
C184  C192  T    
C146  C189  S    
C70   C71   S    
C157  O65   A    
C202  H7    S    
C163  C171  T    
C196  H13   S    
C144  O40   A    
C234  H139  S    
C172  C180  S    
C231  C232  S    
C212  H89   S    
C194  C195  S    
C63   C66   S    
C173  C181  S    
O39   Zn31  S    
C200  H9    S    
C244  H163  S    
C195  H67   S    
C151  O51   A    
C225  H119  S    
C223  H113  S    
C136  O80   A    
C245  H166  S    
C229  H129  S    
C194  H66   S    
O119  C251  S    
O72   Zn10  S    
C250  H177  S    
C157  O71   A    
C252  H182  S    
C35   C83   T    
C219  H104  S    
C18   C19   S    
O50   Zn26  S    
C205  H4    S    
O68   Zn14  S    
C256  H190  S    
O107  C215  S    
C205  H77   S    
C249  H174  S    
C215  H96   S    
C197  C200  S    
O3    Zn21  S    
O61   Zn3   S    
C159  O67   A    
O67   Zn13  S    
C198  H70   S    
C246  C247  S    
C21   H21   S    
O97   Zn25  S    
C103  C129  S    
C148  O44   A    
C121  C122  S    
C141  O37   A    
C101  C131  S    
C139  O35   A    
C255  H189  S    
C30   C62   S    
C125  C126  S    
C73   C76   S    
C53   C76   S    
C127  C128  S    
C25   O113  S    
C18   C50   S    
O22   Zn12  S    
C113  C114  S    
C77   C80   S    
C31   H31   S    
O112  C230  S    
C232  H136  S    
C131  O75   A    
C8    O96   A    
C135  O79   A    
C24   H24   S    
O33   Zn25  S    
C234  C235  S    
C119  C120  S    
C255  C256  S    
C232  H135  S    
O7    Zn13  S    
C219  H105  S    
C227  C228  S    
O53   Zn29  S    
C64   C65   S    
O38   Zn30  S    
C18   O106  S    
C54   C91   S    
C156  O60   A    
C14   C37   S    
C243  H161  S    
C50   C194  S    
C99   C115  T    
O49   Zn25  S    
C72   H57   S    
C209  H82   S    
C242  H158  S    
C149  O49   A    
C108  C124  T    
C226  H122  S    
O1    Zn17  S    
C57   C72   S    
O75   Zn3   S    
C15   C40   S    
C112  C128  T    
C59   C70   S    
O73   Zn1   S    
C59   C203  S    
C1    C42   S    
C214  H92   S    
C9    O17   A    
C19   O107  S    
O103  Zn31  S    
O85   Zn13  S    
C193  H65   S    
C223  H115  S    
O58   Zn8   S    
C104  C120  T    
C76   H53   S    
C16   O24   A    
O83   Zn11  S    
C240  H154  S    
C143  O39   A    
C203  H6    S    
C153  O57   A    
C61   C68   S    
C148  O46   A    
C58   C87   S    
C134  O30   A    
C69   H60   S    
C147  O43   A    
C70   H59   S    
O5    Zn31  S    
C73   H40   S    
O91   Zn19  S    
O6    Zn32  S    
C230  C231  S    
C99   C133  S    
O89   Zn17  S    
C62   C67   S    
C249  C250  S    
C37   C85   T    
C11   C36   S    
C242  H159  S    
O3    Zn19  S    
C150  O56   A    
O47   Zn23  S    
C221  H110  S    
C50   C95   S    
O48   Zn24  S    
C165  C173  T    
C16   O104  A    
C65   H48   S    
C98   C136  S    
O34   Zn26  S    
C238  H148  S    
O113  C233  S    
C79   H34   S    
O81   Zn9   S    
C142  O38   A    
C214  H94   S    
C12   O100  A    
C69   H44   S    
C13   O101  A    
C206  H3    S    
O46   Zn22  S    
C7    O15   A    
C227  H124  S    
C235  H141  S    
C162  C170  T    
O115  C239  S    
O102  Zn30  S    
C198  C199  S    
C228  C229  S    
C18   H18   S    
C210  C211  S    
C71   H42   S    
C102  C118  T    
C27   H27   S    
O98   Zn26  S    
C75   H54   S    
C25   H25   S    
C180  C188  T    
C2    O10   A    
O4    Zn20  S    
C29   H29   S    
C108  C142  S    
O37   Zn29  S    
C161  C169  T    
C211  H87   S    
C218  C219  S    
C1    O89   A    
O63   Zn1   S    
C74   C75   S    
O8    Zn12  S    
C210  H84   S    
C145  O47   A    
C238  H150  S    
C239  H151  S    
C156  O62   A    
C201  H73   S    
C254  H187  S    
O120  C254  S    
C32   H32   S    
O56   Zn32  S    
C222  H111  S    
C30   O118  S    
C204  H5    S    
O2    Zn2   S    
C43   C91   T    
O80   Zn8   S    
C216  H97   S    
C131  O27   A    
C64   C208  S    
C233  H138  S    
C19   C51   S    
C26   C58   S    
C147  C192  S    
O111  C227  S    
O32   Zn24  S    
C53   C92   S    
O30   Zn22  S    
C220  H106  S    
O65   Zn15  S    
C105  C121  T    
C228  H126  S    
C66   H47   S    
C134  O78   A    
C237  H147  S    
O36   Zn28  S    
C236  H145  S    
C111  C127  T    
C201  C204  S    
C233  C234  S    
C97   C113  T    
C226  H120  S    
C247  H169  S    
O71   Zn9   S    
O14   Zn4   S    
C205  C208  S    
O51   Zn27  S    
O69   Zn11  S    
C79   H50   S    
C204  H76   S    
C17   C20   S    
C206  H78   S    
C103  C119  T    
C183  C191  T    
C105  C143  S    
C147  O45   A    
C106  C144  S    
C202  H74   S    
O79   Zn7   S    
C8    C47   S    
C54   C198  S    
C57   C88   S    
C109  C139  S    
C23   O111  S    
C110  C140  S    
C59   C86   S    
C142  O86   A    
C252  H181  S    
C20   C52   S    
C27   C59   S    
C21   C53   S    
C74   H39   S    
C158  O72   A    
C248  H172  S    
C144  O88   A    
C49   C193  S    
C36   C84   T    
C235  H143  S    
C224  H117  S    
C213  H91   S    
C26   O114  S    
C2    O90   A    
C49   C96   S    
O24   Zn10  S    
C160  O70   A    
C155  O61   A    
C51   C94   S    
C28   O116  S    
C254  H186  S    
O3    Zn5   S    
C158  C166  S    
O35   Zn27  S    
O114  C236  S    
C156  C164  S    
O20   Zn14  S    
O45   Zn21  S    
C47   C95   T    
O77   Zn5   S    
O84   Zn12  S    
C256  H191  S    
O40   Zn32  S    
C33   C81   T    
C70   H43   S    
C54   C75   S    
C209  C210  S    
C15   O23   A    
