data_mof_unit_68566.cif
_audit_creation_date              2012-12-11T17:19:06-0500
_audit_creation_method            fapswitch 2.2
_symmetry_space_group_name_H-M    P1
_symmetry_Int_Tables_number       1
_space_group_crystal_system       triclinic
_cell_length_a                    15.022573
_cell_length_b                    7.329117
_cell_length_c                    13.303477
_cell_angle_alpha                 89.999665
_cell_angle_beta                  100.784815
_cell_angle_gamma                 90.000126
_cell_volume                      1438.87010327

loop_
_atom_site_label
_atom_site_type_symbol
_atom_type_description
_atom_site_fract_x
_atom_site_fract_y
_atom_site_fract_z
_atom_type_partial_charge
O1    O     O_R   0.648180 0.355050 0.151550 -0.491917
O2    O     O_R   0.351820 0.644950 0.848450 -0.577019
O3    O     O_R   0.851820 0.855050 0.348450 -0.491913
O4    O     O_R   0.148180 0.144950 0.651550 -0.577018
O5    O     O_R   0.835240 0.681980 0.154280 -0.536817
O6    O     O_R   0.164760 0.318020 0.845720 -0.524891
O7    O     O_R   0.664760 0.181980 0.345720 -0.536823
O8    O     O_R   0.335240 0.818020 0.654280 -0.524893
C1    C     C_R   0.861593 0.515543 0.130594 0.838774
C2    C     C_R   0.138004 0.483799 0.869352 0.834793
C3    C     C_R   0.638407 0.015542 0.369406 0.838761
C4    C     C_R   0.361996 0.983800 0.630648 0.834803
O9    O     O_R   0.647870 0.684600 0.139630 -0.581564
O10   O     O_R   0.352130 0.315400 0.860370 -0.492749
O11   O     O_R   0.852130 0.184600 0.360370 -0.581560
O12   O     O_R   0.147870 0.815400 0.639630 -0.492754
O13   O     O_R   0.663110 0.857440 0.333700 -0.521443
O14   O     O_R   0.336890 0.142560 0.666300 -0.525488
O15   O     O_R   0.836890 0.357440 0.166300 -0.521445
O16   O     O_R   0.163110 0.642560 0.833700 -0.525492
C5    C     C_R   0.614213 0.516492 0.114725 0.791945
C6    C     C_R   0.386098 0.483767 0.884820 0.803361
C7    C     C_R   0.885787 0.016491 0.385276 0.791939
C8    C     C_R   0.113902 0.983767 0.615181 0.803371
O17   O     O_3   0.755220 0.522230 0.313690 -0.392231
O18   O     O_3   0.244780 0.477770 0.686310 -0.399439
O19   O     O_3   0.744780 0.022230 0.186310 -0.392241
O20   O     O_3   0.255220 0.977770 0.813690 -0.399436
V1    V     V_3+5 0.749030 0.796100 0.238190 1.462758
V2    V     V_3+5 0.250970 0.203900 0.761810 1.469346
V3    V     V_3+5 0.750970 0.296100 0.261810 1.462758
V4    V     V_3+5 0.249030 0.703900 0.738190 1.469334
C9    C     C_1   0.966266 0.005850 0.466403 -0.140088
C10   C     C_1   0.033305 0.994530 0.534195 -0.134200
C11   C     C_1   0.533733 0.505851 0.033598 -0.140080
C12   C     C_1   0.466694 0.494530 0.965807 -0.134191
C13   C     C_R   0.555887 0.011782 0.717325 0.290670
C14   C     C_R   0.445903 0.026870 0.281435 0.286981
C15   C     C_R   0.944114 0.511774 0.782673 0.290666
C16   C     C_R   0.054097 0.526876 0.218563 0.286978
C17   C     C_R   0.646420 0.971925 0.763521 0.353583
C18   C     C_R   0.357294 0.977503 0.233011 0.356796
C19   C     C_R   0.853582 0.471910 0.736476 0.353579
C20   C     C_R   0.142707 0.477517 0.266987 0.356795
C21   C     C_R   0.709317 0.927458 0.702389 0.338976
C22   C     C_R   0.293782 0.927841 0.292084 0.346415
C23   C     C_R   0.790681 0.427467 0.797608 0.339016
C24   C     C_R   0.206217 0.427839 0.207916 0.346391
C25   C     C_R   0.683930 0.931273 0.595607 0.184199
C26   C     C_R   0.316740 0.932191 0.399177 0.186431
C27   C     C_R   0.816068 0.431295 0.904390 0.184229
C28   C     C_R   0.183258 0.432174 0.100822 0.186400
C29   C     C_R   0.593737 0.977973 0.545685 -0.137766
C30   C     C_R   0.406567 0.976291 0.451907 -0.133336
C31   C     C_R   0.906261 0.477980 0.954313 -0.137772
C32   C     C_R   0.093432 0.476285 0.048093 -0.133330
C33   C     C_R   0.526452 0.996830 0.608437 -0.141822
C34   C     C_R   0.474037 0.006113 0.390197 -0.142321
C35   C     C_R   0.973547 0.496829 0.891562 -0.141827
C36   C     C_R   0.025962 0.506114 0.109802 -0.142315
C37   C     C_R   0.568247 0.004109 0.436766 -0.031412
C38   C     C_R   0.431867 0.990462 0.562148 -0.034555
C39   C     C_R   0.931752 0.504112 0.063233 -0.031418
C40   C     C_R   0.068132 0.490458 0.937852 -0.034548
O21   O     O_3   0.676016 0.011685 0.866135 -0.501766
C41   C     C_3   0.697755 0.851951 0.924780 -0.153492
H1    H     H_    0.758813 0.783228 0.908428 0.157929
H2    H     H_    0.639976 0.756022 0.917195 0.088655
H3    H     H_    0.714028 0.892426 0.006098 0.195866
O22   O     O_3   0.329192 0.008898 0.129294 -0.509960
C42   C     C_3   0.315180 0.843285 0.074536 -0.168139
H4    H     H_    0.249090 0.781497 0.079931 0.175199
H5    H     H_    0.371179 0.744439 0.096917 0.092801
H6    H     H_    0.313063 0.873866 0.992927 0.179224
O23   O     O_3   0.823988 0.511653 0.633860 -0.501762
C43   C     C_3   0.802254 0.351909 0.575224 -0.153577
H7    H     H_    0.741228 0.283122 0.591621 0.157907
H8    H     H_    0.860052 0.256032 0.582774 0.088651
H9    H     H_    0.785930 0.392381 0.493906 0.195899
O24   O     O_3   0.170810 0.508927 0.370703 -0.509964
C44   C     C_3   0.184828 0.343323 0.425469 -0.168039
H10   H     H_    0.250939 0.281588 0.420115 0.175201
H11   H     H_    0.128853 0.244433 0.403065 0.092813
H12   H     H_    0.186902 0.373902 0.507071 0.179174
O25   O     O_3   0.499060 0.089942 0.776443 -0.536807
C45   C     C_3   0.486880 0.972804 0.857058 -0.103423
H13   H     H_    0.534086 0.010737 0.928043 0.154263
H14   H     H_    0.493201 0.825705 0.838862 0.064513
H15   H     H_    0.418426 0.993330 0.873441 0.163961
O26   O     O_3   0.501648 0.119430 0.225994 -0.542676
C46   C     C_3   0.514425 0.020266 0.138770 -0.080085
H16   H     H_    0.467467 0.070989 0.070245 0.171891
H17   H     H_    0.508813 0.870336 0.147842 0.064458
H18   H     H_    0.583022 0.046084 0.124298 0.169296
O27   O     O_3   0.000940 0.589941 0.723556 -0.536806
C47   C     C_3   0.013124 0.472807 0.642942 -0.103414
H19   H     H_    0.965918 0.510735 0.571957 0.154272
H20   H     H_    0.006808 0.325707 0.661140 0.064509
H21   H     H_    0.081578 0.493342 0.626560 0.163955
O28   O     O_3   0.998351 0.619431 0.274004 -0.542678
C48   C     C_3   0.985579 0.520269 0.361231 -0.080080
H22   H     H_    0.032532 0.571011 0.429755 0.171886
H23   H     H_    0.991203 0.370340 0.352168 0.064451
H24   H     H_    0.916980 0.546069 0.375700 0.169303
O29   O     O_3   0.212017 0.850599 0.245716 -0.539422
C49   C     C_3   0.148907 0.986490 0.206177 -0.104198
H25   H     H_    0.138707 0.084514 0.265864 0.118568
H26   H     H_    0.082605 0.920256 0.177885 0.152788
H27   H     H_    0.168334 0.057533 0.140069 0.174132
O30   O     O_3   0.792327 0.852560 0.746159 -0.533335
C50   C     C_3   0.855586 0.990140 0.782042 -0.117881
H28   H     H_    0.836690 0.066027 0.846881 0.167957
H29   H     H_    0.865376 0.083162 0.719854 0.115117
H30   H     H_    0.921968 0.924712 0.811124 0.153355
O31   O     O_3   0.287979 0.350591 0.254287 -0.539417
C51   C     C_3   0.351097 0.486481 0.293808 -0.104262
H31   H     H_    0.331656 0.557605 0.359884 0.174119
H32   H     H_    0.361326 0.584436 0.234098 0.118604
H33   H     H_    0.417387 0.420231 0.322145 0.152787
O32   O     O_3   0.707668 0.352579 0.753842 -0.533339
C52   C     C_3   0.644420 0.490162 0.717931 -0.117783
H34   H     H_    0.663292 0.565921 0.653038 0.167980
H35   H     H_    0.634676 0.583300 0.780081 0.115038
H36   H     H_    0.578021 0.424755 0.688924 0.153355
Cl1   Cl    Cl    0.769092 0.854351 0.532495 -0.631365
Cl2   Cl    Cl    0.227462 0.865811 0.458079 -0.643393
Cl3   Cl    Cl    0.730901 0.354394 0.967502 -0.631366
Cl4   Cl    Cl    0.272533 0.365770 0.041921 -0.643386

loop_
_geom_bond_atom_site_label_1
_geom_bond_atom_site_label_2
_ccdc_geom_bond_type
O17   V3    S    
C41   H2    S    
C22   O29   S    
O1    C5    A    
C48   H22   S    
C16   C36   A    
C31   C35   A    
O19   V1    S    
O13   V1    S    
O3    C7    A    
O27   C47   S    
C43   H9    S    
O1    V3    S    
O15   V3    S    
C44   H10   S    
C28   Cl4   S    
C33   C38   A    
O25   C45   S    
O7    C3    A    
C35   C40   A    
C26   C30   A    
C36   C39   A    
C13   O25   S    
C43   H8    S    
C14   C18   A    
C30   C34   A    
O4    C8    A    
C45   H14   S    
C41   H3    S    
C49   H25   S    
O31   C51   S    
C47   H21   S    
C18   O22   S    
C51   H31   S    
O2    V4    S    
C18   C22   A    
O3    V1    S    
O30   C50   S    
C52   H36   S    
C14   C34   A    
C29   C37   A    
C1    O15   A    
C50   H28   S    
C2    O16   A    
C7    C9    S    
C31   C39   A    
O2    C6    A    
C32   C40   A    
O22   C42   S    
C26   Cl2   S    
C16   C20   A    
C34   C37   A    
O11   C7    A    
C41   H1    S    
C48   H23   S    
C13   C17   A    
O10   V2    S    
C44   H11   S    
O5    V1    S    
C19   O23   S    
O7    V3    S    
O8    V4    S    
C20   O24   S    
C43   H7    S    
C46   H16   S    
C42   H5    S    
C29   C33   A    
C45   H13   S    
C15   C19   A    
C30   C38   A    
C8    C10   S    
C32   C36   A    
C47   H20   S    
C11   C12   T    
O23   C43   S    
O5    C1    A    
C46   H17   S    
C4    C38   S    
C21   C25   A    
O8    C4    A    
C15   C35   A    
C47   H19   S    
C21   O30   S    
C9    C10   T    
O9    C5    A    
C50   H29   S    
C15   O27   S    
C52   H34   S    
C24   O31   S    
O14   V2    S    
C23   O32   S    
O6    V2    S    
C48   H24   S    
C44   H12   S    
C6    C12   S    
O32   C52   S    
O16   V4    S    
O9    V1    S    
C14   O26   S    
C3    O13   A    
C1    C39   S    
C2    C40   S    
O24   C44   S    
C3    C37   S    
C45   H15   S    
O6    C2    A    
C42   H6    S    
C23   C27   A    
O11   V3    S    
C5    C11   S    
O12   V4    S    
C25   Cl1   S    
O29   C49   S    
C22   C26   A    
C51   H33   S    
C16   O28   S    
C27   Cl3   S    
O10   C6    A    
O20   V2    S    
C42   H4    S    
C46   H18   S    
O26   C46   S    
C49   H26   S    
C25   C29   A    
O28   C48   S    
C51   H32   S    
C50   H30   S    
C27   C31   A    
C17   O21   S    
O4    V2    S    
C52   H35   S    
C28   C32   A    
C24   C28   A    
O12   C8    A    
O21   C41   S    
C4    O14   A    
C17   C21   A    
C19   C23   A    
O18   V4    S    
C13   C33   A    
C20   C24   A    
C49   H27   S    
