data_mof_unit_12991.cif
_audit_creation_date              2012-12-10T21:00:49-0500
_audit_creation_method            fapswitch 2.2
_symmetry_space_group_name_H-M    P1
_symmetry_Int_Tables_number       1
_space_group_crystal_system       triclinic
_cell_length_a                    18.049914
_cell_length_b                    18.143035
_cell_length_c                    18.354426
_cell_angle_alpha                 120.159366
_cell_angle_beta                  90.008341
_cell_angle_gamma                 119.650767
_cell_volume                      4261.99241226

loop_
_atom_site_label
_atom_site_type_symbol
_atom_type_description
_atom_site_fract_x
_atom_site_fract_y
_atom_site_fract_z
_atom_type_partial_charge
C1    C     C_R   0.112259 0.220151 0.609460 0.499704
C2    C     C_3   0.448731 0.896784 0.946829 -0.028052
C3    C     C_3   0.478967 0.033005 0.075832 -0.162671
C4    C     C_3   0.521032 0.966996 0.924167 -0.162677
C5    C     C_3   0.442608 0.518475 0.479189 -0.129217
C6    C     C_3   0.557389 0.481525 0.520807 -0.129232
C7    C     C_3   0.446672 0.424995 0.414325 -0.104095
C8    C     C_3   0.553325 0.575006 0.585671 -0.104109
C9    C     C_3   0.550103 0.499428 0.448695 0.065717
C10   C     C_3   0.449895 0.500572 0.551302 0.065704
C11   C     C_3   0.546860 0.592810 0.512591 -0.124102
C12   C     C_R   0.887738 0.779848 0.390539 0.499707
C13   C     C_3   0.453138 0.407191 0.487405 -0.124120
C14   C     C_R   0.293261 0.203799 0.750590 -0.084307
C15   C     C_R   0.706763 0.796172 0.249345 -0.084275
C16   C     C_R   0.392480 0.781012 0.887999 0.563612
C17   C     C_R   0.607520 0.218988 0.112001 0.563599
C18   C     C_R   0.227135 0.158325 0.673599 -0.062537
C19   C     C_R   0.772870 0.841655 0.326356 -0.062508
C20   C     C_R   0.135120 0.101149 0.663887 0.055054
C21   C     C_R   0.864892 0.898848 0.336098 0.055067
C22   C     C_R   0.110400 0.090052 0.732166 -0.066251
C23   C     C_3   0.980250 0.426599 0.413970 -0.111680
C24   C     C_R   0.889638 0.909953 0.267829 -0.066276
C25   C     C_R   0.176854 0.136415 0.809365 -0.073211
C26   C     C_R   0.823204 0.863581 0.190610 -0.073257
C27   C     C_R   0.268194 0.193010 0.818419 -0.072724
C28   C     C_R   0.731857 0.806968 0.181527 -0.072791
C29   C     C_R   0.006148 0.943575 0.527605 -0.133494
C30   C     C_R   0.993842 0.056425 0.472397 -0.133501
C31   C     C_R   0.942539 0.892259 0.446317 0.024214
C32   C     C_R   0.057453 0.107740 0.553683 0.024213
C33   C     C_R   0.935283 0.948804 0.418384 -0.030020
C34   C     C_3   0.019756 0.573405 0.586027 -0.111687
C35   C     C_R   0.064711 0.051196 0.581615 -0.030016
C36   C     C_R   0.568848 0.481797 0.721229 -0.121098
C37   C     C_R   0.431060 0.518181 0.278733 -0.121129
C38   C     C_R   0.529114 0.465810 0.781814 -0.063905
C39   C     C_R   0.470813 0.534194 0.218167 -0.063960
C40   C     C_R   0.109465 0.499464 0.888311 0.513456
C41   C     C_R   0.890536 0.500537 0.111690 0.513456
C42   C     C_R   0.574411 0.540914 0.874180 0.034130
C43   C     C_R   0.425580 0.459050 0.125796 0.034130
C44   C     C_R   0.660010 0.632056 0.904671 -0.054629
C45   C     C_3   0.412674 0.965573 0.980013 0.085490
C46   C     C_R   0.340031 0.367838 0.095279 -0.054581
C47   C     C_R   0.699446 0.647947 0.843918 0.115831
C48   C     C_R   0.300576 0.351921 0.156013 0.115835
C49   C     C_R   0.654088 0.572528 0.752222 -0.090106
C50   C     C_R   0.345866 0.427381 0.247715 -0.090124
C51   C     C_R   0.585799 0.524232 0.997786 -0.147539
C52   C     C_R   0.414199 0.475757 0.002207 -0.147513
C53   C     C_R   0.551014 0.502086 0.057597 0.023991
C54   C     C_R   0.448986 0.497908 0.942399 0.024042
C55   C     C_R   0.464523 0.478008 0.060826 -0.040407
C56   C     C_3   0.587325 0.034427 0.019986 0.085496
C57   C     C_R   0.535475 0.521980 0.939165 -0.040363
C58   C     C_R   0.964009 0.653299 0.840123 -0.065046
C59   C     C_R   0.036025 0.346697 0.159858 -0.065087
C60   C     C_R   0.990325 0.641940 0.903720 0.295739
C61   C     C_R   0.009685 0.358053 0.096269 0.295721
C62   C     C_R   0.972423 0.544489 0.875520 0.029556
C63   C     C_R   0.027576 0.455501 0.124476 0.029567
C64   C     C_R   0.392530 0.500133 0.607880 0.498531
C65   C     C_R   0.607470 0.499868 0.392120 0.498555
C66   C     C_R   0.930573 0.462068 0.784338 -0.114235
C67   C     C_3   0.485609 0.036406 0.958645 0.239003
C68   C     C_R   0.069429 0.537920 0.215659 -0.114227
C69   C     C_R   0.904960 0.474933 0.722096 -0.114440
C70   C     C_R   0.095054 0.525055 0.277895 -0.114447
C71   C     C_R   0.920680 0.569994 0.750145 -0.154638
C72   C     C_R   0.079351 0.429999 0.249839 -0.154665
C73   C     C_R   0.937438 0.522606 0.995571 -0.075341
C74   C     C_R   0.062562 0.477393 0.004429 -0.075367
C75   C     C_R   0.947557 0.500005 0.055780 0.036833
C76   C     C_R   0.052444 0.499994 0.944221 0.036821
C77   C     C_R   0.010219 0.475936 0.059849 0.011421
C78   C     C_3   0.514390 0.963595 0.041355 0.239016
C79   C     C_R   0.989780 0.524060 0.940151 0.011419
C80   C     C_R   0.393814 0.498523 0.887197 0.506136
C81   C     C_R   0.606186 0.501479 0.112805 0.506089
C82   C     C_R   0.109008 0.500457 0.607937 0.531162
C83   C     C_R   0.890994 0.499544 0.392063 0.531162
C84   C     C_3   0.076799 0.521087 0.480405 -0.138793
C85   C     C_3   0.923206 0.478916 0.519593 -0.138792
C86   C     C_3   0.044028 0.592960 0.514012 0.086585
C87   C     C_3   0.955977 0.407043 0.485986 0.086586
C88   C     C_3   0.948655 0.499128 0.448519 0.047089
C89   C     C_3   0.551269 0.103216 0.053170 -0.028036
C90   C     C_3   0.051349 0.500875 0.551479 0.047087
H1    H     H_    0.319650 0.228137 0.877709 0.114991
H2    H     H_    0.842536 0.871859 0.137971 0.157164
H3    H     H_    0.012499 0.899394 0.547627 0.161371
H4    H     H_    0.987491 0.100605 0.452375 0.161369
H5    H     H_    0.685011 0.584228 0.705154 0.121184
H6    H     H_    0.314926 0.415661 0.294767 0.121179
H7    H     H_    0.533753 0.423382 0.650231 0.108198
H8    H     H_    0.466100 0.576628 0.349734 0.108211
H9    H     H_    0.463618 0.394622 0.756725 0.087224
H10   H     H_    0.536269 0.605435 0.243271 0.087265
H11   H     H_    0.696256 0.690469 0.975491 0.120350
H12   H     H_    0.680416 0.771833 0.122220 0.114913
H13   H     H_    0.303839 0.309394 0.024454 0.120343
H14   H     H_    0.140956 0.539253 0.465856 0.124636
H15   H     H_    0.859049 0.460749 0.534141 0.124643
H16   H     H_    0.651712 0.540198 0.994688 0.152838
H17   H     H_    0.348284 0.459783 0.005304 0.152858
H18   H     H_    0.899228 0.579361 0.702158 0.124993
H19   H     H_    0.100813 0.420632 0.297822 0.124977
H20   H     H_    0.976294 0.726617 0.860161 0.185873
H21   H     H_    0.023758 0.273384 0.139814 0.185826
H22   H     H_    0.915922 0.386982 0.761756 0.129828
H23   H     H_    0.363976 0.246922 0.757586 0.105892
H24   H     H_    0.084072 0.613004 0.238246 0.129834
H25   H     H_    0.871646 0.410646 0.652204 0.152883
H26   H     H_    0.128368 0.589339 0.347788 0.152876
H27   H     H_    0.886797 0.537022 0.990175 0.173250
H28   H     H_    0.113204 0.462977 0.009825 0.173237
H29   H     H_    0.961888 0.365072 0.342804 0.159654
H30   H     H_    0.038122 0.634935 0.657194 0.159650
H31   H     H_    0.462316 0.060157 0.138468 0.167944
H32   H     H_    0.537683 0.939844 0.861531 0.167940
H33   H     H_    0.403945 0.362911 0.343156 0.150906
H34   H     H_    0.636042 0.753032 0.242324 0.105881
H35   H     H_    0.596053 0.637089 0.656840 0.150913
H36   H     H_    0.394586 0.533963 0.463717 0.113501
H37   H     H_    0.605409 0.466033 0.536274 0.113510
H38   H     H_    0.586232 0.668763 0.521655 0.121562
H39   H     H_    0.413765 0.331237 0.478341 0.121557
H40   H     H_    0.002910 0.799141 0.133627 0.371439
H41   H     H_    0.997013 0.200895 0.866317 0.371442
H42   H     H_    0.427376 0.189317 0.931222 0.355678
H43   H     H_    0.573014 0.811074 0.069044 0.355703
H44   H     H_    0.247476 0.166995 0.621366 0.096152
H45   H     H_    0.752508 0.832978 0.378580 0.096139
H46   H     H_    0.039827 0.046176 0.725804 0.126996
H47   H     H_    0.960217 0.953840 0.274213 0.126968
H48   H     H_    0.157544 0.128143 0.862012 0.157169
I1    I     I_    0.113908 0.742242 0.537311 -0.347149
I2    I     I_    0.886097 0.257760 0.462684 -0.347189
I3    I     I_    0.827679 0.785414 0.890975 -0.290946
I4    I     I_    0.172406 0.214362 0.108919 -0.290759
I5    I     I_    0.275284 0.917551 0.952330 -0.069564
I6    I     I_    0.724715 0.082449 0.047667 -0.069664
O1    O     O_3   0.251620 0.500000 0.748430 -0.464475
O2    O     O_R   0.570330 0.268390 0.136490 -0.492155
O3    O     O_R   0.134680 0.268390 0.572240 -0.541972
O4    O     O_R   0.865320 0.731610 0.427760 -0.541970
O5    O     O_R   0.306670 0.731630 0.863510 -0.512322
O6    O     O_R   0.693330 0.268370 0.136490 -0.512297
O7    O     O_R   0.135450 0.439270 0.865360 -0.530302
O8    O     O_R   0.864550 0.560730 0.134640 -0.530293
O9    O     O_R   0.429670 0.560710 0.692610 -0.544817
O10   O     O_R   0.570330 0.439290 0.307390 -0.544799
O11   O     O_R   0.308540 0.439240 0.865360 -0.548114
O12   O     O_3   0.748380 0.500000 0.251570 -0.464467
O13   O     O_R   0.691460 0.560760 0.134640 -0.548089
O14   O     O_R   0.133580 0.439310 0.571150 -0.524484
O15   O     O_R   0.866420 0.560690 0.428850 -0.524481
O16   O     O_R   0.430770 0.560690 0.864590 -0.518541
O17   O     O_R   0.569230 0.439310 0.135410 -0.518652
O18   O     O_R   0.133580 0.560760 0.692610 -0.538246
O19   O     O_R   0.866420 0.439240 0.307390 -0.538242
O20   O     O_2   0.118642 0.754905 0.060576 -0.259935
O21   O     O_2   0.083825 0.849236 0.023651 -0.235136
O22   O     O_3   0.968070 0.738628 0.070525 -0.539506
O23   O     O_R   0.134680 0.560740 0.864590 -0.516544
O24   O     O_2   0.916177 0.150755 0.976340 -0.235123
O25   O     O_2   0.881324 0.245084 0.939445 -0.259958
O26   O     O_3   0.031885 0.261355 0.929432 -0.539510
O27   O     O_2   0.555878 0.154209 0.897070 -0.277875
O28   O     O_2   0.400844 0.997283 0.810566 -0.243034
O29   O     O_3   0.427340 0.156117 0.960654 -0.484000
O30   O     O_2   0.599171 0.002740 0.189435 -0.243236
O31   O     O_2   0.444136 0.845809 0.102952 -0.277680
O32   O     O_3   0.572662 0.843889 0.039353 -0.484012
O33   O     O_R   0.865320 0.439260 0.135410 -0.516537
O34   O     O_R   0.306670 0.439270 0.571150 -0.543777
O35   O     O_R   0.693330 0.560730 0.428850 -0.543771
O36   O     O_R   0.135450 0.268370 0.694460 -0.532516
O37   O     O_R   0.864550 0.731630 0.305540 -0.532507
O38   O     O_R   0.429670 0.731610 0.863510 -0.492084
S1    S     S_3+6 0.044473 0.750368 0.017111 0.025024
S2    S     S_3+6 0.955511 0.249621 0.982880 0.025015
S3    S     S_3+6 0.467698 0.086156 0.902934 0.049122
S4    S     S_3+6 0.532308 0.913856 0.097073 0.049107
Zn1   Zn    Zn3+2 0.207400 0.586780 0.791530 1.003202
Zn2   Zn    Zn3+2 0.792600 0.413220 0.208470 1.003210
Zn3   Zn    Zn3+2 0.208510 0.413230 0.792630 0.960099
Zn4   Zn    Zn3+2 0.791490 0.586770 0.207370 0.960103
Zn5   Zn    Zn3+2 0.383150 0.586740 0.791530 0.986984
Zn6   Zn    Zn3+2 0.616850 0.413260 0.208470 0.986889
Zn7   Zn    Zn3+2 0.207400 0.413250 0.618010 0.945901
Zn8   Zn    Zn3+2 0.792600 0.586750 0.381990 0.945924

loop_
_geom_bond_atom_site_label_1
_geom_bond_atom_site_label_2
_ccdc_geom_bond_type
O15   Zn8   S    
C29   H3    S    
H41   O26   S    
C14   C18   A    
O12   Zn8   S    
C17   O6    A    
C76   C79   A    
C87   I2    S    
C6    C9    S    
C39   H10   S    
C47   C49   A    
C41   O8    A    
C15   C19   A    
O29   S3    S    
O33   Zn2   S    
C84   C90   S    
O1    Zn1   S    
C17   C89   S    
C53   C81   S    
C19   C21   A    
C24   C26   A    
C6    H37   S    
C5    C11   S    
C83   O19   A    
O36   Zn3   S    
C8    C11   S    
O6    Zn2   S    
O18   Zn1   S    
C82   O14   A    
C1    O36   A    
C16   O38   A    
C58   C71   A    
C80   O16   A    
C66   C69   A    
C21   C33   S    
C19   H45   S    
C67   C89   S    
C56   C78   S    
C18   C20   A    
C60   C62   A    
C34   C86   S    
C69   C71   A    
O13   Zn4   S    
C40   O23   A    
O8    Zn4   S    
O11   Zn3   S    
C63   C68   A    
C20   C35   S    
C52   H17   S    
O24   S2    D    
C22   C25   A    
C5    H36   S    
C45   C67   S    
C59   H21   S    
C31   C33   A    
C27   H1    S    
C36   H7    S    
C78   S4    S    
C14   C27   A    
C2    C16   S    
C47   I3    S    
O1    Zn7   S    
C44   C47   A    
C59   C72   A    
O1    Zn3   S    
C26   H2    S    
C60   S1    S    
C53   C55   A    
C83   C88   S    
C23   C87   S    
C71   H18   S    
O1    Zn5   S    
C73   C75   A    
O2    Zn6   S    
C42   C44   A    
O17   Zn6   S    
C85   H15   S    
C42   C57   S    
C37   H8    S    
H43   O32   S    
C52   C54   A    
C54   C80   S    
O12   Zn2   S    
C2    C45   S    
C34   H30   S    
C74   H28   S    
O34   Zn7   S    
C46   C48   A    
C59   C61   A    
O14   Zn7   S    
C81   O13   A    
C23   C84   S    
O27   S3    D    
C85   C87   S    
C48   I4    S    
O21   S1    D    
C32   C35   A    
C62   C79   S    
C73   H27   S    
C15   H34   S    
C5    C7    S    
C62   C66   A    
C25   H48   S    
C39   C43   A    
C82   O18   A    
C70   H26   S    
C64   O9    A    
C74   C77   A    
C1    C32   S    
C40   C76   S    
C40   O7    A    
C22   H46   S    
O19   Zn2   S    
C51   C53   A    
C34   C85   S    
C37   C39   A    
C2    C4    S    
C34   C90   S    
O25   S2    D    
C65   O10   A    
C2    C78   S    
C41   C75   S    
C64   O34   A    
O37   Zn4   S    
H40   O22   S    
C12   O37   A    
C7    C13   S    
O28   S3    D    
O23   Zn1   S    
C61   C63   A    
C73   C79   A    
C4    H32   S    
C49   H5    S    
C75   C77   A    
C16   O5    A    
C74   C76   A    
C86   I1    S    
C51   C57   A    
O12   Zn6   S    
O4    Zn8   S    
C56   C89   S    
C20   C22   A    
O5    Zn1   S    
C23   C88   S    
C9    C11   S    
C12   C31   S    
C84   H14   S    
C1    O3    A    
O38   Zn5   S    
C21   C24   A    
C80   O11   A    
O9    Zn5   S    
C85   C88   S    
C41   O33   A    
C7    C9    S    
O10   Zn6   S    
C72   H19   S    
C69   H25   S    
C61   S2    S    
C30   C33   A    
O26   S2    S    
C58   H20   S    
C81   O17   A    
C8    C10   S    
C10   C64   S    
O22   S1    S    
O16   Zn5   S    
C7    H33   S    
C38   H9    S    
C10   C13   S    
C4    C67   S    
C6    C8    S    
C44   H11   S    
C52   C55   A    
O32   S4    S    
C43   C55   S    
C24   H47   S    
C25   C27   A    
C14   H23   S    
C65   O35   A    
C46   H13   S    
C29   C35   A    
C26   C28   A    
C82   C90   S    
C3    C89   S    
C12   O4    A    
C36   C38   A    
C11   H38   S    
C5    C10   S    
C30   H4    S    
O20   S1    D    
O30   S4    D    
O31   S4    D    
C30   C32   A    
C37   C50   A    
C50   H6    S    
C15   C28   A    
C51   H16   S    
C48   C50   A    
C3    C45   S    
O3    Zn7   S    
C18   H44   S    
C86   C88   S    
H42   O29   S    
C43   C46   A    
C9    C65   S    
C17   O2    A    
C3    H31   S    
C56   I6    S    
C38   C42   A    
C28   H12   S    
C8    H35   S    
O7    Zn3   S    
C83   O15   A    
C29   C31   A    
C87   C90   S    
C63   C77   S    
C45   I5    S    
C68   C70   A    
C13   H39   S    
C84   C86   S    
C23   H29   S    
C70   C72   A    
C66   H22   S    
C3    C78   S    
C58   C60   A    
O35   Zn8   S    
C4    C56   S    
C36   C49   A    
C67   S3    S    
C68   H24   S    
C6    C13   S    
C54   C57   A    
O12   Zn4   S    
