data_mof_unit_41305.cif
_audit_creation_date              2012-12-10T17:53:17-0500
_audit_creation_method            fapswitch 2.2
_symmetry_space_group_name_H-M    P1
_symmetry_Int_Tables_number       1
_space_group_crystal_system       triclinic
_cell_length_a                    23.427814
_cell_length_b                    10.721279
_cell_length_c                    9.868269
_cell_angle_alpha                 90.64896
_cell_angle_beta                  90.146574
_cell_angle_gamma                 91.675468
_cell_volume                      2477.44463808

loop_
_atom_site_label
_atom_site_type_symbol
_atom_type_description
_atom_site_fract_x
_atom_site_fract_y
_atom_site_fract_z
_atom_type_partial_charge
C1    C     C_R   0.505237 0.260771 0.500010 0.869012
C2    C     C_R   0.966805 0.277737 0.405499 -0.144165
C3    C     C_R   0.026211 0.276176 0.407466 -0.137848
C4    C     C_R   0.058067 0.377988 0.461534 -0.030455
C5    C     C_R   0.029828 0.481853 0.514898 -0.018129
C6    C     C_R   0.061393 0.584491 0.569589 -0.031803
C7    C     C_R   0.032906 0.687523 0.622453 -0.138686
C8    C     C_R   0.973539 0.689167 0.620196 -0.146447
C9    C     C_R   0.117705 0.379590 0.462707 0.575604
C10   C     C_R   0.120910 0.581612 0.568557 0.574682
C11   C     C_R   0.235308 0.532472 0.396314 -0.194437
C12   C     C_R   0.389295 0.500540 0.499733 0.928071
C13   C     C_R   0.294566 0.540080 0.390254 0.384355
C14   C     C_R   0.326911 0.496393 0.500195 -0.205240
C15   C     C_R   0.298900 0.446455 0.613996 -0.313430
C16   C     C_R   0.239717 0.439418 0.619151 0.471843
C17   C     C_R   0.208063 0.482696 0.509946 0.155224
C18   C     C_R   0.761299 0.482535 0.626145 -0.088700
C19   C     C_R   0.702180 0.486339 0.624775 -0.205714
C20   C     C_R   0.672887 0.497001 0.501310 -0.049724
C21   C     C_R   0.703486 0.503724 0.379343 -0.192618
C22   C     C_R   0.762696 0.500192 0.381127 -0.090184
C23   C     C_R   0.495753 0.739888 0.501800 0.900763
C24   C     C_R   0.791518 0.489669 0.504493 0.307147
C25   C     C_R   0.541102 0.122240 0.744532 -0.198401
C26   C     C_R   0.534016 0.066700 0.870656 0.439281
C27   C     C_R   0.504129 0.953227 0.879799 -0.211499
C28   C     C_R   0.486208 0.890429 0.761970 -0.216060
C29   C     C_R   0.498092 0.940835 0.632146 0.098730
C30   C     C_R   0.517579 0.064914 0.625892 0.031442
C31   C     C_R   0.510817 0.127901 0.501727 -0.096520
C32   C     C_R   0.498659 0.062463 0.381623 -0.172046
C33   C     C_R   0.491392 0.935563 0.383943 -0.183438
C34   C     C_R   0.610682 0.499814 0.500210 0.880327
C35   C     C_R   0.491884 0.873526 0.507613 -0.111415
C36   C     C_R   0.426265 0.334003 0.138446 -0.103549
C37   C     C_R   0.390329 0.251224 0.066976 -0.141493
C38   C     C_R   0.390217 0.251175 0.926771 -0.153934
C39   C     C_R   0.426055 0.333873 0.857358 -0.158835
C40   C     C_R   0.463633 0.417965 0.926469 0.192581
C41   C     C_R   0.463676 0.418022 0.071335 0.219431
C42   C     C_R   0.534661 0.578676 0.072810 -0.088895
C43   C     C_R   0.534643 0.578647 0.929389 -0.117030
C44   C     C_R   0.882149 0.587807 0.560608 0.508693
C45   C     C_R   0.878757 0.385334 0.455812 0.511281
C46   C     C_R   0.938298 0.381183 0.457465 -0.018920
C47   C     C_R   0.969893 0.483489 0.512723 -0.014193
C48   C     C_R   0.941708 0.587732 0.565197 -0.017732
H1    H     H_    0.943366 0.197991 0.362779 0.197658
H2    H     H_    0.679534 0.480515 0.720148 0.172029
H3    H     H_    0.681801 0.512029 0.282943 0.170927
H4    H     H_    0.786271 0.506155 0.287054 0.148263
H5    H     H_    0.494043 0.109193 0.285613 0.209149
H6    H     H_    0.565214 0.209715 0.740668 0.191595
H7    H     H_    0.495567 0.912429 0.977842 0.170177
H8    H     H_    0.461224 0.805278 0.775327 0.197585
H9    H     H_    0.485049 0.886237 0.288357 0.184290
H10   H     H_    0.562921 0.642863 0.127877 0.148339
H11   H     H_    0.047034 0.195341 0.366101 0.198939
H12   H     H_    0.423256 0.329576 0.245776 0.193986
H13   H     H_    0.362147 0.187289 0.120880 0.170124
H14   H     H_    0.361916 0.187258 0.871244 0.174923
H15   H     H_    0.422668 0.329353 0.750000 0.202000
H16   H     H_    0.562847 0.642866 0.876109 0.156853
H17   H     H_    0.056342 0.767326 0.665060 0.201142
H18   H     H_    0.952739 0.770159 0.661261 0.197676
H19   H     H_    0.210046 0.566892 0.313345 0.196902
H20   H     H_    0.322912 0.411978 0.698933 0.201999
H21   H     H_    0.783759 0.474122 0.721524 0.148750
N1    N     N_R   0.852227 0.487619 0.506662 -0.360167
N2    N     N_R   0.147436 0.480544 0.515149 -0.337106
N3    N     N_R   0.499460 0.498800 0.142780 -0.115709
N4    N     N_R   0.499440 0.498720 0.857170 -0.125924
O1    O     O_R   0.500000 0.316780 0.614690 -0.653455
O2    O     O_2   0.847484 0.287949 0.404785 -0.539887
O3    O     O_2   0.145924 0.281824 0.411461 -0.520476
O4    O     O_2   0.152221 0.678965 0.619567 -0.516993
O5    O     O_R   0.500000 0.316750 0.385360 -0.632793
O6    O     O_R   0.416160 0.499970 0.614690 -0.644610
O7    O     O_R   0.416150 0.499950 0.385360 -0.590282
O8    O     O_R   0.500000 0.683250 0.614640 -0.633123
O9    O     O_R   0.500000 0.683220 0.385310 -0.611935
O10   O     O_R   0.583850 0.500050 0.614640 -0.623070
O11   O     O_R   0.583840 0.500030 0.385310 -0.611872
O12   O     O_2   0.854205 0.687310 0.608653 -0.544227
Zn1   Zn    Zn3+2 0.500000 0.500020 0.653130 0.943302
Zn2   Zn    Zn3+2 0.500000 0.499980 0.346870 0.990441
Cl1   Cl    Cl    0.559930 0.142830 0.017664 -0.657547
Cl2   Cl    Cl    0.325327 0.610558 0.246087 -0.567155
Cl3   Cl    Cl    0.205942 0.376915 0.763270 -0.537647

loop_
_geom_bond_atom_site_label_1
_geom_bond_atom_site_label_2
_ccdc_geom_bond_type
O5    Zn2   S    
C43   N4    A    
C8    H18   S    
C23   O9    A    
C19   C20   A    
O11   Zn2   S    
C42   H10   S    
C28   H8    S    
C24   N1    S    
C7    C8    A    
C45   C46   A    
C2    C46   A    
C16   Cl3   S    
C5    C47   A    
C26   C27   A    
C29   C30   A    
C18   C24   A    
C1    O1    A    
C36   C37   A    
O7    Zn2   S    
C5    C6    A    
C27   H7    S    
C15   C16   A    
C12   O6    A    
C1    C31   S    
C40   N4    A    
C18   C19   A    
C11   C17   A    
C47   C48   A    
C16   C17   A    
C44   N1    A    
C9    O3    S    
O8    Zn1   S    
C20   C34   S    
C10   N2    A    
C18   H21   S    
C13   C14   A    
C1    O5    A    
C36   C41   A    
C34   O11   A    
C10   O4    S    
C11   H19   S    
C43   H16   S    
C38   C39   A    
C25   H6    S    
C39   C40   A    
C25   C26   A    
C3    C4    A    
C8    C48   A    
C37   C38   A    
C2    H1    S    
C7    H17   S    
C31   C32   A    
C42   N3    A    
O1    Zn1   S    
C41   N3    A    
C40   C41   A    
C12   C14   S    
C17   N2    S    
C23   C35   S    
C22   C24   A    
C42   C43   A    
C44   O12   S    
C32   H5    S    
C21   H3    S    
N3    Zn2   S    
C22   H4    S    
C25   C30   A    
C46   C47   A    
C28   C29   A    
C33   H9    S    
C23   O8    A    
C13   Cl2   S    
C45   N1    A    
C9    N2    A    
C4    C5    A    
C36   H12   S    
C6    C10   A    
C37   H13   S    
C6    C7    A    
C39   H15   S    
C29   C35   A    
C45   O2    S    
C32   C33   A    
C2    C3    A    
C11   C13   A    
C19   H2    S    
C30   C31   A    
C15   H20   S    
C12   O7    A    
C33   C35   A    
N4    Zn1   S    
C44   C48   A    
O10   Zn1   S    
C20   C21   A    
C26   Cl1   S    
C34   O10   A    
C27   C28   A    
C14   C15   A    
C4    C9    A    
C21   C22   A    
O6    Zn1   S    
O9    Zn2   S    
C38   H14   S    
C3    H11   S    
