data_mof_unit_30222.cif
_audit_creation_date              2012-10-26T18:25:40-0400
_audit_creation_method            fapswitch 2.2
_symmetry_space_group_name_H-M    P1
_symmetry_Int_Tables_number       1
_space_group_crystal_system       triclinic
_cell_length_a                    7.615753
_cell_length_b                    8.768075
_cell_length_c                    11.028919
_cell_angle_alpha                 85.741359
_cell_angle_beta                  71.355844
_cell_angle_gamma                 103.662657
_cell_volume                      669.036471099

loop_
_atom_site_label
_atom_site_type_symbol
_atom_type_description
_atom_site_fract_x
_atom_site_fract_y
_atom_site_fract_z
_atom_type_partial_charge
C1    C     C_R   0.451448 0.199948 0.505087 0.561206
C2    C     C_2   0.576318 0.969778 0.474278 0.002259
C3    C     C_2   0.236957 0.935522 0.625570 0.590244
C4    C     C_2   0.763042 0.064478 0.374426 0.590251
C5    C     C_2   0.905385 0.328195 0.640854 0.746643
C6    C     C_2   0.094612 0.671814 0.359152 0.746633
C7    C     C_R   0.548552 0.800052 0.494912 0.561206
C8    C     C_R   0.421510 0.492214 0.742945 0.580867
C9    C     C_R   0.578490 0.507786 0.257055 0.580870
C10   C     C_2   0.377898 0.488262 0.882049 -0.089817
C11   C     C_2   0.622101 0.511738 0.117951 -0.089816
C12   C     C_2   0.519819 0.501789 0.930899 -0.140141
C13   C     C_2   0.480181 0.498211 0.069100 -0.140137
C14   C     C_2   0.423682 0.030223 0.525720 0.002258
Cu1   Cu    Cu3+1 0.688910 0.517800 0.485820 1.130950
Cu2   Cu    Cu3+1 0.311090 0.482200 0.514180 1.130952
H1    H     H_    0.332267 0.484242 0.131348 0.169102
H2    H     H_    0.667733 0.515758 0.868652 0.169100
H3    H     H_    0.769749 0.525580 0.055395 0.109456
H4    H     H_    0.230251 0.474419 0.944605 0.109458
H5    H     H_    0.101493 0.778208 0.791908 0.335972
H6    H     H_    0.898505 0.221796 0.208092 0.335972
H7    H     H_    0.646947 0.184049 0.755504 0.323030
H8    H     H_    0.353049 0.815959 0.244501 0.323028
N1    N     N_2   0.027170 0.455360 0.535550 -0.163024
N2    N     N_2   0.972830 0.544640 0.464450 -0.163029
O1    O     O_R   0.622710 0.286400 0.490790 -0.468973
O2    O     O_R   0.236570 0.836558 0.731234 -0.700505
O3    O     O_2   0.915487 0.053612 0.383842 -0.437182
O4    O     O_R   0.763429 0.163447 0.268766 -0.700507
O5    O     O_2   0.982836 0.259837 0.700031 -0.469938
O6    O     O_R   0.706612 0.275485 0.679988 -0.674192
O7    O     O_2   0.017154 0.740188 0.299988 -0.469918
O8    O     O_R   0.293389 0.724510 0.320008 -0.674195
O9    O     O_R   0.377290 0.713600 0.509210 -0.468982
O10   O     O_R   0.303660 0.256330 0.514730 -0.445779
O11   O     O_R   0.696340 0.743670 0.485270 -0.445768
O12   O     O_R   0.600900 0.509520 0.671740 -0.481766
O13   O     O_R   0.399100 0.490480 0.328260 -0.481756
O14   O     O_R   0.281840 0.479450 0.695690 -0.478417
O15   O     O_R   0.718160 0.520550 0.304310 -0.478427
O16   O     O_2   0.084511 0.946383 0.616149 -0.437188

loop_
_geom_bond_atom_site_label_1
_geom_bond_atom_site_label_2
_ccdc_geom_bond_type
C2    C4    S    
C3    O16   D    
C9    C11   S    
C9    O15   A    
C4    O3    D    
C6    O7    D    
C13   H1    S    
C5    O6    S    
H7    O6    S    
C7    O11   A    
Cu1   O12   S    
H6    O4    S    
Cu2   O10   S    
C11   C13   D    
C11   H3    S    
C6    N2    S    
C3    C14   S    
C10   C12   D    
Cu2   O14   S    
C5    N1    S    
C7    O9    A    
C3    O2    S    
H5    O2    S    
C8    O12   A    
Cu2   O9    S    
C2    C14   D    
C4    O4    S    
Cu2   O13   S    
Cu1   Cu2   S    
C9    O13   A    
C12   C13   S    
Cu1   O15   S    
C8    C10   S    
C12   H2    S    
Cu2   N1    S    
C1    O1    A    
Cu1   O11   S    
Cu1   N2    S    
C1    C14   S    
C8    O14   A    
C2    C7    S    
N1    N2    D    
Cu1   O1    S    
H8    O8    S    
C6    O8    S    
C1    O10   A    
C10   H4    S    
C5    O5    D    
