data_mof_unit_22278.cif
_audit_creation_date              2012-10-26T21:19:45-0400
_audit_creation_method            fapswitch 2.2
_symmetry_space_group_name_H-M    P1
_symmetry_Int_Tables_number       1
_space_group_crystal_system       triclinic
_cell_length_a                    10.870583
_cell_length_b                    15.172368
_cell_length_c                    13.845108
_cell_angle_alpha                 88.654543
_cell_angle_beta                  90.63019
_cell_angle_gamma                 88.742282
_cell_volume                      2282.17706036

loop_
_atom_site_label
_atom_site_type_symbol
_atom_type_description
_atom_site_fract_x
_atom_site_fract_y
_atom_site_fract_z
_atom_type_partial_charge
C1    C     C_R   0.500309 0.329533 0.500753 0.598265
C2    C     C_R   0.468358 0.815085 0.407001 0.220946
C3    C     C_R   0.494841 0.232546 0.500341 -0.030896
C4    C     C_R   0.497856 0.768223 0.494822 -0.012000
C5    C     C_R   0.544634 0.185890 0.421754 0.199897
C6    C     C_R   0.519016 0.815779 0.579738 0.215193
C7    C     C_R   0.540686 0.094362 0.422727 -0.113123
C8    C     C_R   0.512386 0.907865 0.575236 -0.124605
C9    C     C_R   0.469265 0.049474 0.490191 -0.006979
C10   C     C_R   0.471791 0.952857 0.491267 0.001121
C11   C     C_R   0.604283 0.523198 0.107535 -0.153392
C12   C     C_R   0.500949 0.670634 0.498657 0.593489
C13   C     C_R   0.423183 0.443684 0.892540 -0.151519
C14   C     C_R   0.602507 0.523223 0.208927 0.025226
C15   C     C_R   0.423755 0.445796 0.791068 0.043336
C16   C     C_R   0.262291 0.500253 0.499357 0.585440
C17   C     C_R   0.737798 0.499928 0.500770 0.592496
C18   C     C_R   0.398297 0.474135 0.209179 0.025040
C19   C     C_R   0.574906 0.555057 0.789843 0.034858
C20   C     C_R   0.395477 0.474413 0.107625 -0.155161
C21   C     C_R   0.575069 0.556751 0.891307 -0.157343
C22   C     C_R   0.499467 0.499353 0.054384 0.021624
C23   C     C_R   0.871654 0.501192 0.502530 -0.019901
C24   C     C_R   0.499225 0.499925 0.945102 0.020163
C25   C     C_R   0.175785 0.772935 0.335580 -0.040764
C26   C     C_R   0.824802 0.253840 0.717528 -0.102292
C27   C     C_R   0.138626 0.707946 0.401405 -0.063142
C28   C     C_R   0.864168 0.303547 0.637861 -0.036102
C29   C     C_R   0.120687 0.621703 0.370734 0.091734
C30   C     C_R   0.880529 0.394536 0.645938 0.089557
C31   C     C_R   0.142347 0.600853 0.274090 -0.039511
C32   C     C_R   0.854347 0.435449 0.733553 -0.039526
C33   C     C_R   0.183359 0.665427 0.209124 -0.104367
C34   C     C_R   0.128579 0.499409 0.498118 -0.030943
C35   C     C_R   0.812277 0.385874 0.812234 -0.100489
C36   C     C_R   0.198840 0.751678 0.239604 -0.034364
C37   C     C_R   0.798859 0.295025 0.804573 -0.108168
C38   C     C_R   0.932087 0.558032 0.437983 0.198303
C39   C     C_R   0.068178 0.442432 0.562580 0.194828
C40   C     C_3   0.493326 0.216124 0.727636 0.035490
C41   C     C_3   0.478904 0.133666 0.792564 -0.255286
C42   C     C_3   0.576097 0.128047 0.872744 -0.509991
C43   C     C_3   0.569650 0.760603 0.275990 0.050616
C44   C     C_3   0.589313 0.831607 0.197688 -0.266909
C45   C     C_R   0.939869 0.445724 0.567745 -0.063085
C46   C     C_3   0.699776 0.808355 0.135299 -0.487381
C47   C     C_3   0.526310 0.248451 0.269676 0.047016
C48   C     C_3   0.532660 0.177889 0.192590 -0.279474
C49   C     C_3   0.448447 0.202987 0.106896 -0.476674
C50   C     C_3   0.479657 0.789919 0.741993 0.014344
C51   C     C_3   0.552743 0.829956 0.824563 -0.268458
C52   C     C_3   0.471122 0.848487 0.911042 -0.483722
C53   C     C_R   0.060554 0.557446 0.435685 -0.055682
C54   C     C_R   0.407216 0.096304 0.561579 0.241597
C55   C     C_R   0.445420 0.906088 0.407855 0.232966
C56   C     C_R   0.432521 0.185448 0.573995 0.260533
Cl1   Cl    Cl    0.847955 0.636999 0.365629 -0.695504
Cl2   Cl    Cl    0.152356 0.363780 0.635455 -0.558849
Cl3   Cl    Cl    0.294332 0.044944 0.633166 -0.592508
Cl4   Cl    Cl    0.378649 0.960022 0.304830 -0.679214
Cu1   Cu    Cu3+1 0.500000 0.499990 0.596430 1.000077
Cu2   Cu    Cu3+1 0.500000 0.500010 0.403570 0.989352
H1    H     H_    0.228629 0.802041 0.188939 0.153359
H2    H     H_    0.634388 0.598545 0.749827 0.154981
H3    H     H_    0.311403 0.455963 0.071685 0.093167
H4    H     H_    0.633461 0.603214 0.926738 0.087031
H5    H     H_    0.186021 0.839854 0.359044 0.177643
H6    H     H_    0.815097 0.183303 0.711933 0.112329
H7    H     H_    0.119044 0.725471 0.475142 0.117184
H8    H     H_    0.886035 0.270940 0.571245 0.140267
H9    H     H_    0.124545 0.535321 0.248787 0.098469
H10   H     H_    0.868495 0.505408 0.741186 0.103600
H11   H     H_    0.200513 0.649068 0.134724 0.101673
H12   H     H_    0.769706 0.256667 0.866574 0.108761
H13   H     H_    0.792502 0.417555 0.879731 0.107030
H14   H     H_    0.586257 0.215581 0.694583 0.104100
H15   H     H_    0.489915 0.274363 0.774194 0.150493
H16   H     H_    0.385931 0.134705 0.825173 0.216165
H17   H     H_    0.490194 0.073505 0.749494 0.182929
H18   H     H_    0.668763 0.118246 0.841362 0.146915
H19   H     H_    0.557887 0.070771 0.921512 0.153576
H20   H     H_    0.574197 0.189060 0.915428 0.145535
H21   H     H_    0.568974 0.695796 0.240942 0.179237
H22   H     H_    0.649097 0.758605 0.327770 0.174233
H23   H     H_    0.591893 0.058167 0.369271 0.159007
H24   H     H_    0.505756 0.838466 0.150883 0.200761
H25   H     H_    0.606063 0.895679 0.232122 0.192015
H26   H     H_    0.784125 0.799601 0.180876 0.190463
H27   H     H_    0.714630 0.862404 0.081528 0.146710
H28   H     H_    0.683145 0.746612 0.096029 0.147592
H29   H     H_    0.555898 0.311651 0.236190 0.174236
H30   H     H_    0.428743 0.259286 0.292074 0.142590
H31   H     H_    0.628828 0.169935 0.167233 0.170772
H32   H     H_    0.502817 0.113895 0.223333 0.212971
H33   H     H_    0.352766 0.215163 0.131478 0.165448
H34   H     H_    0.538372 0.944656 0.638050 0.133961
H35   H     H_    0.447322 0.148064 0.055489 0.162522
H36   H     H_    0.481660 0.263261 0.069235 0.142113
H37   H     H_    0.442166 0.726156 0.767786 0.158445
H38   H     H_    0.398389 0.833543 0.722955 0.151899
H39   H     H_    0.628749 0.783663 0.847621 0.167878
H40   H     H_    0.593708 0.892692 0.799196 0.165693
H41   H     H_    0.394041 0.894366 0.889567 0.171100
H42   H     H_    0.526184 0.879661 0.968345 0.147076
H43   H     H_    0.433501 0.786075 0.940644 0.151289
H44   H     H_    0.688440 0.540752 0.071619 0.096082
H45   H     H_    0.364402 0.397236 0.928958 0.101441
H46   H     H_    0.684083 0.542435 0.247159 0.183258
H47   H     H_    0.363836 0.403047 0.752005 0.200778
H48   H     H_    0.318536 0.452458 0.248059 0.122198
N1    N     N_R   0.500000 0.500020 0.258690 -0.232721
N2    N     N_R   0.500000 0.499980 0.741310 -0.236474
O1    O     O_R   0.500010 0.371450 0.581430 -0.479143
O2    O     O_3   0.453881 0.772183 0.320654 -0.536786
O3    O     O_3   0.607836 0.228035 0.348272 -0.554141
O4    O     O_3   0.559476 0.772455 0.663991 -0.555256
O5    O     O_R   0.499990 0.628550 0.418570 -0.466717
O6    O     O_R   0.500010 0.371460 0.418560 -0.494292
O7    O     O_R   0.499990 0.628540 0.581440 -0.475354
O8    O     O_R   0.319640 0.500000 0.581430 -0.464214
O9    O     O_R   0.680360 0.500000 0.418570 -0.472190
O10   O     O_R   0.319640 0.500010 0.418560 -0.526912
O11   O     O_R   0.680360 0.499990 0.581440 -0.522776
O12   O     O_3   0.396277 0.225522 0.658176 -0.476186

loop_
_geom_bond_atom_site_label_1
_geom_bond_atom_site_label_2
_ccdc_geom_bond_type
C37   H12   S    
C52   H41   S    
C42   H18   S    
C23   C45   A    
C21   H4    S    
Cu1   O7    S    
C43   H21   S    
C47   H30   S    
C15   H47   S    
C30   C45   S    
C25   H5    S    
C13   H45   S    
C32   H10   S    
C46   H27   S    
C19   N2    A    
C51   H40   S    
C47   O3    S    
C42   H20   S    
C35   H13   S    
C50   H37   S    
C17   C23   S    
C48   H32   S    
C56   O12   S    
C35   C37   A    
C2    C55   A    
C16   O8    A    
C43   O2    S    
C11   C14   A    
C27   C29   A    
C38   Cl1   S    
C33   C36   A    
C41   C42   S    
C16   O10   A    
Cu2   O5    S    
C16   C34   S    
C49   H36   S    
C17   O11   A    
Cu2   N1    S    
C8    H34   S    
C31   C33   A    
C4    C12   S    
C36   H1    S    
C9    C10   S    
C50   O4    S    
C27   H7    S    
C39   C45   A    
C31   H9    S    
C55   Cl4   S    
C5    O3    S    
Cu1   O8    S    
C43   H22   S    
C42   H19   S    
C1    O1    A    
C44   H24   S    
C44   C46   S    
C46   H26   S    
C54   Cl3   S    
C14   N1    A    
C40   O12   S    
C54   C56   A    
C48   H31   S    
C34   C39   A    
C32   C35   A    
C20   H3    S    
C18   N1    A    
C4    C6    A    
C41   H16   S    
C5    C7    A    
C6    C8    A    
C39   Cl2   S    
C40   H14   S    
C13   C24   A    
C1    C3    S    
C2    C4    A    
C43   C44   S    
C12   O7    A    
C3    C56   A    
C47   C48   S    
C19   H2    S    
C11   H44   S    
C50   C51   S    
C49   H33   S    
C10   C55   A    
C6    O4    S    
C17   O9    A    
C40   C41   S    
C20   C22   A    
C52   H43   S    
C13   C15   A    
Cu1   O1    S    
C22   C24   S    
C51   H39   S    
C44   H25   S    
Cu2   O10   S    
C33   H11   S    
C7    C9    A    
C52   H42   S    
C19   C21   A    
C47   H29   S    
C15   N2    A    
C28   H8    S    
C18   H48   S    
C3    C5    A    
C41   H17   S    
C26   C37   A    
C46   H28   S    
C25   C27   A    
C23   C38   A    
C11   C22   A    
C26   C28   A    
Cu1   O11   S    
C26   H6    S    
C28   C30   A    
C51   C52   S    
C29   C31   A    
C30   C32   A    
C2    O2    S    
C7    H23   S    
C38   C53   A    
C29   C53   S    
C48   C49   S    
C14   H46   S    
C18   C20   A    
C1    O6    A    
Cu1   Cu2   S    
C50   H38   S    
Cu2   O6    S    
C25   C36   A    
C49   H35   S    
C12   O5    A    
C34   C53   A    
C8    C10   A    
C21   C24   A    
C40   H15   S    
C9    C54   A    
Cu1   N2    S    
Cu2   O9    S    
