data_mof_unit_58334.cif
_audit_creation_date              2012-12-11T14:33:56-0500
_audit_creation_method            fapswitch 2.2
_symmetry_space_group_name_H-M    P1
_symmetry_Int_Tables_number       1
_space_group_crystal_system       triclinic
_cell_length_a                    13.994812
_cell_length_b                    13.994703
_cell_length_c                    27.527351
_cell_angle_alpha                 90.000653
_cell_angle_beta                  89.999718
_cell_angle_gamma                 119.999746
_cell_volume                      4669.03273356

loop_
_atom_site_label
_atom_site_type_symbol
_atom_type_description
_atom_site_fract_x
_atom_site_fract_y
_atom_site_fract_z
_atom_type_partial_charge
C1    C     C_R   0.236666 0.785188 0.569942 0.537107
C2    C     C_R   0.214814 0.451482 0.569943 0.537104
C3    C     C_R   0.548521 0.763334 0.569943 0.537107
C4    C     C_3   0.653202 0.735581 0.791689 0.252962
C5    C     C_3   0.264416 0.917615 0.791691 0.252969
C6    C     C_3   0.082383 0.346799 0.791691 0.252967
C7    C     C_3   0.619756 0.715474 0.737266 0.124901
C8    C     C_3   0.284527 0.904276 0.737269 0.124907
C9    C     C_3   0.095723 0.380253 0.737270 0.124901
C10   C     C_1   0.727860 0.873269 0.857834 0.133243
C11   C     C_1   0.126729 0.854585 0.857835 0.133240
C12   C     C_1   0.145408 0.272132 0.857834 0.133239
C13   C     C_1   0.607413 0.806089 0.661633 -0.004449
C14   C     C_1   0.193912 0.801329 0.661633 -0.004446
C15   C     C_1   0.198678 0.392595 0.661635 -0.004450
C16   C     C_1   0.585850 0.789571 0.619050 0.053799
C17   C     C_1   0.210430 0.796283 0.619049 0.053800
C18   C     C_1   0.203723 0.414157 0.619051 0.053797
C19   C     C_R   0.069607 0.159986 0.096917 0.491822
C20   C     C_R   0.839993 0.909615 0.096920 0.491796
C21   C     C_R   0.090386 0.930380 0.096919 0.491791
C22   C     C_R   0.077278 0.172493 0.942740 0.501695
C23   C     C_R   0.827504 0.904783 0.942740 0.501697
C24   C     C_R   0.095217 0.922719 0.942740 0.501695
C25   C     C_R   0.655418 0.911631 0.366640 0.218432
C26   C     C_R   0.088375 0.743816 0.366642 0.218419
C27   C     C_R   0.256163 0.344512 0.366650 0.218420
C28   C     C_R   0.692064 0.929725 0.318048 0.039588
C29   C     C_R   0.070281 0.762371 0.318051 0.039600
C30   C     C_R   0.237576 0.307812 0.318065 0.039621
C31   C     C_R   0.753169 0.958001 0.219411 -0.003538
C32   C     C_R   0.041995 0.795196 0.219415 -0.003520
C33   C     C_R   0.204732 0.246679 0.219430 -0.003508
C34   C     C_R   0.232052 0.788865 0.432329 0.564947
C35   C     C_R   0.211134 0.443183 0.432329 0.564937
C36   C     C_R   0.556814 0.767951 0.432329 0.564933
C37   C     C_R   0.743745 0.039841 0.244235 -0.088083
C38   C     C_R   0.960140 0.703953 0.244244 -0.088116
C39   C     C_R   0.295972 0.256060 0.244259 -0.088175
C40   C     C_R   0.714535 0.026644 0.293100 -0.055455
C41   C     C_R   0.973341 0.687944 0.293109 -0.055479
C42   C     C_R   0.311990 0.285280 0.293123 -0.055511
C43   C     C_R   0.785882 0.972920 0.170854 -0.176576
C44   C     C_R   0.027071 0.812986 0.170858 -0.176598
C45   C     C_R   0.186959 0.213996 0.170869 -0.176641
C46   C     C_R   0.794903 0.890669 0.146217 -0.022771
C47   C     C_R   0.109333 0.904238 0.146216 -0.022774
C48   C     C_R   0.095721 0.205030 0.146224 -0.022797
C49   C     C_R   0.647750 0.733834 0.364733 -0.115266
C50   C     C_R   0.266208 0.913903 0.364723 -0.115275
C51   C     C_R   0.086055 0.352217 0.364742 -0.115268
C52   C     C_R   0.678151 0.747430 0.316416 -0.059616
C53   C     C_R   0.252615 0.930699 0.316404 -0.059634
C54   C     C_R   0.069229 0.321784 0.316427 -0.059616
C55   C     C_R   0.700371 0.845854 0.292754 -0.021846
C56   C     C_R   0.154167 0.854522 0.292750 -0.021836
C57   C     C_R   0.145408 0.299520 0.292769 -0.021836
C58   C     C_R   0.678735 0.660980 0.290431 0.230424
C59   C     C_R   0.339083 0.017697 0.290413 0.230415
C60   C     C_R   0.982207 0.321218 0.290440 0.230436
C61   C     C_R   0.700935 0.672741 0.241035 0.426191
C62   C     C_R   0.327302 0.028150 0.241020 0.426181
C63   C     C_R   0.971763 0.299003 0.241045 0.426194
C64   C     C_R   0.730841 0.773151 0.217761 -0.009023
C65   C     C_R   0.226872 0.957673 0.217753 -0.009046
C66   C     C_R   0.042250 0.269070 0.217773 -0.009025
C67   C     C_3   0.556495 0.854622 0.741729 -0.216726
C68   C     C_3   0.145371 0.701870 0.741725 -0.216730
C69   C     C_3   0.298130 0.443507 0.741730 -0.216725
C70   C     C_R   0.729293 0.859504 0.243448 -0.052769
C71   C     C_R   0.140510 0.869794 0.243445 -0.052755
C72   C     C_R   0.130129 0.270585 0.243464 -0.052754
C73   C     C_R   0.762492 0.788812 0.169259 0.395151
C74   C     C_R   0.211203 0.973665 0.169253 0.395153
C75   C     C_R   0.026277 0.237443 0.169267 0.395157
C76   C     C_R   0.625954 0.809170 0.388630 0.001228
C77   C     C_R   0.190849 0.816791 0.388626 0.001239
C78   C     C_R   0.183193 0.374019 0.388635 0.001229
C79   C     C_3   0.753737 0.918064 0.719713 -0.193298
C80   C     C_3   0.081941 0.835684 0.719713 -0.193301
C81   C     C_3   0.164326 0.246266 0.719711 -0.193302
C82   C     C_3   0.787647 0.933626 0.773705 0.023256
C83   C     C_3   0.066373 0.854020 0.773705 0.023252
C84   C     C_3   0.145983 0.212353 0.773702 0.023255
C85   C     C_1   0.770376 0.887160 0.897322 0.106248
C86   C     C_1   0.112838 0.883211 0.897322 0.106242
C87   C     C_1   0.116782 0.229616 0.897321 0.106243
C88   C     C_3   0.633707 0.822910 0.713811 -0.091338
C89   C     C_3   0.177090 0.810799 0.713810 -0.091334
C90   C     C_3   0.189205 0.366299 0.713812 -0.091338
C91   C     C_3   0.588902 0.876737 0.796977 0.466987
C92   C     C_3   0.123262 0.712161 0.796974 0.466984
C93   C     C_3   0.287836 0.411096 0.796977 0.466989
C94   C     C_3   0.688438 0.856449 0.806968 0.023527
C95   C     C_3   0.143549 0.831985 0.806968 0.023526
C96   C     C_3   0.168012 0.311559 0.806968 0.023522
Cr1   Cr    Cr6+3 0.164410 0.584450 0.499910 1.138589
Cr2   Cr    Cr6+3 0.415550 0.579960 0.499910 1.138596
Cr3   Cr    Cr6+3 0.420040 0.835590 0.499910 1.138587
Cr4   Cr    Cr6+3 0.155170 0.075460 0.019960 1.157370
Cr5   Cr    Cr6+3 0.924540 0.079710 0.019960 1.157362
Cr6   Cr    Cr6+3 0.920290 0.844830 0.019960 1.157362
H1    H     H_    0.469390 0.787183 0.737667 0.124432
H2    H     H_    0.212805 0.682196 0.737660 0.124418
H3    H     H_    0.317798 0.530613 0.737669 0.124436
H4    H     H_    0.722161 0.720687 0.798209 0.244883
H5    H     H_    0.279307 0.001467 0.798211 0.244879
H6    H     H_    0.998531 0.277838 0.798209 0.244883
H7    H     H_    0.804241 0.048052 0.152205 0.217245
H8    H     H_    0.951925 0.756227 0.152215 0.217232
H9    H     H_    0.243727 0.195625 0.152223 0.217199
H10   H     H_    0.757061 0.113345 0.225541 0.232787
H11   H     H_    0.886622 0.643778 0.225554 0.232769
H12   H     H_    0.356143 0.242712 0.225569 0.232707
H13   H     H_    0.707560 0.092105 0.310544 0.243107
H14   H     H_    0.907867 0.615525 0.310557 0.243067
H15   H     H_    0.384408 0.292222 0.310570 0.243004
H16   H     H_    0.561355 0.928839 0.724487 0.185316
H17   H     H_    0.071151 0.632521 0.724482 0.185323
H18   H     H_    0.367482 0.438642 0.724487 0.185315
H19   H     H_    0.631366 0.658615 0.382815 0.228990
H20   H     H_    0.341437 0.972729 0.382801 0.229002
H21   H     H_    0.027233 0.368624 0.382822 0.228985
H22   H     H_    0.811213 0.900796 0.698541 0.174986
H23   H     H_    0.099218 0.910436 0.698545 0.174988
H24   H     H_    0.089579 0.188793 0.698540 0.174984
H25   H     H_    0.761097 0.995161 0.704464 0.221383
H26   H     H_    0.004845 0.765957 0.704459 0.221381
H27   H     H_    0.234057 0.238901 0.704458 0.221380
H28   H     H_    0.854278 0.913912 0.778101 0.181382
H29   H     H_    0.086082 0.940364 0.778107 0.181377
H30   H     H_    0.059639 0.145719 0.778099 0.181378
H31   H     H_    0.531564 0.649985 0.734523 0.183869
H32   H     H_    0.350010 0.881564 0.734526 0.183865
H33   H     H_    0.118430 0.468447 0.734529 0.183874
O1    O     O_R   0.137150 0.468200 0.553200 -0.479953
O2    O     O_R   0.531800 0.668950 0.553200 -0.479953
O3    O     O_R   0.331050 0.862850 0.553200 -0.479954
O4    O     O_R   0.179100 0.982980 0.967000 -0.439924
O5    O     O_R   0.017020 0.196120 0.967000 -0.439922
O6    O     O_R   0.803880 0.820900 0.967000 -0.439924
O7    O     O_R   0.173970 0.688730 0.549930 -0.495859
O8    O     O_R   0.311270 0.485240 0.549930 -0.495863
O9    O     O_R   0.514760 0.826030 0.549930 -0.495863
O10   O     O_R   0.140110 0.470540 0.446010 -0.498052
O11   O     O_R   0.529460 0.669570 0.446010 -0.498035
O12   O     O_R   0.330430 0.859890 0.446010 -0.498049
O13   O     O_R   0.176710 0.690910 0.450560 -0.437725
O14   O     O_R   0.309090 0.485800 0.450560 -0.437716
O15   O     O_R   0.514200 0.823290 0.450560 -0.437733
O16   O     O_3   0.333333 0.666667 0.499990 -0.332037
O17   O     O_R   0.176750 0.985260 0.074180 -0.383193
O18   O     O_R   0.014740 0.191490 0.074180 -0.383178
O19   O     O_R   0.808510 0.823250 0.074180 -0.383186
O20   O     O_R   0.146100 0.172630 0.068980 -0.469864
O21   O     O_R   0.827370 0.973470 0.068980 -0.469894
O22   O     O_R   0.026530 0.853900 0.068980 -0.469878
O23   O     O_3   1.000000 1.000000 0.020040 -0.399796
O24   O     O_R   0.148270 0.170520 0.969620 -0.468858
O25   O     O_R   0.829480 0.977750 0.969620 -0.468861
O26   O     O_R   0.022250 0.851730 0.969620 -0.468862
Cl1   Cl    Cl    0.614953 0.011876 0.813213 -0.284400
Cl2   Cl    Cl    0.988126 0.603074 0.813211 -0.284396
Cl3   Cl    Cl    0.396923 0.385045 0.813213 -0.284397
Cl4   Cl    Cl    0.474421 0.790063 0.834570 -0.253901
Cl5   Cl    Cl    0.209939 0.684353 0.834563 -0.253918
Cl6   Cl    Cl    0.315642 0.525576 0.834573 -0.253896
Cl7   Cl    Cl    0.646988 0.016581 0.399206 -0.488391
Cl8   Cl    Cl    0.983414 0.630466 0.399215 -0.488417
Cl9   Cl    Cl    0.369559 0.352974 0.399211 -0.488441
F1    F     F_    0.761857 0.704401 0.144484 -0.544956
F2    F     F_    0.295622 0.057424 0.144474 -0.544916
F3    F     F_    0.942525 0.238117 0.144488 -0.544951
F4    F     F_    0.691270 0.584654 0.215952 -0.503233
F5    F     F_    0.415387 0.106559 0.215933 -0.503202
F6    F     F_    0.893368 0.308701 0.215958 -0.503242
Cl10  Cl    Cl    0.645948 0.533426 0.317470 -0.415507
Cl11  Cl    Cl    0.466685 0.112391 0.317438 -0.415603
Cl12  Cl    Cl    0.887482 0.354074 0.317472 -0.415518
Cl13  Cl    Cl    0.850369 0.074856 0.790411 -0.596977
Cl14  Cl    Cl    0.925143 0.775506 0.790408 -0.596966
Cl15  Cl    Cl    0.224495 0.149634 0.790403 -0.596963
Cl16  Cl    Cl    0.696904 0.663450 0.705818 -0.491135
Cl17  Cl    Cl    0.336563 0.033450 0.705822 -0.491120
Cl18  Cl    Cl    0.966553 0.303114 0.705821 -0.491135
F7    F     F_    0.568399 0.658348 0.820298 -0.518975
F8    F     F_    0.341648 0.910046 0.820301 -0.518968
F9    F     F_    0.089949 0.431597 0.820303 -0.518962

loop_
_geom_bond_atom_site_label_1
_geom_bond_atom_site_label_2
_ccdc_geom_bond_type
C15   C18   T    
C43   C46   A    
C10   C85   T    
C79   H22   S    
C82   C94   S    
C6    F9    S    
C81   H24   S    
C2    C18   S    
C51   H21   S    
C31   C43   A    
C35   O14   A    
C24   O26   A    
C50   H20   S    
C27   C78   A    
Cr6   O23   S    
C6    C9    S    
C53   C59   A    
C67   H1    S    
C63   F6    S    
C54   C60   A    
Cr4   O17   S    
C60   Cl12  S    
C67   C88   S    
C33   C39   A    
C20   O19   A    
C23   O6    A    
C60   C63   A    
C35   C78   S    
C7    H31   S    
C37   C40   A    
C9    Cl18  S    
C4    C7    S    
C68   H17   S    
C84   C96   S    
Cr2   O8    S    
C45   C48   A    
C40   H13   S    
C75   F3    S    
C22   O24   A    
C10   C94   S    
C11   C86   T    
C30   C57   A    
C22   O5    A    
C19   O20   A    
C83   Cl14  S    
C48   C75   A    
C35   O10   A    
C21   O17   A    
C4    F7    S    
C80   C89   S    
C39   C42   A    
C37   H10   S    
Cr3   O12   S    
C1    O7    A    
C36   C76   S    
C33   C72   A    
C34   O13   A    
C28   C55   A    
C31   C70   A    
C66   C72   A    
Cr5   O25   S    
C64   C73   A    
C91   Cl1   S    
C3    O2    A    
Cr6   O6    S    
C32   C38   A    
C73   F1    S    
Cr6   O19   S    
C74   F2    S    
C12   C87   T    
C44   C47   A    
C8    Cl17  S    
C58   C61   A    
C63   C66   A    
C83   C95   S    
C24   O4    A    
C27   C30   A    
C2    O8    A    
C14   C17   T    
C21   O22   A    
C80   C83   S    
Cr6   O22   S    
C79   C88   S    
C5    C95   S    
Cr5   O5    S    
C32   C71   A    
Cr2   O16   S    
C25   Cl7   S    
Cr1   O16   S    
Cr3   O15   S    
C26   C77   A    
C3    O9    A    
Cr2   O2    S    
C8    H32   S    
C50   C53   A    
Cr3   O9    S    
C26   Cl8   S    
C38   C41   A    
C38   H11   S    
C69   H3    S    
C19   C48   S    
Cr2   O11   S    
Cr5   O21   S    
C65   C71   A    
C4    H4    S    
C84   H30   S    
C92   C95   S    
C2    O1    A    
C65   C74   A    
C31   C37   A    
C25   C28   A    
C61   C64   A    
C64   C70   A    
C14   C89   S    
C83   H29   S    
C33   C45   A    
Cr4   O4    S    
C92   Cl5   S    
C5    C8    S    
C34   O12   A    
C81   H27   S    
C7    C88   S    
Cr5   O18   S    
C49   C52   A    
C49   H19   S    
C23   O25   A    
C67   C91   S    
C68   C89   S    
C32   C44   A    
C49   C76   A    
Cr3   O3    S    
C22   C87   S    
C27   Cl9   S    
C52   C58   A    
C4    C94   S    
C81   C90   S    
C9    H33   S    
C92   Cl2   S    
C36   O11   A    
Cr5   O23   S    
C93   C96   S    
C6    C96   S    
C23   C85   S    
C19   O18   A    
Cr1   O13   S    
C82   H28   S    
C5    F8    S    
C41   H14   S    
C82   Cl13  S    
C69   C90   S    
C50   C77   A    
C81   C84   S    
Cr4   O20   S    
C5    H5    S    
C53   C56   A    
C11   C95   S    
C79   H25   S    
C59   C62   A    
C6    H6    S    
C20   O21   A    
C62   C65   A    
C29   C41   A    
Cr1   O10   S    
C91   Cl4   S    
C59   Cl11  S    
C30   C42   A    
C61   F4    S    
C68   H2    S    
C47   C74   A    
C9    C90   S    
C79   C82   S    
C52   C55   A    
C42   H15   S    
C29   C56   A    
C80   H26   S    
C39   H12   S    
C69   H18   S    
C69   C93   S    
C93   Cl3   S    
C7    Cl16  S    
C51   C54   A    
C25   C76   A    
C84   Cl15  S    
C51   C78   A    
C34   C77   S    
C45   H9    S    
C15   C90   S    
Cr4   O24   S    
C36   O15   A    
Cr3   O16   S    
Cr6   O26   S    
C66   C75   A    
C13   C88   S    
C68   C92   S    
C58   Cl10  S    
C57   C72   A    
C67   H16   S    
Cr1   O7    S    
C55   C70   A    
C1    O3    A    
Cr4   O23   S    
C1    C17   S    
C93   Cl6   S    
C26   C29   A    
C80   H23   S    
C13   C16   T    
C62   F5    S    
C28   C40   A    
C12   C96   S    
C8    C89   S    
C43   H7    S    
Cr1   O1    S    
C21   C47   S    
C24   C86   S    
Cr2   O14   S    
C46   C73   A    
C20   C46   S    
C3    C16   S    
C56   C71   A    
C91   C94   S    
C54   C57   A    
C44   H8    S    
