data_mof_unit_30546.cif
_audit_creation_date              2012-10-26T21:11:06-0400
_audit_creation_method            fapswitch 2.2
_symmetry_space_group_name_H-M    P1
_symmetry_Int_Tables_number       1
_space_group_crystal_system       triclinic
_cell_length_a                    10.907597
_cell_length_b                    10.902354
_cell_length_c                    13.128569
_cell_angle_alpha                 90.282963
_cell_angle_beta                  89.863721
_cell_angle_gamma                 88.889357
_cell_volume                      1560.91239427

loop_
_atom_site_label
_atom_site_type_symbol
_atom_type_description
_atom_site_fract_x
_atom_site_fract_y
_atom_site_fract_z
_atom_type_partial_charge
C1    C     C_R   0.493322 0.259759 0.499606 0.602104
C2    C     C_R   0.693541 0.815223 0.688634 0.148836
C3    C     C_R   0.419560 0.118772 0.314115 0.071498
C4    C     C_R   0.580517 0.881222 0.685864 0.071494
C5    C     C_R   0.489037 0.104745 0.224391 -0.122310
C6    C     C_R   0.511107 0.895284 0.775621 -0.122336
C7    C     C_R   0.448240 0.156804 0.133306 -0.129816
C8    C     C_R   0.551947 0.843216 0.866689 -0.129822
C9    C     C_R   0.337318 0.222566 0.130576 -0.128332
C10   C     C_R   0.662848 0.777414 0.869371 -0.128332
C11   C     C_R   0.476582 0.933723 0.411349 -0.170381
C12   C     C_R   0.506680 0.740240 0.500394 0.602153
C13   C     C_R   0.523443 0.066275 0.588646 -0.170356
C14   C     C_R   0.508590 0.872849 0.501192 0.024327
C15   C     C_R   0.491426 0.127150 0.498805 0.024310
C16   C     C_R   0.259644 0.502848 0.499994 0.622826
C17   C     C_R   0.740355 0.497159 0.500006 0.622802
C18   C     C_R   0.535455 0.939503 0.590554 -0.024204
C19   C     C_R   0.464577 0.060494 0.409439 -0.024218
C20   C     C_1   0.500019 0.500059 0.173593 0.126711
C21   C     C_1   0.499981 0.499942 0.826407 0.126678
C22   C     C_1   0.500007 0.500037 0.050684 -0.074542
C23   C     C_R   0.872819 0.497869 0.500222 0.027295
C24   C     C_1   0.499994 0.499965 0.949316 -0.074557
C25   C     C_R   0.212707 0.834319 0.292540 -0.099557
C26   C     C_R   0.787402 0.165499 0.707274 -0.099579
C27   C     C_R   0.158934 0.763784 0.369436 0.130790
C28   C     C_R   0.841183 0.236116 0.630437 0.130773
C29   C     C_R   0.124278 0.642673 0.347125 0.078903
C30   C     C_R   0.875724 0.357245 0.652812 0.078882
C31   C     C_R   0.146105 0.593417 0.249611 -0.102970
C32   C     C_R   0.853787 0.406434 0.750334 -0.102929
C33   C     C_R   0.202285 0.663571 0.174729 -0.121606
C34   C     C_R   0.127180 0.502145 0.499780 0.027327
C35   C     C_R   0.797603 0.336195 0.825157 -0.121595
C36   C     C_R   0.235162 0.784053 0.196069 -0.126338
C37   C     C_R   0.764835 0.215697 0.803752 -0.126374
C38   C     C_R   0.933407 0.565696 0.425321 0.049041
C39   C     C_R   0.066592 0.434319 0.574682 0.049062
C40   C     C_R   0.938651 0.432486 0.575442 -0.041152
C41   C     C_R   0.061348 0.567514 0.424551 -0.041150
C42   C     C_R   0.266662 0.236443 0.218863 -0.085536
C43   C     C_R   0.733439 0.763505 0.781052 -0.085545
C44   C     C_R   0.306514 0.184729 0.311297 0.148843
Cu1   Cu    Cu3+1 0.499990 0.499990 0.592680 1.034340
Cu2   Cu    Cu3+1 0.500010 0.500010 0.407320 1.034368
H1    H     H_    0.277693 0.838797 0.137715 0.111439
H2    H     H_    0.763153 0.071515 0.692597 0.104125
H3    H     H_    0.219428 0.624817 0.099857 0.111739
H4    H     H_    0.780370 0.374895 0.900033 0.111739
H5    H     H_    0.180649 0.899129 0.476450 0.218941
H6    H     H_    0.044842 0.829255 0.478754 0.218577
H7    H     H_    0.819661 0.100806 0.523353 0.218936
H8    H     H_    0.955415 0.170782 0.521158 0.218601
H9    H     H_    0.119100 0.500818 0.231730 0.094369
H10   H     H_    0.880705 0.499047 0.768263 0.094371
H11   H     H_    0.886220 0.728726 0.360087 0.230656
H12   H     H_    0.722300 0.160885 0.862060 0.111458
H13   H     H_    0.886885 0.606329 0.279282 0.229143
H14   H     H_    0.113814 0.271290 0.639898 0.230666
H15   H     H_    0.113075 0.393667 0.720723 0.229128
H16   H     H_    0.305907 0.262777 0.059843 0.112473
H17   H     H_    0.694294 0.737197 0.940091 0.112466
H18   H     H_    0.180341 0.286714 0.214925 0.090366
H19   H     H_    0.819749 0.713209 0.784952 0.090357
H20   H     H_    0.200959 0.112272 0.421205 0.202896
H21   H     H_    0.156024 0.254217 0.387759 0.221809
H22   H     H_    0.799095 0.887622 0.578694 0.202882
H23   H     H_    0.575322 0.053866 0.225233 0.109473
H24   H     H_    0.843932 0.745636 0.612100 0.221811
H25   H     H_    0.424839 0.946192 0.774817 0.109464
H26   H     H_    0.502679 0.146045 0.064677 0.111377
H27   H     H_    0.497559 0.854000 0.935343 0.111385
H28   H     H_    0.457079 0.882000 0.342774 0.134062
H29   H     H_    0.542954 0.117999 0.657220 0.134082
H30   H     H_    0.237039 0.928294 0.307166 0.104093
N1    N     N_1   0.500030 0.500030 0.268070 -0.171829
N2    N     N_1   0.499970 0.499970 0.731930 -0.171833
N3    N     N_3   0.139134 0.813888 0.469674 -0.642750
N4    N     N_3   0.861106 0.186077 0.530191 -0.642748
N5    N     N_3   0.863672 0.636363 0.352678 -0.599469
N6    N     N_3   0.136327 0.363659 0.647328 -0.599469
N7    N     N_3   0.233280 0.198684 0.401951 -0.625723
N8    N     N_3   0.766712 0.801234 0.597948 -0.625694
O1    O     O_R   0.499980 0.319630 0.578260 -0.503380
O2    O     O_R   0.500020 0.680370 0.421740 -0.503369
O3    O     O_R   0.500000 0.319650 0.421740 -0.483642
O4    O     O_R   0.500000 0.680350 0.578260 -0.483639
O5    O     O_R   0.319630 0.500000 0.578260 -0.465029
O6    O     O_R   0.680370 0.500000 0.421740 -0.465028
O7    O     O_R   0.319650 0.500020 0.421740 -0.499537
O8    O     O_R   0.680350 0.499980 0.578260 -0.499568

loop_
_geom_bond_atom_site_label_1
_geom_bond_atom_site_label_2
_ccdc_geom_bond_type
C1    O3    A    
H21   N7    S    
C27   C29   A    
C14   C18   A    
C2    N8    S    
C10   H17   S    
C44   N7    S    
Cu1   Cu2   S    
C15   C19   A    
C34   C41   A    
C11   C19   A    
C9    C42   A    
C17   C23   S    
C20   N1    T    
C35   C37   A    
C27   N3    S    
H15   N6    S    
C11   C14   A    
C33   H3    S    
C23   C40   A    
C33   C36   A    
C36   H1    S    
Cu1   O8    S    
C5    H23   S    
C16   C34   S    
H20   N7    S    
H14   N6    S    
C13   H29   S    
C21   N2    T    
C31   C33   A    
C3    C19   S    
Cu1   N2    S    
C1    C15   S    
H6    N3    S    
H24   N8    S    
C37   H12   S    
C26   H2    S    
C4    C18   S    
C16   O5    A    
C17   O8    A    
C42   C44   A    
H8    N4    S    
C1    O1    A    
C6    H25   S    
C3    C44   A    
C12   O4    A    
C9    H16   S    
H22   N8    S    
C32   C35   A    
Cu1   O4    S    
C38   C41   A    
C4    C6    A    
C39   C40   A    
C5    C7    A    
C6    C8    A    
Cu2   O7    S    
C34   C39   A    
Cu1   O1    S    
C2    C43   A    
C43   H19   S    
H7    N4    S    
C35   H4    S    
C30   C40   S    
C13   C18   A    
C12   C14   S    
C13   C15   A    
C38   N5    S    
H11   N5    S    
C42   H18   S    
C7    H26   S    
Cu1   O5    S    
Cu2   O3    S    
C7    C9    A    
C29   C41   S    
C10   C43   A    
C17   O6    A    
H13   N5    S    
C39   N6    S    
C20   C22   S    
C3    C5    A    
C11   H28   S    
Cu2   N1    S    
C26   C37   A    
Cu2   O6    S    
C25   C27   A    
C23   C38   A    
C26   C28   A    
C12   O2    A    
C25   H30   S    
C28   C30   A    
C29   C31   A    
C30   C32   A    
C2    C4    A    
C8    H27   S    
C22   C24   T    
C28   N4    S    
H5    N3    S    
C25   C36   A    
C16   O7    A    
C8    C10   A    
C21   C24   S    
C31   H9    S    
C32   H10   S    
Cu2   O2    S    
