data_mof_unit_47820.cif
_audit_creation_date              2013-03-05T16:47:32-0500
_audit_creation_method            fapswitch 2.2
_symmetry_space_group_name_H-M    P1
_symmetry_Int_Tables_number       1
_space_group_crystal_system       triclinic
_cell_length_a                    10.915025
_cell_length_b                    10.91395
_cell_length_c                    9.812516
_cell_angle_alpha                 98.80418
_cell_angle_beta                  98.489331
_cell_angle_gamma                 93.218156
_cell_volume                      1138.78348401

loop_
_atom_site_label
_atom_site_type_symbol
_atom_site_description
_atom_site_fract_x
_atom_site_fract_y
_atom_site_fract_z
_atom_type_partial_charge
O1    O     O_R   0.517830 0.337490 0.617920 -0.588878
O2    O     O_R   0.482170 0.662510 0.382080 -0.588880
O3    O     O_R   0.482150 0.301790 0.382070 -0.568183
O4    O     O_R   0.517850 0.698210 0.617930 -0.568183
C1    C     C_R   0.501402 0.262028 0.499268 0.797184
C2    C     C_R   0.498598 0.737972 0.500732 0.797181
O5    O     O_R   0.337480 0.517860 0.617920 -0.588239
O6    O     O_R   0.662520 0.482140 0.382080 -0.588239
O7    O     O_R   0.301810 0.482160 0.382070 -0.571038
O8    O     O_R   0.698190 0.517840 0.617930 -0.571039
C3    C     C_R   0.262052 0.501558 0.499350 0.797152
C4    C     C_R   0.737948 0.498443 0.500650 0.797153
Cu1   Cu    Cu3+1 0.521120 0.521140 0.639640 0.952138
Cu2   Cu    Cu3+1 0.478880 0.478860 0.360360 0.952138
H1    H     H_    0.167416 0.387746 0.856623 0.169278
H2    H     H_    0.832590 0.612270 0.143378 0.169279
C5    C     C_R   0.173231 0.520988 0.042391 -0.209658
C6    C     C_R   0.826773 0.479026 0.957613 -0.209664
H3    H     H_    0.223812 0.592837 0.003396 0.149763
H4    H     H_    0.776193 0.407177 0.996611 0.149769
C7    C     C_R   0.138842 0.545501 0.174738 -0.025490
C8    C     C_R   0.861160 0.454510 0.825265 -0.025489
H5    H     H_    0.162720 0.636844 0.237148 0.152852
H6    H     H_    0.837283 0.363165 0.762858 0.152855
C9    C     C_R   0.076934 0.451385 0.227966 0.058344
C10   C     C_R   0.923067 0.548624 0.772033 0.058342
C11   C     C_R   0.042304 0.335362 0.142868 -0.233219
C12   C     C_R   0.957696 0.664649 0.857127 -0.233220
H7    H     H_    0.990521 0.264417 0.182073 0.178899
H8    H     H_    0.009477 0.735592 0.817919 0.178899
C13   C     C_R   0.071521 0.312008 0.006850 0.386593
C14   C     C_R   0.928481 0.688005 0.993147 0.386595
C15   C     C_R   0.140976 0.404539 0.959380 -0.242879
C16   C     C_R   0.859029 0.595476 0.040621 -0.242878
C17   C     C_R   0.915261 0.471119 0.376342 -0.229330
C18   C     C_R   0.084739 0.528886 0.623657 -0.229330
H9    H     H_    0.849891 0.448269 0.279955 0.151878
H10   H     H_    0.150110 0.551738 0.720044 0.151878
C19   C     C_R   0.872192 0.496658 0.503944 -0.082010
C20   C     C_R   0.127808 0.503346 0.496056 -0.082010
C21   C     C_R   0.958456 0.524091 0.630399 0.045206
C22   C     C_R   0.041544 0.475914 0.369601 0.045206
H11   H     H_    0.383231 0.173637 0.862557 0.144207
H12   H     H_    0.616746 0.826350 0.137438 0.144196
C23   C     C_R   0.308851 0.087387 0.018823 -0.101406
C24   C     C_R   0.691135 0.912607 0.981182 -0.101420
H13   H     H_    0.217342 0.066540 0.957812 0.220562
H14   H     H_    0.782645 0.933453 0.042197 0.220552
C25   C     C_R   0.333049 0.053682 0.151248 -0.138438
C26   C     C_R   0.666943 0.946315 0.848758 -0.138430
H15   H     H_    0.258867 0.009365 0.193014 0.190084
H16   H     H_    0.741129 0.990635 0.806998 0.190089
C27   C     C_R   0.452751 0.076945 0.229407 0.099635
C28   C     C_R   0.547241 0.923054 0.770593 0.099637
C29   C     C_R   0.548513 0.132453 0.172301 -0.042399
C30   C     C_R   0.451473 0.867542 0.827691 -0.042402
H17   H     H_    0.641860 0.149422 0.230530 0.119815
H18   H     H_    0.358126 0.850573 0.769456 0.119811
C31   C     C_R   0.523118 0.168496 0.040896 -0.114630
C32   C     C_R   0.476863 0.831495 0.959095 -0.114613
H19   H     H_    0.596471 0.213056 0.998129 0.126848
H20   H     H_    0.403506 0.786932 0.001856 0.126840
C33   C     C_R   0.403138 0.146294 0.964419 -0.182972
C34   C     C_R   0.596843 0.853696 0.035578 -0.182969
C35   C     C_R   0.472939 0.914893 0.376018 -0.231216
C36   C     C_R   0.527058 0.085107 0.623982 -0.231213
H21   H     H_    0.451347 0.849436 0.279277 0.153352
H22   H     H_    0.548649 0.150564 0.720724 0.153351
C37   C     C_R   0.496957 0.872189 0.503662 -0.077990
C38   C     C_R   0.503042 0.127811 0.496338 -0.077989
C39   C     C_R   0.522599 0.958791 0.630027 0.010762
C40   C     C_R   0.477399 0.041209 0.369973 0.010762
H23   H     H_    0.417146 0.419826 0.865377 0.161684
H24   H     H_    0.582855 0.580173 0.134623 0.161683
N1    N     N_2   0.447120 0.447110 0.150550 -0.278869
N2    N     N_2   0.552880 0.552890 0.849450 -0.278868
C41   C     C_2   0.511019 0.510125 0.078860 -0.097930
C42   C     C_2   0.488981 0.489874 0.921140 -0.097930
H25   H     H_    0.620773 0.618372 0.904656 0.223221
H26   H     H_    0.379226 0.381629 0.095344 0.223220
N3    N     N_R   0.025829 0.197604 0.915276 0.090776
O9    O     O_R   0.048672 0.177859 0.787568 -0.396521
O10   O     O_R   0.955776 0.114727 0.956510 -0.378927
N4    N     N_R   0.974172 0.802412 0.084716 0.090767
O11   O     O_R   0.951350 0.822150 0.212434 -0.396522
O12   O     O_R   0.044202 0.885299 0.043466 -0.378927

loop_
_geom_bond_atom_site_label_1
_geom_bond_atom_site_label_2
_geom_bond_distance
_ccdc_geom_bond_type
C2    C37   1.461890 S    
C36   H22   1.083738 S    
C29   C31   1.398629 A    
C11   H7    1.083148 S    
N2    H25   1.028038 S    
N3    O9    1.301756 A    
H11   C33   1.081559 S    
C19   C21   1.423223 A    
C41   C42   1.510383 S    
H12   C34   1.081560 S    
O5    C3    1.304033 A    
C26   C28   1.402529 A    
O1    C1    1.301628 A    
C17   H9    1.083704 S    
N2    C42   1.301311 D    
C35   C37   1.396490 A    
C32   H20   1.082427 S    
C23   H13   1.078919 S    
O4    Cu1   1.978095 S    
C37   C39   1.420648 A    
C17   C22   1.388142 A    
C18   C20   1.395740 A    
H2    C16   1.081122 S    
C28   C39   1.481174 S    
C35   H21   1.083738 S    
H24   C41   1.084724 S    
C26   H16   1.082704 S    
H23   C42   1.084724 S    
C13   C15   1.404936 A    
N1    H26   1.028036 S    
C20   C22   1.423222 A    
Cu1   Cu2   2.674223 S    
C18   C21   1.388142 A    
O2    C2    1.301628 A    
C5    C15   1.396730 A    
N3    O10   1.300866 A    
C24   H14   1.078940 S    
C27   C29   1.406876 A    
C14   N4    1.438569 S    
C28   C30   1.406892 A    
C31   H19   1.082413 S    
C11   C13   1.406666 A    
C12   C14   1.406667 A    
N4    O11   1.301767 A    
O4    C2    1.283215 A    
C25   H15   1.082685 S    
C23   C33   1.396585 A    
C5    C7    1.395638 A    
C30   C32   1.398630 A    
C24   C34   1.396602 A    
C14   C16   1.404935 A    
C17   C19   1.395741 A    
O7    Cu2   1.977153 S    
C1    C38   1.461890 S    
N1    C41   1.301311 D    
C36   C39   1.387368 A    
Cu1   N2    2.009022 S    
C23   C25   1.396234 A    
O6    C4    1.304033 A    
O7    C3    1.280897 A    
O3    Cu2   1.978095 S    
O8    C4    1.280897 A    
C29   H17   1.083254 S    
C8    H6    1.083338 S    
O1    Cu1   1.980660 S    
C18   H10   1.083703 S    
C7    C9    1.405348 A    
O6    Cu2   1.981903 S    
C6    C8    1.395637 A    
C10   C12   1.404627 A    
N4    O12   1.300877 A    
O3    C1    1.283216 A    
O8    Cu1   1.977153 S    
C9    C22   1.486141 S    
C9    C11   1.404628 A    
C35   C40   1.387367 A    
C24   C26   1.396235 A    
C31   C33   1.398358 A    
C13   N3    1.438569 S    
C32   C34   1.398378 A    
Cu2   N1    2.009022 S    
C4    C19   1.462146 S    
C7    H5    1.083338 S    
C36   C38   1.396492 A    
C6    C16   1.396730 A    
C25   C27   1.402507 A    
C12   H8    1.083146 S    
C5    H3    1.082480 S    
C30   H18   1.083273 S    
C6    H4    1.082479 S    
C3    C20   1.462147 S    
O2    Cu2   1.980660 S    
O5    Cu1   1.981904 S    
C8    C10   1.405347 A    
C38   C40   1.420649 A    
C27   C40   1.481174 S    
H1    C15   1.081123 S    
C10   C21   1.486141 S    
