data_mof_unit_60223.cif
_audit_creation_date              2012-12-10T20:37:22-0500
_audit_creation_method            fapswitch 2.2
_symmetry_space_group_name_H-M    P1
_symmetry_Int_Tables_number       1
_space_group_crystal_system       triclinic
_cell_length_a                    36.017965
_cell_length_b                    39.801351
_cell_length_c                    26.900065
_cell_angle_alpha                 89.982109
_cell_angle_beta                  132.305181
_cell_angle_gamma                 89.998224
_cell_volume                      28520.0113786

loop_
_atom_site_label
_atom_site_type_symbol
_atom_type_description
_atom_site_fract_x
_atom_site_fract_y
_atom_site_fract_z
_atom_type_partial_charge
C1    C     C_R   0.400117 0.749983 0.999909 0.839222
C2    C     C_3   0.744231 0.718857 0.013196 -0.156670
C3    C     C_R   0.216991 0.256276 0.363484 -0.078677
C4    C     C_R   0.717373 0.243682 0.363447 -0.075167
C5    C     C_R   0.282635 0.756332 0.636548 -0.075412
C6    C     C_R   0.308547 0.219527 0.635971 -0.079066
C7    C     C_R   0.688209 0.782406 0.363080 -0.079291
C8    C     C_R   0.201240 0.751263 0.397630 0.055618
C9    C     C_R   0.798771 0.248759 0.602368 0.055785
C10   C     C_R   0.802867 0.747656 0.602380 0.051367
C11   C     C_R   0.199748 0.252556 0.397320 0.056010
C12   C     C_R   0.701242 0.251264 0.397630 0.055312
C13   C     C_3   0.741469 0.281589 0.007685 -0.155495
C14   C     C_R   0.298772 0.748759 0.602368 0.055650
C15   C     C_R   0.300625 0.249667 0.602181 0.052266
C16   C     C_R   0.697100 0.752349 0.397639 0.051553
C17   C     C_1   0.235564 0.750417 0.469827 0.050449
C18   C     C_1   0.764451 0.249608 0.530171 0.050537
C19   C     C_1   0.765607 0.749351 0.530185 0.061059
C20   C     C_1   0.234218 0.252417 0.469563 0.049781
C21   C     C_1   0.735565 0.250417 0.469827 0.051022
C22   C     C_1   0.264450 0.749607 0.530171 0.050598
C23   C     C_1   0.264074 0.251608 0.529974 0.051415
C24   C     C_3   0.260618 0.718217 0.996456 -0.154730
C25   C     C_1   0.734346 0.750645 0.469834 0.061035
C26   C     C_R   0.509060 0.430964 0.052959 -0.026297
C27   C     C_R   0.512846 0.569025 0.967698 -0.023855
C28   C     C_R   0.490935 0.430986 0.947006 -0.023233
C29   C     C_R   0.487133 0.569012 0.032303 -0.024062
C30   C     C_R   0.009037 0.930966 0.052942 -0.026259
C31   C     C_R   0.012901 0.069027 0.967756 -0.023851
C32   C     C_R   0.990974 0.930986 0.947032 -0.023380
C33   C     C_R   0.987102 0.069012 0.032260 -0.023831
C34   C     C_R   0.508032 0.395751 0.051460 -0.216864
C35   C     C_3   0.755773 0.781131 0.986812 -0.155800
C36   C     C_R   0.511778 0.604239 0.967221 -0.219540
C37   C     C_R   0.491976 0.395771 0.948516 -0.223868
C38   C     C_R   0.488212 0.604227 0.032794 -0.221129
C39   C     C_R   0.008007 0.895752 0.051442 -0.216006
C40   C     C_R   0.011829 0.104241 0.967277 -0.215527
C41   C     C_R   0.992010 0.895771 0.948540 -0.222521
C42   C     C_R   0.988180 0.104227 0.032751 -0.215423
C43   C     C_R   0.500005 0.378055 0.999991 -0.051886
C44   C     C_R   0.499997 0.621941 0.000009 -0.051476
C45   C     C_R   0.000008 0.878055 0.999992 -0.051942
C46   C     C_3   0.244429 0.218809 0.013585 -0.153912
C47   C     C_R   0.000004 0.121942 0.000016 -0.052669
C48   C     C_R   0.499993 0.448734 0.999979 -0.042404
C49   C     C_R   0.499986 0.551260 0.999995 -0.041890
C50   C     C_R   0.000002 0.948735 0.999985 -0.042050
C51   C     C_R   0.999999 0.051261 0.000003 -0.041410
C52   C     C_1   0.499984 0.484896 0.999977 0.174929
C53   C     C_1   0.499982 0.515099 0.999984 0.175552
C54   C     C_1   0.999996 0.984896 0.999983 0.175365
C55   C     C_1   0.999995 0.015099 0.999991 0.176507
C56   C     C_R   0.499997 0.658963 0.000003 0.817606
C57   C     C_3   0.239378 0.781771 0.003535 -0.153883
C58   C     C_R   0.500003 0.341035 0.999997 0.817017
C59   C     C_R   0.000001 0.158963 0.000006 0.827405
C60   C     C_R   0.000003 0.841036 0.999997 0.817789
C61   C     C_R   0.499996 0.841075 0.000046 0.802766
C62   C     C_R   0.500004 0.158925 0.999960 0.802633
C63   C     C_R   0.999991 0.341078 0.999984 0.786270
C64   C     C_R   0.000002 0.658926 0.999944 0.802485
C65   C     C_R   0.454669 0.068808 0.955380 -0.151487
C66   C     C_R   0.545331 0.931188 0.044769 -0.151660
C67   C     C_R   0.545319 0.068783 0.044288 -0.151240
C68   C     C_3   0.758532 0.218400 0.992316 -0.153896
C69   C     C_R   0.454695 0.931219 0.955705 -0.151078
C70   C     C_R   0.954611 0.568836 0.954929 -0.152822
C71   C     C_R   0.045326 0.431222 0.043056 -0.155502
C72   C     C_R   0.045246 0.568766 0.044011 -0.153102
C73   C     C_R   0.954523 0.431206 0.956286 -0.154298
C74   C     C_R   0.454619 0.103914 0.955323 -0.168371
C75   C     C_R   0.545378 0.896082 0.044802 -0.169023
C76   C     C_R   0.545379 0.103885 0.044325 -0.179930
C77   C     C_R   0.454632 0.896116 0.955643 -0.179894
C78   C     C_R   0.954590 0.603939 0.955027 -0.169734
C79   C     C_3   0.707175 0.759900 0.939491 -0.157871
C80   C     C_R   0.045407 0.396118 0.043249 -0.183729
C81   C     C_R   0.045336 0.603869 0.044203 -0.180837
C82   C     C_R   0.954496 0.396102 0.956378 -0.181110
C83   C     C_R   0.500002 0.121810 0.999866 -0.016622
C84   C     C_R   0.500001 0.878189 0.000165 -0.016210
C85   C     C_R   0.999980 0.621814 0.999737 -0.015744
C86   C     C_R   0.999965 0.378196 0.999883 -0.017083
C87   C     C_R   0.499992 0.051210 0.999869 0.146591
C88   C     C_R   0.500017 0.948789 0.000213 0.146592
C89   C     C_R   0.999911 0.551216 0.999424 0.147336
C90   C     C_3   0.292971 0.240105 0.060780 -0.154961
C91   C     C_R   0.999911 0.448799 0.999595 0.148169
C92   C     C_1   0.499997 0.015123 0.999986 -0.045364
C93   C     C_1   0.500015 0.984875 0.000106 -0.045434
C94   C     C_1   0.999881 0.515131 0.999412 -0.047730
C95   C     C_1   0.999885 0.484884 0.999471 -0.049015
C96   C     C_2   0.520208 0.448198 0.110940 0.935648
C97   C     C_2   0.528042 0.551786 0.934560 0.931949
C98   C     C_2   0.479782 0.448243 0.889021 0.931382
C99   C     C_2   0.471936 0.551758 0.065436 0.933128
C100  C     C_2   0.020151 0.948199 0.110900 0.936455
C101  C     C_3   0.290962 0.764375 0.056767 -0.154713
C102  C     C_2   0.028141 0.051789 0.934672 0.934378
C103  C     C_2   0.979857 0.948243 0.889070 0.932629
C104  C     C_2   0.971860 0.051757 0.065338 0.934296
C105  C     C_2   0.198469 0.739285 0.254920 0.962707
C106  C     C_2   0.801534 0.260750 0.745066 0.963278
C107  C     C_2   0.860824 0.685883 0.745624 0.976232
C108  C     C_2   0.199213 0.257964 0.255415 0.992952
C109  C     C_2   0.698466 0.239268 0.254920 0.962026
C110  C     C_2   0.301531 0.760726 0.745070 0.962435
C111  C     C_2   0.356794 0.186978 0.743528 0.977120
C112  C     C_R   0.599883 0.250017 0.000090 0.839722
C113  C     C_3   0.708151 0.237500 0.941476 -0.153599
C114  C     C_2   0.639515 0.814065 0.254437 0.977321
C115  C     C_2   0.271549 0.737173 0.402792 0.905287
C116  C     C_2   0.728465 0.262875 0.597198 0.905877
C117  C     C_2   0.785225 0.686141 0.598392 0.906060
C118  C     C_2   0.271668 0.260634 0.403060 0.964148
C119  C     C_2   0.771547 0.237159 0.402791 0.904771
C120  C     C_2   0.228460 0.762851 0.597199 0.905432
C121  C     C_2   0.280188 0.188624 0.596652 0.905221
C122  C     C_2   0.715108 0.813797 0.401622 0.906733
C123  C     C_3   0.207246 0.259758 0.939674 -0.159178
C124  C     C_3   0.792829 0.740088 0.060517 -0.158312
C125  C     C_3   0.791850 0.262489 0.058525 -0.159079
C126  C     C_3   0.209034 0.735613 0.943224 -0.155149
C127  C     C_1   0.639649 0.750063 0.000179 -0.127300
C128  C     C_1   0.360381 0.249909 0.999888 -0.126637
C129  C     C_1   0.360306 0.750040 0.999734 -0.128261
C130  C     C_1   0.639690 0.249955 0.000257 -0.127886
C131  C     C_1   0.139719 0.250012 0.000327 -0.133011
C132  C     C_R   0.599859 0.749997 0.000051 0.821707
C133  C     C_1   0.860353 0.749932 0.999826 -0.126963
C134  C     C_1   0.860309 0.250040 0.999740 -0.131291
C135  C     C_1   0.139691 0.749955 0.000260 -0.127718
C136  C     C_3   0.761542 0.771270 0.047431 -0.151008
C137  C     C_3   0.238612 0.228599 0.952900 -0.152263
C138  C     C_3   0.235444 0.767422 0.946606 -0.150821
C139  C     C_3   0.763349 0.230863 0.050997 -0.151070
C140  C     C_3   0.261601 0.271265 0.047553 -0.149509
C141  C     C_3   0.738462 0.728719 0.952578 -0.151330
C142  C     C_3   0.736652 0.269126 0.949004 -0.150443
C143  C     C_R   0.400143 0.250000 0.999956 0.822180
C144  C     C_3   0.264551 0.732566 0.053385 -0.150927
C145  C     C_3   0.713589 0.750039 0.000110 0.185949
C146  C     C_3   0.286506 0.249895 0.000093 0.184229
C147  C     C_3   0.286384 0.750027 0.999838 0.181938
C148  C     C_3   0.713614 0.249963 0.000157 0.183058
C149  C     C_3   0.213708 0.249969 0.000358 0.185069
C150  C     C_3   0.786414 0.749950 0.999899 0.185891
C151  C     C_3   0.786387 0.250026 0.999844 0.183368
C152  C     C_3   0.213612 0.749962 0.000153 0.181894
C153  C     C_1   0.673054 0.750071 0.000188 -0.065112
C154  C     C_R   0.900116 0.249982 0.999909 0.829912
C155  C     C_1   0.327009 0.249881 0.999945 -0.063923
C156  C     C_1   0.326900 0.750050 0.999720 -0.057862
C157  C     C_1   0.673097 0.249942 0.000273 -0.058309
C158  C     C_1   0.173158 0.250005 0.000408 -0.061733
C159  C     C_1   0.826950 0.749921 0.999819 -0.064975
C160  C     C_1   0.826902 0.250050 0.999725 -0.061847
C161  C     C_1   0.173097 0.749942 0.000272 -0.057530
C162  C     C_R   0.151040 0.759041 0.361833 -0.138737
C163  C     C_R   0.848968 0.240967 0.638167 -0.138738
C164  C     C_R   0.829017 0.776970 0.637863 -0.139780
C165  C     C_R   0.099883 0.750016 0.000090 0.839989
C166  C     C_R   0.149053 0.246521 0.361262 -0.153398
C167  C     C_R   0.651044 0.259049 0.361834 -0.138164
C168  C     C_R   0.348971 0.740977 0.638168 -0.138859
C169  C     C_R   0.328408 0.278422 0.638436 -0.144329
C170  C     C_R   0.670810 0.723069 0.362147 -0.140401
C171  C     C_R   0.116128 0.759173 0.291967 -0.191144
C172  C     C_R   0.883876 0.240828 0.708033 -0.190407
C173  C     C_R   0.863952 0.777068 0.707738 -0.185772
C174  C     C_R   0.114710 0.244613 0.291504 -0.185496
C175  C     C_R   0.616132 0.259180 0.291969 -0.190352
C176  C     C_R   0.099882 0.249978 0.000099 0.832974
C177  C     C_R   0.383879 0.740838 0.708034 -0.190223
C178  C     C_R   0.363950 0.277887 0.708315 -0.186047
C179  C     C_R   0.635902 0.722969 0.292270 -0.184900
C180  C     C_R   0.130633 0.751280 0.256365 -0.083283
C181  C     C_R   0.869371 0.248728 0.743633 -0.082908
C182  C     C_R   0.873189 0.747874 0.743672 -0.091620
C183  C     C_R   0.130270 0.249050 0.256235 -0.082380
C184  C     C_R   0.630633 0.251279 0.256365 -0.083664
C185  C     C_R   0.369371 0.748727 0.743634 -0.083018
C186  C     C_R   0.372288 0.248589 0.743518 -0.092258
C187  C     C_R   0.900141 0.750002 0.999950 0.822145
C188  C     C_R   0.626823 0.752126 0.256340 -0.092376
C189  C     C_R   0.181785 0.743802 0.292078 -0.104290
C190  C     C_R   0.818222 0.256222 0.707916 -0.104267
C191  C     C_R   0.847500 0.717691 0.708272 -0.095422
C192  C     C_R   0.181931 0.254515 0.292161 -0.121817
C193  C     C_R   0.681784 0.243794 0.292078 -0.104001
C194  C     C_R   0.318219 0.756210 0.707917 -0.104232
C195  C     C_R   0.344763 0.218992 0.707271 -0.095912
C196  C     C_R   0.652652 0.782276 0.291758 -0.095376
C197  C     C_R   0.590651 0.750504 0.182080 0.813834
C198  C     C_3   0.255783 0.281055 0.986868 -0.157288
C199  C     C_R   0.409217 0.249594 0.817883 0.813573
C200  C     C_R   0.408328 0.749595 0.817916 0.829880
C201  C     C_R   0.591673 0.250406 0.182084 0.829564
C202  C     C_R   0.091637 0.249588 0.182029 0.839352
C203  C     C_R   0.909351 0.749497 0.817925 0.814091
C204  C     C_R   0.908328 0.249595 0.817916 0.829674
C205  C     C_R   0.091672 0.750407 0.182083 0.829035
C206  C     C_R   0.217374 0.743688 0.363447 -0.075494
C207  C     C_R   0.782637 0.256343 0.636547 -0.075767
C208  C     C_R   0.811924 0.717564 0.636947 -0.079042
H1    H     H_    0.419388 0.055402 0.920772 0.145654
H2    H     H_    0.580893 0.882977 0.079753 0.165627
H3    H     H_    0.580905 0.116964 0.079186 0.174102
H4    H     H_    0.419110 0.883040 0.920712 0.174161
H5    H     H_    0.919084 0.617058 0.920112 0.165535
H6    H     H_    0.081004 0.383036 0.077307 0.171100
H7    H     H_    0.080865 0.616931 0.079185 0.173737
H8    H     H_    0.918918 0.383008 0.922416 0.173827
H9    H     H_    0.671474 0.768045 0.889757 0.146497
H10   H     H_    0.328701 0.232026 0.110549 0.149265
H11   H     H_    0.325131 0.776205 0.103414 0.151367
H12   H     H_    0.580608 0.944592 0.079447 0.145548
H13   H     H_    0.673253 0.227229 0.893375 0.151851
H14   H     H_    0.171516 0.267838 0.889906 0.146037
H15   H     H_    0.828530 0.731943 0.110251 0.146104
H16   H     H_    0.826748 0.272760 0.106626 0.146799
H17   H     H_    0.174865 0.723783 0.896577 0.151033
H18   H     H_    0.260944 0.306636 0.975879 0.148014
H19   H     H_    0.738989 0.693265 0.024046 0.147448
H20   H     H_    0.733961 0.307556 0.014012 0.150133
H21   H     H_    0.269845 0.692101 0.993528 0.151276
H22   H     H_    0.761014 0.806723 0.975963 0.148170
H23   H     H_    0.580598 0.055357 0.078905 0.146879
H24   H     H_    0.239265 0.193229 0.024575 0.150431
H25   H     H_    0.230152 0.807888 0.006463 0.151985
H26   H     H_    0.766041 0.192432 0.985989 0.151231
H27   H     H_    0.229662 0.211065 0.913999 0.150998
H28   H     H_    0.770526 0.788757 0.086411 0.150743
H29   H     H_    0.773819 0.215143 0.092916 0.153851
H30   H     H_    0.223999 0.781745 0.902735 0.154989
H31   H     H_    0.729477 0.711232 0.913598 0.150553
H32   H     H_    0.270547 0.288797 0.086455 0.153325
H33   H     H_    0.275997 0.718243 0.097256 0.154859
H34   H     H_    0.419423 0.944647 0.921034 0.147026
H35   H     H_    0.726182 0.284845 0.907084 0.154473
H36   H     H_    0.138709 0.764793 0.388169 0.163201
H37   H     H_    0.861299 0.235209 0.611834 0.162950
H38   H     H_    0.821970 0.800045 0.611256 0.166448
H39   H     H_    0.135993 0.243113 0.387321 0.152397
H40   H     H_    0.638715 0.264806 0.388170 0.163714
H41   H     H_    0.361305 0.735228 0.611835 0.163107
H42   H     H_    0.322421 0.301494 0.612456 0.165505
H43   H     H_    0.677731 0.700020 0.388746 0.166132
H44   H     H_    0.077315 0.764902 0.265545 0.166310
H45   H     H_    0.919324 0.555447 0.920197 0.145121
H46   H     H_    0.922686 0.235089 0.734458 0.166048
H47   H     H_    0.883218 0.800289 0.733879 0.168687
H48   H     H_    0.075481 0.240418 0.264794 0.161437
H49   H     H_    0.577320 0.264915 0.265547 0.166907
H50   H     H_    0.422692 0.735107 0.734458 0.166326
H51   H     H_    0.384542 0.300694 0.735051 0.169316
H52   H     H_    0.616527 0.699772 0.266127 0.169954
H53   H     H_    0.550093 0.488171 0.173334 0.361284
H54   H     H_    0.560848 0.511800 0.931291 0.359986
H55   H     H_    0.449900 0.488245 0.826630 0.361250
H56   H     H_    0.080657 0.444645 0.076777 0.145010
H57   H     H_    0.439139 0.511768 0.068710 0.359955
H58   H     H_    0.050010 0.988173 0.173290 0.362495
H59   H     H_    0.060972 0.011802 0.931453 0.360625
H60   H     H_    0.950009 0.988247 0.826688 0.361804
H61   H     H_    0.939036 0.011765 0.068555 0.360171
H62   H     H_    0.514905 0.381998 0.091766 0.196851
H63   H     H_    0.521537 0.617986 0.942600 0.195087
H64   H     H_    0.485106 0.382032 0.908215 0.193734
H65   H     H_    0.478458 0.617965 0.057419 0.195252
H66   H     H_    0.014856 0.881999 0.091731 0.196875
H67   H     H_    0.080507 0.555322 0.078640 0.145913
H68   H     H_    0.021621 0.117989 0.942696 0.195371
H69   H     H_    0.985162 0.882032 0.908255 0.193911
H70   H     H_    0.978391 0.117965 0.057336 0.195400
H71   H     H_    0.204181 0.759419 0.191491 0.344080
H72   H     H_    0.795784 0.240622 0.808461 0.344505
H73   H     H_    0.842498 0.651177 0.780575 0.343243
H74   H     H_    0.198808 0.239181 0.185391 0.345469
H75   H     H_    0.704210 0.259399 0.191521 0.343644
H76   H     H_    0.295809 0.740589 0.808488 0.343855
H77   H     H_    0.337402 0.152884 0.778030 0.344053
H78   H     H_    0.919172 0.444616 0.922462 0.146285
H79   H     H_    0.657757 0.848415 0.218862 0.343409
H80   H     H_    0.343138 0.752294 0.477273 0.349205
H81   H     H_    0.656867 0.247778 0.522700 0.350176
H82   H     H_    0.760960 0.656080 0.521096 0.351011
H83   H     H_    0.336116 0.284287 0.479229 0.356652
H84   H     H_    0.843141 0.252265 0.477286 0.348484
H85   H     H_    0.156870 0.747737 0.522712 0.349023
H86   H     H_    0.254764 0.158375 0.519061 0.357895
H87   H     H_    0.739737 0.843888 0.479053 0.351313
H88   H     H_    0.419097 0.117016 0.920427 0.166399
O1    O     O_3   0.500000 0.749970 0.000000 -0.489221
O2    O     O_R   0.101800 0.730420 0.039220 -0.626199
O3    O     O_R   0.720457 0.822196 0.456643 -0.802344
O4    O     O_R   0.101800 0.269580 0.039220 -0.626941
O5    O     O_R   0.898200 0.730420 0.960780 -0.632281
O6    O     O_R   0.553280 0.730340 0.149660 -0.637138
O7    O     O_R   0.446720 0.269660 0.850340 -0.638590
O8    O     O_R   0.446720 0.730340 0.850340 -0.636215
O9    O     O_R   0.553280 0.269660 0.149660 -0.637681
O10   O     O_R   0.053280 0.230340 0.149660 -0.635302
O11   O     O_R   0.946720 0.769660 0.850340 -0.638496
O12   O     O_R   0.946720 0.230340 0.850340 -0.637283
O13   O     O_3   0.500000 0.250030 0.000000 -0.489148
O14   O     O_R   0.053280 0.769660 0.149660 -0.637639
O15   O     O_R   0.498080 0.675140 0.039250 -0.642771
O16   O     O_R   0.501920 0.324860 0.960750 -0.642312
O17   O     O_R   0.501920 0.675140 0.960750 -0.637382
O18   O     O_R   0.498080 0.324860 0.039250 -0.638004
O19   O     O_R   0.998080 0.175140 0.039250 -0.636473
O20   O     O_R   0.001920 0.824860 0.960750 -0.641991
O21   O     O_R   0.001920 0.175140 0.960750 -0.637141
O22   O     O_R   0.998080 0.824860 0.039250 -0.637895
O23   O     O_R   0.458830 0.824790 0.960760 -0.641536
O24   O     O_3   1.000000 0.249970 0.000000 -0.488166
O25   O     O_R   0.541170 0.175210 0.039240 -0.641584
O26   O     O_R   0.541170 0.824790 0.039240 -0.636626
O27   O     O_R   0.458830 0.175210 0.960760 -0.636220
O28   O     O_R   0.958830 0.324790 0.960760 -0.641157
O29   O     O_R   0.041170 0.675210 0.039240 -0.641734
O30   O     O_R   0.041170 0.324790 0.039240 -0.644135
O31   O     O_R   0.958830 0.675210 0.960760 -0.636540
O32   O     O_R   0.596370 0.769570 0.149640 -0.624166
O33   O     O_R   0.403630 0.230430 0.850360 -0.624728
O34   O     O_R   0.403630 0.769570 0.850360 -0.627092
O35   O     O_3   1.000000 0.750030 0.000000 -0.489230
O36   O     O_R   0.596370 0.230430 0.149640 -0.626661
O37   O     O_R   0.096370 0.269570 0.149640 -0.628446
O38   O     O_R   0.903630 0.730430 0.850360 -0.624089
O39   O     O_R   0.903630 0.269570 0.850360 -0.626121
O40   O     O_R   0.096370 0.730430 0.149640 -0.627084
O41   O     O_R   0.437440 0.730340 0.039250 -0.631077
O42   O     O_R   0.562560 0.269660 0.960750 -0.629253
O43   O     O_R   0.562560 0.730340 0.960750 -0.638094
O44   O     O_R   0.437440 0.269660 0.039250 -0.636160
O45   O     O_R   0.937440 0.230340 0.039250 -0.637105
O46   O     O_R   0.398200 0.769580 0.960780 -0.625775
O47   O     O_R   0.062560 0.769660 0.960750 -0.629270
O48   O     O_R   0.062560 0.230340 0.960750 -0.635982
O49   O     O_R   0.937440 0.769660 0.039250 -0.636391
O50   O     O_2   0.508954 0.434730 0.140137 -0.610579
O51   O     O_R   0.544747 0.479249 0.133617 -0.798357
O52   O     O_2   0.520178 0.565256 0.887332 -0.610696
O53   O     O_R   0.552546 0.520725 0.958137 -0.800217
O54   O     O_2   0.491024 0.434783 0.859812 -0.612433
O55   O     O_R   0.455251 0.479308 0.866352 -0.798854
O56   O     O_2   0.479789 0.565210 0.112655 -0.612415
O57   O     O_R   0.601800 0.230420 0.039220 -0.626264
O58   O     O_R   0.447443 0.520705 0.041867 -0.799940
O59   O     O_2   0.008872 0.934731 0.140068 -0.610081
O60   O     O_R   0.044689 0.979251 0.133591 -0.796177
O61   O     O_2   0.020322 0.065263 0.887478 -0.609728
O62   O     O_R   0.052637 0.020726 0.958262 -0.798423
O63   O     O_2   0.991122 0.934780 0.859890 -0.611157
O64   O     O_R   0.955334 0.979311 0.866391 -0.798462
O65   O     O_2   0.979672 0.065209 0.112527 -0.608736
O66   O     O_R   0.947373 0.020702 0.041750 -0.800261
O67   O     O_2   0.215800 0.712389 0.256884 -0.559267
O68   O     O_R   0.601800 0.769580 0.039220 -0.631644
O69   O     O_R   0.192442 0.765599 0.215578 -0.806874
O70   O     O_2   0.784234 0.287657 0.743125 -0.558723
O71   O     O_R   0.807523 0.234434 0.784376 -0.806385
O72   O     O_2   0.900236 0.671740 0.770919 -0.634442
O73   O     O_R   0.828992 0.672714 0.753342 -0.734265
O74   O     O_2   0.225514 0.281773 0.266976 -0.597096
O75   O     O_R   0.185142 0.233979 0.207404 -0.794236
O76   O     O_2   0.715763 0.212361 0.256855 -0.558946
O77   O     O_R   0.692475 0.265585 0.215611 -0.808196
O78   O     O_2   0.284202 0.787622 0.743108 -0.558566
O79   O     O_R   0.398200 0.230420 0.960780 -0.632315
O80   O     O_R   0.307552 0.734410 0.784404 -0.807323
O81   O     O_2   0.395288 0.171885 0.767547 -0.630434
O82   O     O_R   0.324805 0.174669 0.751623 -0.736279
O83   O     O_2   0.600483 0.828547 0.229866 -0.633777
O84   O     O_R   0.671107 0.826849 0.246003 -0.734300
O85   O     O_2   0.284690 0.712004 0.392104 -0.563603
O86   O     O_R   0.307601 0.759580 0.453376 -0.799852
O87   O     O_2   0.715340 0.288048 0.607900 -0.562468
O88   O     O_R   0.692399 0.240480 0.546598 -0.799210
O89   O     O_2   0.767405 0.667732 0.614141 -0.573087
O90   O     O_R   0.898200 0.269580 0.960780 -0.626727
O91   O     O_R   0.780129 0.677800 0.543552 -0.802635
O92   O     O_2   0.292511 0.243740 0.389967 -0.583728
O93   O     O_R   0.299354 0.283809 0.455827 -0.795962
O94   O     O_2   0.784679 0.211993 0.392083 -0.563421
O95   O     O_R   0.807607 0.259556 0.453393 -0.801309
O96   O     O_2   0.215323 0.788022 0.607887 -0.562626
O97   O     O_R   0.192405 0.740447 0.546612 -0.800929
O98   O     O_2   0.261124 0.171136 0.611710 -0.574491
O99   O     O_R   0.275044 0.179693 0.542000 -0.785351
O100  O     O_2   0.732849 0.832141 0.385672 -0.573502
Zn1   Zn    Zn3+2 0.558810 0.777990 0.056050 1.009301
Zn2   Zn    Zn3+2 0.502750 0.278070 0.943930 1.001054
Zn3   Zn    Zn3+2 0.502750 0.721930 0.943930 0.994677
Zn4   Zn    Zn3+2 0.497250 0.278070 0.056070 0.994579
Zn5   Zn    Zn3+2 0.997250 0.221930 0.056070 1.005370
Zn6   Zn    Zn3+2 0.002750 0.778070 0.943930 1.002123
Zn7   Zn    Zn3+2 0.002750 0.221930 0.943930 1.004678
Zn8   Zn    Zn3+2 0.997250 0.778070 0.056070 0.994634
Zn9   Zn    Zn3+2 0.441190 0.222010 0.943950 1.008719
Zn10  Zn    Zn3+2 0.441190 0.777990 0.943950 1.017768
Zn11  Zn    Zn3+2 0.558810 0.222010 0.056050 1.017672
Zn12  Zn    Zn3+2 0.058810 0.277990 0.056050 1.004469
Zn13  Zn    Zn3+2 0.941190 0.722010 0.943950 1.009067
Zn14  Zn    Zn3+2 0.941190 0.277990 0.943950 1.009025
Zn15  Zn    Zn3+2 0.058810 0.722010 0.056050 1.017334
Zn16  Zn    Zn3+2 0.497250 0.721930 0.056070 1.001237

loop_
_geom_bond_atom_site_label_1
_geom_bond_atom_site_label_2
_ccdc_geom_bond_type
C102  O61   D    
C62   C83   S    
O48   Zn7   S    
O24   Zn5   S    
C139  H29   S    
C18   C21   T    
C135  C161  T    
C123  C198  S    
C202  O10   A    
C74   C83   A    
H83   O93   S    
C64   O29   A    
C168  H41   S    
O7    Zn2   S    
C172  H46   S    
C114  C196  S    
C114  O83   D    
C1    C129  S    
C203  O38   A    
C69   H34   S    
C125  H16   S    
C40   H68   S    
C184  C193  A    
O31   Zn13  S    
C57   C152  S    
O24   Zn14  S    
C140  H32   S    
C113  C142  S    
C70   H45   S    
C89   C94   S    
C105  O69   S    
H74   O75   S    
O68   Zn1   S    
C80   C86   A    
C43   C58   S    
C162  C171  A    
C37   H64   S    
C4    C12   A    
C204  O39   A    
C13   C125  S    
C121  O99   S    
C122  O100  D    
C141  H31   S    
H85   O97   S    
C117  O91   S    
C76   C83   A    
C65   C87   A    
O15   Zn16  S    
C11   C20   S    
C166  C174  A    
C150  C159  S    
C29   C99   S    
C182  C203  S    
C105  C189  S    
C137  C146  S    
C58   O16   A    
C24   H21   S    
C9    C207  A    
C103  O64   S    
C100  O60   S    
H87   O3    S    
C120  O97   S    
O11   Zn6   S    
C116  O87   D    
C142  C151  S    
C131  C158  T    
O1    Zn1   S    
C3    C118  S    
H73   O73   S    
C111  O81   D    
C181  C190  A    
C101  H11   S    
C189  C206  A    
C104  O66   S    
C164  C173  A    
O38   Zn13  S    
C13   C142  S    
H58   O60   S    
C163  C172  A    
C113  H13   S    
C69   C88   A    
C175  H49   S    
C46   C90   S    
C39   H66   S    
C173  C182  A    
O24   Zn7   S    
C27   C36   A    
C186  C199  S    
C36   C44   A    
O5    Zn13  S    
C14   C168  A    
C64   C85   S    
C117  O89   D    
C64   O31   A    
C108  O74   D    
C71   H56   S    
C27   C97   S    
C61   O26   A    
C187  O5    A    
C61   C84   S    
C197  O32   A    
C90   C140  S    
H55   O55   S    
C8    C17   S    
O2    Zn15  S    
O21   Zn7   S    
C97   O52   D    
C68   C151  S    
C8    C162  A    
O39   Zn14  S    
C173  H47   S    
C49   C53   S    
H59   O62   S    
C51   C55   S    
C3    C11   A    
C47   C59   S    
C178  C186  A    
C48   C52   S    
C110  O80   S    
C41   C45   A    
C34   H62   S    
C112  O57   A    
C7    C196  A    
C198  H18   S    
C5    C194  A    
O49   Zn8   S    
C134  C160  T    
C75   H2    S    
C143  O44   A    
C72   H67   S    
C69   C77   A    
C117  C208  S    
C205  O14   A    
C60   O20   A    
C29   C49   A    
O29   Zn15  S    
C118  O93   S    
O24   Zn12  S    
C130  C157  T    
C33   C42   A    
C113  C148  S    
H60   O64   S    
O28   Zn14  S    
C180  C189  A    
C66   C88   A    
C75   C84   A    
C79   H9    S    
C197  O6    A    
C167  H40   S    
C30   C100  S    
C131  C176  S    
C122  O3    S    
C10   C208  A    
C92   C93   T    
C140  C198  S    
C125  C151  S    
C63   O28   A    
C126  C152  S    
C73   H78   S    
C29   C38   A    
C32   C41   A    
C109  C193  S    
C35   C150  S    
C203  O11   A    
C177  H50   S    
C152  C161  S    
C62   O25   A    
C39   C45   A    
O1    Zn16  S    
C98   O55   S    
C24   C126  S    
C132  O68   A    
H72   O71   S    
C201  O36   A    
C141  C150  S    
C26   C96   S    
C139  C148  S    
O30   Zn12  S    
C187  O49   A    
C99   O56   D    
C77   C84   A    
H81   O88   S    
C65   C74   A    
C202  O37   A    
C146  C198  S    
O35   Zn15  S    
C105  O67   D    
C20   C23   T    
H77   O82   S    
C110  O78   D    
C62   O27   A    
C46   C137  S    
C78   C85   A    
C174  H48   S    
O12   Zn7   S    
C57   C138  S    
C70   C89   A    
C137  H27   S    
C106  C190  S    
C162  H36   S    
C180  C205  S    
O19   Zn5   S    
C52   C53   T    
C108  O75   S    
C167  C175  A    
C102  O62   S    
C54   C55   T    
C28   C48   A    
C184  C201  S    
C46   H24   S    
O34   Zn10  S    
C34   C43   A    
C31   C51   A    
H61   O66   S    
C24   C147  S    
C112  O42   A    
C2    C124  S    
C57   C101  S    
C123  C137  S    
C170  C179  A    
C35   H22   S    
C114  O84   S    
C14   C22   S    
C144  C152  S    
C3    C192  A    
O43   Zn3   S    
C81   H7    S    
C28   C37   A    
C136  H28   S    
C35   C79   S    
C30   C39   A    
C148  C157  S    
C90   H10   S    
C41   H69   S    
C178  H51   S    
C133  C187  S    
C67   H23   S    
C190  C207  A    
C46   C149  S    
C115  C206  S    
C107  C191  S    
C108  C192  S    
C6    C121  S    
C112  C130  S    
C140  C149  S    
C81   C85   A    
C27   C49   A    
C111  C195  S    
C121  O98   D    
O79   Zn9   S    
O47   Zn6   S    
O27   Zn9   S    
C96   O51   S    
C154  O90   A    
C63   O30   A    
C185  C194  A    
C183  C192  A    
C12   C167  A    
O26   Zn1   S    
C2    C145  S    
C50   C54   S    
C132  O43   A    
C154  O45   A    
C200  O34   A    
C143  O79   A    
C103  O63   D    
C42   H70   S    
C101  C144  S    
C168  C177  A    
C33   C104  S    
O9    Zn4   S    
C177  C185  A    
C31   C40   A    
C61   O23   A    
C106  O70   D    
H80   O86   S    
C9    C163  A    
C66   H12   S    
C77   H4    S    
C101  C147  S    
C146  C155  S    
C4    C119  S    
C58   O18   A    
C72   C81   A    
C115  O85   D    
C26   C48   A    
C68   C113  S    
C30   C50   A    
O22   Zn8   S    
C87   C92   S    
O20   Zn6   S    
C78   H5    S    
C6    C195  A    
C2    H19   S    
H75   O77   S    
C4    C193  A    
C124  C136  S    
C5    C120  S    
C31   C102  S    
C116  O88   S    
O17   Zn3   S    
O36   Zn11  S    
C82   C86   A    
C171  H44   S    
C133  C159  T    
C169  H42   S    
O25   Zn11  S    
C176  O48   A    
O23   Zn10  S    
C38   C44   A    
C107  O72   D    
C44   C56   S    
C10   C19   S    
C144  H33   S    
C135  C165  S    
C32   C103  S    
C8    C206  A    
C147  C156  S    
O41   Zn16  S    
C5    C14   A    
H53   O51   S    
C68   H26   S    
C82   H8    S    
O10   Zn5   S    
C7    C16   A    
C63   C86   S    
C126  H17   S    
C182  C191  A    
H84   O95   S    
C73   C82   A    
C56   O17   A    
O40   Zn15  S    
O14   Zn8   S    
C28   C98   S    
C124  C150  S    
C107  O73   S    
C176  O4    A    
C183  C202  S    
C97   O53   S    
C174  C183  A    
C100  O59   D    
C38   H65   S    
O1    Zn3   S    
C179  C188  A    
O35   Zn8   S    
C33   C51   A    
O6    Zn16  S    
C17   C22   T    
C201  O9    A    
C111  O82   S    
C134  C154  S    
C188  C197  S    
C24   C144  S    
C66   C75   A    
C104  O65   D    
C199  O7    A    
C200  O8    A    
C94   C95   T    
C128  C143  S    
C59   O21   A    
C119  O94   D    
C16   C170  A    
C71   C91   A    
C68   C139  S    
C165  O47   A    
C175  C184  A    
C40   C47   A    
C123  C149  S    
C45   C60   S    
C37   C43   A    
H57   O58   S    
C16   C25   S    
C70   C78   A    
O42   Zn2   S    
C127  C153  T    
C13   H20   S    
C79   C145  S    
C79   C141  S    
C125  C139  S    
O4    Zn12  S    
C96   O50   D    
C166  H39   S    
O35   Zn13  S    
C56   O15   A    
O45   Zn5   S    
H79   O84   S    
O46   Zn10  S    
O44   Zn4   S    
C142  H35   S    
C15   C169  A    
O13   Zn2   S    
C1    O46   A    
C127  C132  S    
C128  C155  T    
C6    C15   A    
C26   C34   A    
C110  C194  S    
C11   C166  A    
H86   O99   S    
C164  H38   S    
C65   H1    S    
C136  C145  S    
C42   C47   A    
C145  C153  S    
C15   C23   S    
O13   Zn9   S    
C172  C181  A    
O37   Zn12  S    
C71   C80   A    
C60   O22   A    
O35   Zn6   S    
O32   Zn1   S    
H71   O69   S    
C123  H14   S    
C118  O92   D    
C186  C195  A    
C73   C91   A    
H76   O80   S    
C165  O2    A    
C80   H6    S    
O1    Zn10  S    
C91   C95   S    
C12   C21   S    
O8    Zn3   S    
C59   O19   A    
C129  C156  T    
C9    C18   S    
C124  H15   S    
C138  C147  S    
H54   O53   S    
O57   Zn11  S    
C109  O77   S    
O90   Zn14  S    
C115  O86   S    
C32   C50   A    
C98   O54   D    
C76   H3    S    
H82   O91   S    
C171  C180  A    
C205  O40   A    
C181  C204  S    
C7    C122  S    
C1    O41   A    
C169  C178  A    
C149  C158  S    
C199  O33   A    
C88   C93   S    
C126  C138  S    
C10   C164  A    
C109  O76   D    
O33   Zn9   S    
C204  O12   A    
C35   C136  S    
C57   H25   S    
C179  H52   S    
C67   C87   A    
O13   Zn4   S    
C151  C160  S    
C74   H88   S    
O16   Zn2   S    
C90   C146  S    
C72   C89   A    
C36   H63   S    
C170  H43   S    
C138  H30   S    
C106  O71   S    
C185  C200  S    
C19   C25   T    
C116  C207  S    
C163  H37   S    
C99   O58   S    
O18   Zn4   S    
C188  C196  A    
O13   Zn11  S    
C2    C141  S    
C67   C76   A    
C13   C148  S    
C119  O95   S    
C191  C208  A    
C120  O96   D    
