data_mof_unit_30320.cif
_audit_creation_date              2012-12-10T17:32:20-0500
_audit_creation_method            fapswitch 2.2
_symmetry_space_group_name_H-M    P1
_symmetry_Int_Tables_number       1
_space_group_crystal_system       triclinic
_cell_length_a                    12.315894
_cell_length_b                    13.140529
_cell_length_c                    15.05971
_cell_angle_alpha                 77.418867
_cell_angle_beta                  101.318015
_cell_angle_gamma                 116.766997
_cell_volume                      2110.29719596

loop_
_atom_site_label
_atom_site_type_symbol
_atom_type_description
_atom_site_fract_x
_atom_site_fract_y
_atom_site_fract_z
_atom_type_partial_charge
C1    C     C_R   0.854701 0.286210 0.508328 0.776812
C2    C     C_R   0.905189 0.512521 0.075473 0.109693
C3    C     C_R   0.195604 0.486576 0.079992 -0.214280
C4    C     C_R   0.195546 0.486916 0.987352 -0.217501
C5    C     C_R   0.099157 0.495286 0.923700 0.106592
C6    C     C_R   0.002181 0.504133 0.953021 0.063155
C7    C     C_R   0.904872 0.512792 0.889367 0.109581
C8    C     C_R   0.808983 0.521666 0.919146 -0.214885
C9    C     C_R   0.809186 0.521620 0.011753 -0.217103
C10   C     C_R   0.097835 0.494536 0.831190 -0.247828
C11   C     C_R   0.000828 0.502360 0.767804 -0.074138
C12   C     C_R   0.000027 0.500510 0.671125 0.806384
C13   C     C_R   0.904925 0.511954 0.797032 -0.254468
C14   C     C_R   0.279008 0.013231 0.362874 -0.194292
C15   C     C_R   0.226497 0.835660 0.468771 -0.040899
C16   C     C_R   0.813196 0.081844 0.565914 -0.182997
C17   C     C_R   0.732919 0.965787 0.580677 -0.139369
C18   C     C_R   0.609104 0.930363 0.549504 -0.208934
C19   C     C_R   0.563649 0.010941 0.501758 0.073029
C20   C     C_R   0.648993 0.124263 0.472580 0.093998
C21   C     C_R   0.436758 0.979767 0.475248 0.025504
C22   C     C_R   0.401118 0.050535 0.401343 0.140514
C23   C     C_R   0.144954 0.713530 0.487229 0.806849
C24   C     C_R   0.488221 0.156350 0.364824 -0.228067
C25   C     C_R   0.610044 0.193919 0.401052 -0.192222
C26   C     C_R   0.343495 0.880500 0.518215 0.090780
C27   C     C_R   0.193533 0.903858 0.393426 -0.239934
C28   C     C_R   0.772065 0.162599 0.513218 -0.106958
C29   C     C_R   0.347338 0.329153 0.647175 -0.306972
C30   C     C_R   0.759060 0.644258 0.374650 0.044905
C31   C     C_R   0.661287 0.674930 0.345585 0.222512
C32   C     C_R   0.558648 0.621007 0.394129 -0.282346
C33   C     C_R   0.551384 0.534446 0.469958 -0.039685
C34   C     C_R   0.000628 0.500547 0.328771 0.806852
C35   C     C_R   0.653091 0.505340 0.495504 0.269807
C36   C     C_R   0.447172 0.475349 0.521093 -0.014136
C37   C     C_R   0.447260 0.388661 0.595971 0.177777
C38   C     C_R   0.546993 0.361617 0.619530 -0.291688
C39   C     C_R   0.647435 0.418653 0.570596 -0.172211
C40   C     C_R   0.341950 0.497835 0.501637 0.012987
C41   C     C_R   0.247147 0.355422 0.624474 0.066333
C42   C     C_R   0.905588 0.511565 0.168149 -0.254906
C43   C     C_R   0.001508 0.501685 0.231773 -0.071410
C44   C     C_R   0.098155 0.493473 0.202413 -0.245582
C45   C     C_R   0.099294 0.494659 0.109859 0.108950
C46   C     C_R   0.002287 0.503888 0.046138 0.062758
Cu1   Cu    Cu3+1 0.098270 0.475420 0.521130 0.929969
Cu2   Cu    Cu3+1 0.901730 0.524580 0.478870 0.917216
H1    H     H_    0.830704 0.517919 0.190619 0.152770
H2    H     H_    0.462069 0.210502 0.307999 0.141472
H3    H     H_    0.251422 0.065534 0.305287 0.142630
H4    H     H_    0.907429 0.108441 0.596189 0.150869
H5    H     H_    0.549965 0.839217 0.561287 0.137786
H6    H     H_    0.766084 0.903405 0.618699 0.142669
H7    H     H_    0.673935 0.274894 0.368031 0.171180
H8    H     H_    0.169651 0.309809 0.663671 0.121991
H9    H     H_    0.547641 0.295415 0.676754 0.152405
H10   H     H_    0.346790 0.262715 0.704437 0.136635
H11   H     H_    0.172722 0.486525 0.251397 0.154009
H12   H     H_    0.333766 0.562188 0.446172 0.123236
H13   H     H_    0.840101 0.687292 0.339236 0.137041
H14   H     H_    0.485481 0.647436 0.370453 0.132048
H15   H     H_    0.718747 0.391431 0.594442 0.206072
H16   H     H_    0.270716 0.479747 0.128266 0.141240
H17   H     H_    0.270596 0.480283 0.965514 0.140189
H18   H     H_    0.172515 0.487874 0.808708 0.156728
H19   H     H_    0.829854 0.517989 0.748181 0.159092
H20   H     H_    0.733833 0.528403 0.870873 0.143855
H21   H     H_    0.734217 0.528406 0.033587 0.140295
H22   H     H_    0.102508 0.871282 0.356642 0.158433
N1    N     N_R   0.246280 0.438190 0.553160 -0.181048
N2    N     N_R   0.754320 0.561190 0.447410 -0.232403
O1    O     O_R   0.972510 0.318130 0.526570 -0.575735
O2    O     O_R   0.806530 0.359650 0.490890 -0.600943
O3    O     O_R   0.082980 0.479210 0.647590 -0.585803
O4    O     O_R   0.917000 0.520730 0.611900 -0.601610
O5    O     O_R   0.193470 0.640350 0.509110 -0.587763
O6    O     O_R   0.027490 0.681870 0.473430 -0.585729
O7    O     O_R   0.083000 0.479270 0.388100 -0.585263
O8    O     O_R   0.917020 0.520790 0.352410 -0.599914
C47   C     C_3   0.361074 0.832872 0.619563 -0.431843
C48   C     C_3   0.267512 0.830948 0.674297 -0.810928
H23   H     H_    0.268465 0.917676 0.663906 0.254136
H24   H     H_    0.173817 0.767084 0.654152 0.242534
H25   H     H_    0.291183 0.806322 0.748357 0.239691
H26   H     H_    0.355887 0.744876 0.627545 0.220659
H27   H     H_    0.451351 0.888003 0.652953 0.214720
N3    N     N_2   0.667410 0.762182 0.269024 -0.427527
H28   H     H_    0.603724 0.794638 0.263592 0.257467
C49   C     C_3   0.675373 0.735924 0.182674 -0.715219
H29   H     H_    0.681191 0.809489 0.127917 0.233321
H30   H     H_    0.592703 0.657900 0.164449 0.222440
H31   H     H_    0.758521 0.721764 0.186111 0.223972

loop_
_geom_bond_atom_site_label_1
_geom_bond_atom_site_label_2
_ccdc_geom_bond_type
C16   C28   A    
C21   C26   A    
C40   H12   S    
C40   N1    A    
Cu2   O4    S    
C19   C20   A    
Cu1   O7    S    
C47   C48   S    
C7    C8    A    
C45   C46   A    
C2    C46   A    
C1    O2    A    
C29   H10   S    
C36   C37   A    
C19   C21   A    
C9    H21   S    
C5    C6    A    
C20   C25   A    
C44   H11   S    
C33   C36   A    
C18   C19   A    
Cu2   O6    S    
C4    H17   S    
C18   H5    S    
C34   O8    A    
C49   H30   S    
C31   C32   A    
C8    C9    A    
C1    C28   S    
C14   C27   A    
C47   H26   S    
C41   N1    A    
C15   C23   S    
C21   C22   A    
Cu2   N2    S    
C10   H18   S    
C24   H2    S    
C38   C39   A    
Cu1   Cu2   S    
Cu2   O2    S    
C36   C40   A    
C24   C25   A    
Cu1   O1    S    
C16   H4    S    
C16   C17   A    
C15   C26   A    
C20   C28   A    
C3    H16   S    
C3    C45   A    
C35   C39   A    
C43   C44   A    
C41   H8    S    
C37   C38   A    
C34   O7    A    
C38   H9    S    
C15   C27   A    
C14   H3    S    
C17   C18   A    
C23   O5    A    
Cu1   N1    S    
C47   H27   S    
C27   H22   S    
N3    C49   S    
C35   N2    A    
C8    H20   S    
C26   C47   S    
C48   H24   S    
C12   O4    A    
C22   C24   A    
C30   H13   S    
C42   C43   A    
Cu1   O5    S    
C3    C4    A    
C44   C45   A    
C49   H31   S    
C13   H19   S    
C31   N3    S    
C6    C46   A    
C29   C41   A    
C34   C43   S    
C25   H7    S    
C4    C5    A    
C30   N2    A    
C11   C12   S    
C6    C7    A    
C48   H25   S    
C39   H15   S    
C1    O1    A    
C32   C33   A    
Cu2   O8    S    
Cu1   O3    S    
C5    C10   A    
C11   C13   A    
C14   C22   A    
C49   H29   S    
C30   C31   A    
C2    C42   A    
C33   C35   A    
C23   O6    A    
C10   C11   A    
C42   H1    S    
C32   H14   S    
C7    C13   A    
N3    H28   S    
C48   H23   S    
C12   O3    A    
C29   C37   A    
C2    C9    A    
C17   H6    S    
