data_mof_unit_11566.cif
_audit_creation_date              2012-12-10T17:45:33-0500
_audit_creation_method            fapswitch 2.2
_symmetry_space_group_name_H-M    P1
_symmetry_Int_Tables_number       1
_space_group_crystal_system       triclinic
_cell_length_a                    11.519305
_cell_length_b                    10.660833
_cell_length_c                    9.974462
_cell_angle_alpha                 92.411467
_cell_angle_beta                  90.956974
_cell_angle_gamma                 92.502599
_cell_volume                      1222.45477317

loop_
_atom_site_label
_atom_site_type_symbol
_atom_type_description
_atom_site_fract_x
_atom_site_fract_y
_atom_site_fract_z
_atom_type_partial_charge
C1    C     C_R   0.502244 0.259927 0.497196 0.926063
C2    C     C_R   0.464576 0.870739 0.515990 -0.134993
C3    C     C_R   0.319972 0.373703 0.129462 -0.189296
C4    C     C_R   0.282219 0.499996 0.498993 0.984988
C5    C     C_R   0.216552 0.341697 0.059144 -0.141748
C6    C     C_R   0.215301 0.344329 0.918480 -0.088897
C7    C     C_R   0.323953 0.357556 0.855807 0.077834
C8    C     C_R   0.412684 0.433397 0.924140 -0.006215
C9    C     C_R   0.412304 0.436009 0.067495 0.107525
C10   C     C_R   0.582714 0.565730 0.076101 0.006989
C11   C     C_R   0.582177 0.566369 0.932584 -0.017204
C12   C     C_R   0.666451 0.080444 0.806678 -0.041591
C13   C     C_R   0.489204 0.739063 0.503862 0.920098
C14   C     C_R   0.717807 0.500622 0.500900 0.895320
C15   C     C_1   0.161758 0.502191 0.496932 -0.037499
C16   C     C_1   0.059502 0.503346 0.497515 0.084990
C17   C     C_1   0.940773 0.503033 0.500344 0.038635
C18   C     C_1   0.838456 0.501969 0.502077 -0.157260
C19   C     C_R   0.642378 0.125116 0.679800 -0.255091
C20   C     C_2   0.330349 0.121717 0.326125 0.400116
C21   C     C_2   0.106880 0.311793 0.839101 0.502679
C22   C     C_2   0.361101 0.236855 0.796201 0.472467
C23   C     C_R   0.594326 0.981385 0.854624 -0.024863
C24   C     C_1   0.668757 0.641338 0.865293 0.268096
C25   C     C_2   0.761834 0.146163 0.887522 0.366363
C26   C     C_2   0.590901 0.961175 0.001831 0.390647
C27   C     C_1   0.424406 0.832177 0.810555 0.320092
C28   C     C_2   0.333024 0.853464 0.308942 0.496873
C29   C     C_1   0.670299 0.640198 0.152497 0.322927
C30   C     C_1   0.115992 0.300386 0.132855 0.223538
C31   C     C_R   0.518054 0.912396 0.761553 -0.028452
C32   C     C_R   0.514721 0.945553 0.624760 0.024605
C33   C     C_R   0.555829 0.064925 0.595687 0.059000
C34   C     C_R   0.499019 0.125091 0.492003 -0.105430
C35   C     C_R   0.418285 0.057696 0.404629 -0.074922
C36   C     C_R   0.409569 0.927218 0.408307 -0.085015
H1    H     H_    0.688442 0.209480 0.648438 0.145680
H2    H     H_    0.327090 0.349635 0.230998 0.231734
H3    H     H_    0.323392 0.106194 0.218048 0.022388
H4    H     H_    0.026432 0.287517 0.888734 0.056204
H5    H     H_    0.446873 0.205531 0.820681 0.029781
H6    H     H_    0.791393 0.240568 0.863515 0.065540
H7    H     H_    0.623671 0.034244 0.073210 0.116050
H8    H     H_    0.324384 0.883800 0.206938 0.068357
N1    N     N_R   0.498930 0.498800 0.142780 -0.135125
N2    N     N_R   0.498900 0.498720 0.857170 -0.143406
N3    N     N_1   0.738398 0.702046 0.812264 -0.172382
N4    N     N_1   0.349438 0.768501 0.849574 -0.161627
N5    N     N_1   0.740698 0.700738 0.212686 -0.168278
N6    N     N_1   0.035476 0.267404 0.192031 -0.130271
O1    O     O_R   0.500000 0.316780 0.614690 -0.635811
O2    O     O_2   0.105593 0.313931 0.716918 -0.529218
O3    O     O_2   0.296839 0.169576 0.722661 -0.507375
O4    O     O_2   0.812350 0.094175 0.976749 -0.558660
O5    O     O_2   0.550084 0.864189 0.045981 -0.618762
O6    O     O_2   0.275735 0.761035 0.341514 -0.570910
O7    O     O_R   0.499990 0.316750 0.385360 -0.649192
O8    O     O_R   0.334450 0.500030 0.614670 -0.605332
O9    O     O_R   0.334440 0.500000 0.385330 -0.609414
O10   O     O_R   0.500010 0.683250 0.614640 -0.636237
O11   O     O_R   0.500000 0.683220 0.385310 -0.580652
O12   O     O_R   0.665560 0.500000 0.614670 -0.627995
O13   O     O_R   0.665550 0.499970 0.385330 -0.620183
O14   O     O_2   0.260903 0.187166 0.384053 -0.531376
Zn1   Zn    Zn3+2 0.500010 0.500020 0.653130 0.970219
Zn2   Zn    Zn3+2 0.499990 0.499980 0.346870 0.984884

loop_
_geom_bond_atom_site_label_1
_geom_bond_atom_site_label_2
_ccdc_geom_bond_type
C25   H6    S    
C27   N4    T    
C3    H2    S    
C9    N1    A    
C6    C7    A    
C3    C9    A    
C1    O7    A    
C7    C22   S    
C14   C18   S    
O8    Zn1   S    
C35   C36   A    
C12   C23   A    
O7    Zn2   S    
C32   C33   A    
C24   N3    T    
C4    C15   S    
C33   C34   A    
C30   N6    T    
O13   Zn2   S    
C7    C8    A    
C13   O10   A    
C29   N5    T    
C26   O5    D    
C20   O14   D    
C1    O1    A    
C10   C29   S    
C28   C36   S    
C21   H4    S    
C25   O4    D    
C10   N1    A    
C14   O13   A    
C12   C19   A    
C26   H7    S    
C28   H8    S    
O10   Zn1   S    
C17   C18   T    
C22   O3    D    
O9    Zn2   S    
C19   C33   A    
C5    C6    A    
C8    N2    A    
C22   H5    S    
C10   C11   A    
C12   C25   S    
C2    C36   A    
C15   C16   T    
C14   O12   A    
C11   C24   S    
C13   O11   A    
C1    C34   S    
C4    O9    A    
N2    Zn1   S    
C2    C32   A    
C34   C35   A    
O1    Zn1   S    
C23   C26   S    
C4    O8    A    
N1    Zn2   S    
C2    C13   S    
C20   H3    S    
C16   C17   S    
C11   N2    A    
C19   H1    S    
O12   Zn1   S    
C6    C21   S    
C27   C31   S    
O11   Zn2   S    
C20   C35   S    
C21   O2    D    
C28   O6    D    
C31   C32   A    
C5    C30   S    
C8    C9    A    
C3    C5    A    
C23   C31   A    
