data_mof_unit_53193.cif
_audit_creation_date              2013-03-05T16:01:22-0500
_audit_creation_method            fapswitch 2.2
_symmetry_space_group_name_H-M    P1
_symmetry_Int_Tables_number       1
_space_group_crystal_system       triclinic
_cell_length_a                    19.740254
_cell_length_b                    6.928249
_cell_length_c                    17.763949
_cell_angle_alpha                 90.158988
_cell_angle_beta                  107.927339
_cell_angle_gamma                 89.724746
_cell_volume                      2311.50703685

loop_
_atom_site_label
_atom_site_type_symbol
_atom_site_description
_atom_site_fract_x
_atom_site_fract_y
_atom_site_fract_z
_atom_type_partial_charge
O1    O     O_R   0.561700 0.369960 0.440190 -0.564369
O2    O     O_R   0.061700 0.630040 0.940190 -0.565442
O3    O     O_R   0.413790 0.033680 0.407460 -0.534669
O4    O     O_R   0.913790 0.966320 0.907460 -0.522479
O5    O     O_R   0.438300 0.869760 0.559810 -0.531008
O6    O     O_R   0.938300 0.130240 0.059810 -0.550542
C1    C     C_R   0.386804 0.202801 0.385160 1.131967
C2    C     C_R   0.887163 0.796631 0.884448 1.075681
O7    O     O_R   0.559630 0.039830 0.430710 -0.608834
O8    O     O_R   0.059630 0.960170 0.930710 -0.610380
O9    O     O_R   0.585190 0.875950 0.583220 -0.624242
O10   O     O_R   0.085190 0.124050 0.083220 -0.623448
C3    C     C_R   0.582635 0.208759 0.417191 0.924387
C4    C     C_R   0.081530 0.790101 0.916077 0.923379
O11   O     O_R   0.414810 0.363770 0.416780 -0.617519
O12   O     O_R   0.914810 0.636230 0.916780 -0.604959
O13   O     O_3   0.508210 0.205480 0.550010 -0.248796
O14   O     O_3   0.008210 0.794520 0.050010 -0.274137
V1    V     V_3+5 0.498480 0.928140 0.490720 1.244449
V2    V     V_3+5 0.998480 0.071860 0.990720 1.234559
O15   O     O_R   0.586210 0.546600 0.592540 -0.586097
O16   O     O_R   0.086210 0.453400 0.092540 -0.586664
C5    C     C_R   0.612124 0.715663 0.616464 0.845601
C6    C     C_R   0.113816 0.284784 0.114176 0.843360
O17   O     O_R   0.440370 0.540460 0.569290 -0.565655
O18   O     O_R   0.940370 0.459540 0.069290 -0.585315
C7    C     C_R   0.418327 0.710916 0.584235 1.028373
C8    C     C_R   0.917805 0.291128 0.082915 1.076459
V3    V     V_3+5 0.501520 0.428910 0.509280 1.236082
V4    V     V_3+5 0.001520 0.571090 0.009280 1.218108
O19   O     O_3   0.491790 0.701440 0.449990 -0.267635
O20   O     O_3   0.991790 0.298560 0.949990 -0.258375
C9    C     C_R   0.282471 0.891533 0.684863 -0.319316
C10   C     C_R   0.761263 0.158242 0.156117 -0.329520
H1    H     H_    0.246633 0.011736 0.682303 0.214662
H2    H     H_    0.712128 0.077465 0.136309 0.192286
C11   C     C_R   0.324763 0.888137 0.634329 0.577215
C12   C     C_R   0.804620 0.170054 0.106610 0.582440
C13   C     C_R   0.370984 0.727207 0.636019 -0.430880
C14   C     C_R   0.868166 0.279878 0.130900 -0.377959
C15   C     C_R   0.373487 0.579438 0.691091 -0.297703
C16   C     C_R   0.886211 0.374479 0.204306 -0.341990
H3    H     H_    0.410287 0.460319 0.697034 0.206699
H4    H     H_    0.934978 0.457198 0.224155 0.164299
C17   C     C_R   0.330776 0.584849 0.741404 0.588998
C18   C     C_R   0.844058 0.356384 0.254830 0.576009
C19   C     C_R   0.283952 0.741482 0.737710 -0.124824
C20   C     C_R   0.779570 0.251186 0.230051 -0.102231
C21   C     C_R   0.192830 0.591322 0.790975 -0.235125
C22   C     C_R   0.716558 0.402408 0.319433 -0.240866
H5    H     H_    0.197590 0.458406 0.760696 0.176904
H6    H     H_    0.740829 0.539495 0.314230 0.175871
C23   C     C_R   0.141486 0.603175 0.830739 0.513231
C24   C     C_R   0.671414 0.392983 0.366886 0.521686
C25   C     C_R   0.132971 0.776115 0.869840 -0.287247
C26   C     C_R   0.634312 0.220064 0.370798 -0.295864
C27   C     C_R   0.175878 0.935044 0.866108 -0.210944
C28   C     C_R   0.648140 0.056626 0.330466 -0.204819
H7    H     H_    0.171079 0.069288 0.895479 0.189171
H8    H     H_    0.621886 0.921028 0.332949 0.202104
C29   C     C_R   0.225839 0.922781 0.824831 -0.192699
C30   C     C_R   0.695964 0.065432 0.286255 -0.167334
H9    H     H_    0.257602 0.048411 0.822657 0.171173
H10   H     H_    0.705942 0.935683 0.257155 0.140869
C31   C     C_R   0.234822 0.750595 0.786757 0.129347
C32   C     C_R   0.730478 0.239019 0.279652 0.116621
C33   C     C_2   0.717941 0.881959 0.702160 -0.434577
C34   C     C_2   0.205665 0.115483 0.220109 -0.513713
C35   C     C_2   0.674783 0.725059 0.688628 0.253601
C36   C     C_2   0.183145 0.279984 0.177877 0.283811
H11   H     H_    0.702492 0.001033 0.660623 0.152645
H12   H     H_    0.171632 0.991748 0.200459 0.131762
C37   C     C_2   0.785300 0.916111 0.769006 0.701569
C38   C     C_2   0.271604 0.082518 0.290851 0.701198
C39   C     C_2   0.820493 0.774876 0.818060 -0.637729
C40   C     C_2   0.322123 0.220086 0.316357 -0.600128
H13   H     H_    0.802312 0.628147 0.808455 0.228707
H14   H     H_    0.317144 0.359569 0.289517 0.195388
O21   O     O_3   0.687930 0.570512 0.740317 -0.615413
C41   C     C_3   0.638346 0.575345 0.783107 0.178285
H15   H     H_    0.584080 0.538237 0.744025 0.088273
H16   H     H_    0.636914 0.719973 0.810412 0.119882
C42   C     C_3   0.660162 0.427587 0.849390 -0.636438
H17   H     H_    0.713003 0.466014 0.891044 0.255964
H18   H     H_    0.620517 0.425844 0.882197 0.183626
H19   H     H_    0.663173 0.281485 0.824639 0.269464
O22   O     O_3   0.220783 0.450657 0.194708 -0.634290
C43   C     C_3   0.254071 0.482720 0.135825 0.247120
H20   H     H_    0.214281 0.497185 0.076051 0.098591
H21   H     H_    0.291542 0.362494 0.134877 0.091885
C44   C     C_3   0.296393 0.669155 0.153976 -0.877570
H22   H     H_    0.335891 0.662431 0.213949 0.269134
H23   H     H_    0.324942 0.691564 0.109744 0.206616
H24   H     H_    0.259877 0.792996 0.151135 0.252242
O23   O     O_3   0.812194 0.101883 0.778358 -0.573880
C45   C     C_3   0.847283 0.135360 0.721160 0.292971
H25   H     H_    0.820436 0.067844 0.662530 0.049369
H26   H     H_    0.902395 0.077503 0.743311 0.083960
C46   C     C_3   0.850059 0.351111 0.707616 -0.902987
H27   H     H_    0.879029 0.423433 0.764004 0.258546
H28   H     H_    0.877929 0.379498 0.663201 0.190508
H29   H     H_    0.795222 0.410835 0.685162 0.272221
O24   O     O_3   0.284875 0.903910 0.329663 -0.606557
C47   C     C_3   0.222134 0.807654 0.330912 0.298013
H30   H     H_    0.196488 0.737964 0.272945 0.141360
H31   H     H_    0.183935 0.907828 0.346100 0.092703
C48   C     C_3   0.240853 0.646101 0.392073 -0.758815
H32   H     H_    0.256205 0.704738 0.453041 0.247467
H33   H     H_    0.194069 0.550677 0.383972 0.191630
H34   H     H_    0.285725 0.558944 0.385127 0.259934
S1    S     S_3+6 0.317978 0.093215 0.573069 -0.062057
O25   O     O_2   0.387608 0.197452 0.599109 -0.294677
O26   O     O_2   0.302339 0.033384 0.488381 -0.324602
O27   O     O_3   0.253275 0.244221 0.580451 -0.560957
H35   H     H_    0.258578 0.361297 0.550888 0.365563
S2    S     S_3+6 0.776664 0.046194 0.014801 -0.062774
O28   O     O_2   0.697421 0.016253 0.989573 -0.337973
O29   O     O_2   0.795601 0.158513 0.951934 -0.300336
O30   O     O_3   0.817757 0.830144 0.026357 -0.529283
H36   H     H_    0.788760 0.750139 0.981890 0.355122
O31   O     O_3   0.333097 0.431651 0.791745 -0.633867
C49   C     C_3   0.386362 0.467682 0.864106 0.255326
H37   H     H_    0.376738 0.607296 0.890588 0.092394
H38   H     H_    0.439955 0.470000 0.855564 0.092814
C50   C     C_3   0.385379 0.307183 0.921994 -0.890846
H39   H     H_    0.395354 0.165668 0.897711 0.256136
H40   H     H_    0.427401 0.332844 0.979169 0.217122
H41   H     H_    0.332755 0.303581 0.932520 0.247055
O32   O     O_3   0.866476 0.444836 0.328131 -0.644952
C51   C     C_3   0.906796 0.310469 0.383893 0.261229
H42   H     H_    0.952552 0.253555 0.366062 0.095587
H43   H     H_    0.872893 0.187903 0.390848 0.098562
C52   C     C_3   0.936481 0.409646 0.463760 -0.902277
H44   H     H_    0.892396 0.467649 0.483754 0.246604
H45   H     H_    0.967655 0.304622 0.508313 0.213740
H46   H     H_    0.971840 0.530234 0.459105 0.261486
O33   O     O_3   0.100627 0.442598 0.831943 -0.625675
C53   C     C_3   0.047687 0.421743 0.757699 0.279392
H47   H     H_    0.057551 0.504550 0.708194 0.066141
H48   H     H_    0.996353 0.473050 0.763641 0.104129
C54   C     C_3   0.041336 0.209811 0.734224 -0.913240
H49   H     H_    0.030157 0.122214 0.781198 0.262618
H50   H     H_    0.997454 0.190414 0.678036 0.202905
H51   H     H_    0.091799 0.158888 0.725449 0.260371
O34   O     O_3   0.663536 0.556691 0.408093 -0.625912
C55   C     C_3   0.718714 0.561571 0.481264 0.298761
H52   H     H_    0.768969 0.489559 0.479667 0.069978
H53   H     H_    0.700363 0.489146 0.527204 0.102288
C56   C     C_3   0.736689 0.770441 0.505571 -0.954989
H54   H     H_    0.688303 0.849454 0.507623 0.266684
H55   H     H_    0.777064 0.775535 0.564999 0.201755
H56   H     H_    0.758652 0.842210 0.462361 0.262203

loop_
_geom_bond_atom_site_label_1
_geom_bond_atom_site_label_2
_geom_bond_distance
_ccdc_geom_bond_type
C28   C30   1.403225 A    
C12   C14   1.418724 A    
O22   C43   1.414607 S    
O13   V3    1.697822 S    
C5    C35   1.483812 S    
O23   C45   1.414953 S    
O4    C2    1.302506 A    
V1    O19   1.716008 S    
C18   O32   1.382146 S    
C47   H31   1.114572 S    
O27   H35   0.990807 S    
C6    C36   1.483568 S    
C13   C15   1.408171 A    
O9    V1    2.006601 S    
C22   C24   1.404374 A    
C38   C40   1.355279 D    
C23   O33   1.381340 S    
C40   H14   1.069417 S    
O5    V1    1.996526 S    
O32   C51   1.412075 S    
O3    C1    1.296255 A    
C56   H55   1.110414 S    
O34   C55   1.416188 S    
C27   H7    1.083111 S    
C8    C14   1.485979 S    
C34   C38   1.522300 S    
C45   C46   1.518595 S    
S2    O28   1.503953 D    
C16   C18   1.405365 A    
C29   H9    1.082847 S    
O7    C3    1.306717 A    
C30   H10   1.082826 S    
O13   V1    2.169342 S    
O5    C7    1.291116 A    
O7    V1    1.999510 S    
O6    C8    1.292286 A    
C42   H17   1.110326 S    
O8    V2    1.992720 S    
C21   H5    1.083365 S    
C45   H26   1.110069 S    
C52   H46   1.110656 S    
C22   H6    1.082722 S    
C48   H32   1.107477 S    
O3    V1    1.997288 S    
C33   C37   1.504502 S    
C26   C28   1.408163 A    
C15   H3    1.080487 S    
C33   H11   1.086486 S    
C3    C26   1.498200 S    
C17   C19   1.410585 A    
C4    C25   1.492405 S    
C2    O12   1.291293 A    
V3    O19   2.143437 S    
C48   H33   1.110948 S    
C16   H4    1.083843 S    
C41   C42   1.519902 S    
C36   O22   1.381804 S    
C47   H30   1.108333 S    
O11   V3    2.026166 S    
C55   H53   1.111303 S    
C23   C25   1.418315 A    
O17   V3    1.992351 S    
C24   C26   1.420122 A    
C37   O23   1.384591 S    
C30   C32   1.407902 A    
C41   H16   1.116064 S    
O8    C4    1.305909 A    
C54   H51   1.110414 S    
C7    C13   1.503323 S    
C44   H22   1.110695 S    
C1    O11   1.294665 A    
C17   O31   1.381269 S    
O15   V3    2.032607 S    
C2    C39   1.480200 S    
C9    C11   1.401591 A    
C33   C35   1.358909 D    
C51   H43   1.114091 S    
C44   H23   1.110485 S    
C55   C56   1.521049 S    
C12   S2    1.772982 S    
C14   C16   1.402988 A    
C46   H27   1.108504 S    
C43   C44   1.520710 S    
C34   H12   1.080556 S    
C45   H25   1.115465 S    
O10   V2    2.007922 S    
O1    V3    1.993616 S    
C42   H19   1.111077 S    
S1    O26   1.497383 D    
C25   C27   1.406463 A    
C39   H13   1.075264 S    
O31   C49   1.410281 S    
C21   C31   1.399260 A    
C24   O34   1.382104 S    
O14   V4    1.695316 S    
C42   H18   1.110496 S    
C43   H21   1.114846 S    
O18   V4    1.999133 S    
O15   C5    1.297461 A    
C52   H44   1.109548 S    
C9    C19   1.396825 A    
C48   H34   1.107353 S    
O16   C6    1.294930 A    
C56   H56   1.110601 S    
C51   C52   1.521516 S    
O1    C3    1.296926 A    
C37   C39   1.350915 D    
O12   V4    2.024533 S    
C49   H38   1.114233 S    
C52   H45   1.110671 S    
C55   H52   1.116417 S    
V2    O20   1.718520 S    
O16   V4    2.029453 S    
S1    O25   1.497023 D    
C46   H28   1.110386 S    
C10   C12   1.406093 A    
C41   H15   1.113296 S    
C53   C54   1.520444 S    
O30   H36   0.990510 S    
C22   C32   1.403007 A    
C27   C29   1.400561 A    
C1    C40   1.475487 S    
C53   H48   1.107498 S    
O17   C7    1.311085 A    
O6    V2    1.992832 S    
O33   C53   1.415736 S    
O10   C6    1.293508 A    
O18   C8    1.300522 A    
S2    O30   1.681744 S    
O2    V4    1.997345 S    
C49   C50   1.520896 S    
C54   H50   1.110303 S    
C51   H42   1.115195 S    
C11   C13   1.431800 A    
C56   H54   1.108890 S    
C44   H24   1.109158 S    
V4    O20   2.139910 S    
C50   H39   1.110958 S    
C50   H41   1.111107 S    
C21   C23   1.404478 A    
O9    C5    1.292025 A    
C9    H1    1.082071 S    
C10   H2    1.082492 S    
S2    O29   1.502356 D    
S1    O27   1.683046 S    
O14   V2    2.172881 S    
O2    C4    1.294794 A    
C11   S1    1.771422 S    
C35   O21   1.383114 S    
C53   H47   1.117899 S    
O21   C41   1.412282 S    
O4    V2    2.000160 S    
C18   C20   1.416930 A    
C29   C31   1.406883 A    
C46   H29   1.110364 S    
C10   C20   1.405537 A    
C43   H20   1.113937 S    
C34   C36   1.361588 D    
O24   C47   1.415652 S    
C50   H40   1.110416 S    
C15   C17   1.405158 A    
C20   C32   1.499806 S    
C49   H37   1.115231 S    
C54   H49   1.109396 S    
C28   H8    1.082638 S    
C19   C31   1.490967 S    
C47   C48   1.524920 S    
C38   O24   1.402023 S    
