data_mof_unit_54416.cif
_audit_creation_date              2012-12-10T17:31:06-0500
_audit_creation_method            fapswitch 2.2
_symmetry_space_group_name_H-M    P1
_symmetry_Int_Tables_number       1
_space_group_crystal_system       triclinic
_cell_length_a                    12.094
_cell_length_b                    12.789224
_cell_length_c                    15.198183
_cell_angle_alpha                 85.595078
_cell_angle_beta                  115.48678
_cell_angle_gamma                 95.219101
_cell_volume                      2111.32987213

loop_
_atom_site_label
_atom_site_type_symbol
_atom_type_description
_atom_site_fract_x
_atom_site_fract_y
_atom_site_fract_z
_atom_type_partial_charge
C1    C     C_R   0.475926 0.299855 0.498391 0.973325
C2    C     C_R   0.542650 0.967928 0.401623 -0.184174
C3    C     C_R   0.443310 0.138321 0.579892 -0.302335
C4    C     C_R   0.557906 0.861872 0.421170 -0.295467
C5    C     C_R   0.496150 0.133654 0.442628 0.393735
C6    C     C_R   0.504176 0.866215 0.558048 0.391917
C7    C     C_R   0.510147 0.025634 0.460826 0.018748
C8    C     C_R   0.490514 0.974335 0.540069 0.025120
C9    C     C_R   0.027795 0.623711 0.438706 -0.252986
C10   C     C_R   0.972675 0.376508 0.562002 -0.263087
C11   C     C_R   0.142123 0.608585 0.440896 0.029468
C12   C     C_R   0.524183 0.700135 0.501822 0.948606
C13   C     C_R   0.857436 0.391010 0.558420 0.050717
C14   C     C_R   0.146835 0.441892 0.522163 0.101807
C15   C     C_R   0.854910 0.559216 0.480328 0.067452
C16   C     C_R   0.577087 0.498286 0.681470 0.913284
C17   C     C_R   0.423050 0.503266 0.318587 0.957608
C18   C     C_R   0.030385 0.453875 0.521473 0.029686
C19   C     C_R   0.970850 0.546820 0.480283 0.023608
C20   C     C_R   0.626787 0.521052 0.785960 -0.183519
C21   C     C_R   0.372899 0.510603 0.211254 -0.251030
C22   C     C_R   0.775006 0.610544 0.931546 0.455679
C23   C     C_R   0.613605 0.656097 0.085029 0.403680
C24   C     C_R   0.207605 0.494541 0.047432 0.400758
C25   C     C_R   0.747530 0.565050 0.841191 -0.129259
C26   C     C_R   0.248413 0.483520 0.149367 -0.076937
C27   C     C_R   0.539843 0.519049 0.823330 -0.212185
C28   C     C_R   0.452997 0.549355 0.170807 -0.147650
C29   C     C_R   0.560193 0.575681 0.903911 -0.010446
C30   C     C_R   0.413078 0.567651 0.070391 0.065162
C31   C     C_R   0.680345 0.616661 0.961614 0.076141
C32   C     C_R   0.289812 0.536896 0.007634 -0.072800
C33   C     C_R   0.464622 0.584364 0.932493 -0.108341
C34   C     C_R   0.337667 0.571350 0.868076 0.444273
C35   C     C_R   0.497284 0.604067 0.030708 0.020334
C36   C     C_2   0.162313 0.433245 0.188610 1.008222
C37   C     C_2   0.843015 0.568079 0.804284 0.951002
C38   C     C_2   0.796340 0.658928 0.443194 0.917240
C39   C     C_2   0.208338 0.344086 0.563658 0.920305
C40   C     C_R   0.703771 0.662324 0.049329 -0.246091
C41   C     C_R   0.252088 0.548608 0.906487 -0.191584
C42   C     C_R   0.538233 0.811962 0.498272 -0.066571
C43   C     C_R   0.462174 0.188018 0.502354 -0.063663
C44   C     C_R   0.458453 0.032196 0.599463 -0.181561
H1    H     H_    0.793115 0.700312 0.091912 0.201981
H2    H     H_    0.425131 0.183094 0.629366 0.195674
H3    H     H_    0.448585 0.997550 0.663075 0.178687
H4    H     H_    0.552863 0.002664 0.338176 0.182575
H5    H     H_    0.132046 0.321895 0.278703 0.355572
H6    H     H_    0.962879 0.656522 0.765444 0.353101
H7    H     H_    0.953107 0.623906 0.973420 0.382391
H8    H     H_    0.091036 0.420176 0.934892 0.353407
H9    H     H_    0.718196 0.741779 0.195047 0.345252
H10   H     H_    0.352347 0.635156 0.753531 0.355144
H11   H     H_    0.406465 0.833862 0.630606 0.331742
H12   H     H_    0.156338 0.538632 0.855817 0.193624
H13   H     H_    0.594227 0.166481 0.370525 0.330926
H14   H     H_    0.806492 0.815316 0.458444 0.343674
H15   H     H_    0.203190 0.187276 0.552772 0.343246
H16   H     H_    0.814409 0.330158 0.588858 0.156602
H17   H     H_    0.184427 0.668836 0.409309 0.148407
H18   H     H_    0.984875 0.695645 0.404053 0.164748
H19   H     H_    0.015226 0.304304 0.596196 0.172350
H20   H     H_    0.549082 0.560308 0.218873 0.249359
H21   H     H_    0.452473 0.475870 0.785921 0.240746
H22   H     H_    0.576674 0.817387 0.371871 0.212602
N1    N     N_R   0.799120 0.480200 0.517090 -0.136740
N2    N     N_R   0.200880 0.519800 0.482910 -0.139618
O1    O     O_R   0.580150 0.341050 0.504560 -0.617432
O2    O     O_R   0.198316 0.349062 0.257161 -0.780701
O3    O     O_2   0.874004 0.486279 0.787459 -0.611179
O4    O     O_R   0.899123 0.664536 0.790723 -0.772498
O5    O     O_3   0.891854 0.650184 0.991730 -0.730738
O6    O     O_3   0.089412 0.457097 0.989182 -0.742261
O7    O     O_3   0.633742 0.708096 0.167477 -0.742794
O8    O     O_3   0.292760 0.587087 0.768136 -0.756622
O9    O     O_3   0.482877 0.810614 0.631563 -0.768461
O10   O     O_3   0.517184 0.189058 0.368930 -0.750310
O11   O     O_2   0.702150 0.661875 0.368002 -0.622797
O12   O     O_R   0.419850 0.658950 0.495440 -0.615118
O13   O     O_R   0.852202 0.750773 0.492558 -0.796070
O14   O     O_2   0.298017 0.343540 0.642378 -0.635478
O15   O     O_R   0.158655 0.250918 0.514817 -0.810832
O16   O     O_R   0.388090 0.353760 0.493600 -0.598551
O17   O     O_R   0.611910 0.646240 0.506400 -0.605603
O18   O     O_R   0.650890 0.490020 0.640860 -0.598798
O19   O     O_R   0.349110 0.509980 0.359140 -0.617253
O20   O     O_R   0.458830 0.502730 0.629890 -0.574169
O21   O     O_R   0.541170 0.497270 0.370110 -0.578635
O22   O     O_2   0.059102 0.464027 0.159436 -0.568560
Zn1   Zn    Zn3+2 0.628240 0.491510 0.507320 1.020713
Zn2   Zn    Zn3+2 0.371760 0.508490 0.492680 1.010505

loop_
_geom_bond_atom_site_label_1
_geom_bond_atom_site_label_2
_ccdc_geom_bond_type
C30   C32   A    
C21   C26   A    
C27   C29   A    
C14   C18   A    
C10   H19   S    
O17   Zn1   S    
C7    C8    A    
C15   C38   S    
C13   H16   S    
C1    O16   A    
C15   C19   A    
C3    C43   A    
C30   C35   A    
H15   O15   S    
H8    O6    S    
O18   Zn1   S    
H11   O9    S    
C20   C25   A    
C23   C40   A    
C29   C33   A    
C31   C40   A    
C18   C19   A    
H6    O4    S    
C12   C42   S    
C2    C7    A    
C25   C37   S    
C14   C39   S    
C1    C43   S    
C33   C35   A    
O20   Zn2   S    
C36   O2    S    
C22   C25   A    
C32   C41   A    
O21   Zn1   S    
C44   H3    S    
C5    C43   A    
O19   Zn2   S    
C16   O18   A    
H9    O7    S    
C34   C41   A    
C9    C19   A    
C40   H1    S    
C3    C44   A    
C22   C31   A    
C9    H18   S    
C8    C44   A    
C17   O21   A    
H14   O13   S    
C5    C7    A    
C6    O9    S    
C6    C8    A    
C2    H4    S    
C1    O1    A    
O12   Zn2   S    
C2    C4    A    
C24   C32   A    
C41   H12   S    
C38   O11   D    
C27   H21   S    
C16   C20   S    
C15   N1    A    
N1    Zn1   S    
C33   C34   A    
C9    C11   A    
H10   O8    S    
C12   O17   A    
C26   C36   S    
C21   C28   A    
C23   C35   A    
H5    O2    S    
C37   O3    D    
C38   O13   S    
C28   H20   S    
C11   N2    A    
C13   N1    A    
C36   O22   D    
C17   O19   A    
H13   O10   S    
H7    O5    S    
C39   O14   D    
C23   O7    S    
C11   H17   S    
C10   C13   A    
C20   C27   A    
C3    H2    S    
C28   C30   A    
C39   O15   S    
C29   C31   A    
C4    H22   S    
C24   C26   A    
C24   O6    S    
C4    C42   A    
C10   C18   A    
C12   O12   A    
N2    Zn2   S    
C17   C21   S    
C6    C42   A    
C37   O4    S    
C16   O20   A    
C14   N2    A    
O16   Zn2   S    
C22   O5    S    
C5    O10   S    
O1    Zn1   S    
C34   O8    S    
