data_mof_unit_59440.cif
_audit_creation_date              2012-12-10T17:17:55-0500
_audit_creation_method            fapswitch 2.2
_symmetry_space_group_name_H-M    P1
_symmetry_Int_Tables_number       1
_space_group_crystal_system       triclinic
_cell_length_a                    14.975262
_cell_length_b                    16.049354
_cell_length_c                    9.699452
_cell_angle_alpha                 89.656793
_cell_angle_beta                  89.835894
_cell_angle_gamma                 89.635387
_cell_volume                      2331.09978393

loop_
_atom_site_label
_atom_site_type_symbol
_atom_type_description
_atom_site_fract_x
_atom_site_fract_y
_atom_site_fract_z
_atom_type_partial_charge
C1    C     C_R   0.385424 0.877605 0.500301 0.809607
C2    C     C_R   0.709770 0.226633 0.373922 0.402622
C3    C     C_R   0.193977 0.259770 0.387026 0.406097
C4    C     C_R   0.209774 0.726629 0.373919 0.402630
C5    C     C_R   0.667044 0.798339 0.508627 -0.257518
C6    C     C_R   0.676417 0.195007 0.499051 -0.225656
C7    C     C_R   0.167046 0.298340 0.508626 -0.257519
C8    C     C_R   0.176418 0.695006 0.499049 -0.225654
C9    C     C_R   0.674604 0.987727 0.131643 0.423759
C10   C     C_R   0.174603 0.487725 0.131643 0.423765
C11   C     C_R   0.751907 0.983568 0.042817 0.397929
C12   C     C_R   0.385542 0.123187 0.500872 0.867437
C13   C     C_R   0.251907 0.483565 0.042817 0.397924
C14   C     C_R   0.741536 0.986080 0.902788 -0.339227
C15   C     C_R   0.241535 0.486078 0.902788 -0.339228
C16   C     C_R   0.659735 0.996580 0.846360 -0.192436
C17   C     C_R   0.159735 0.496579 0.846360 -0.192437
C18   C     C_R   0.580362 0.998607 0.922777 0.071323
C19   C     C_R   0.080362 0.498606 0.922777 0.071325
C20   C     C_R   0.583454 0.995964 0.072096 0.090355
C21   C     C_R   0.083454 0.495963 0.072096 0.090359
C22   C     C_R   0.423978 0.992734 0.073792 -0.173011
C23   C     C_R   0.885423 0.377605 0.500301 0.809612
C24   C     C_R   0.923978 0.492734 0.073792 -0.173017
C25   C     C_R   0.613833 0.123019 0.499660 0.851240
C26   C     C_R   0.609300 0.874156 0.501630 0.805505
C27   C     C_R   0.113834 0.623019 0.499659 0.851236
C28   C     C_R   0.109301 0.374157 0.501630 0.805512
C29   C     C_R   0.423084 0.994147 0.925150 0.623592
C30   C     C_R   0.923084 0.494148 0.925150 0.623600
C31   C     C_R   0.340801 0.232687 0.755269 0.435853
C32   C     C_R   0.322559 0.792039 0.758187 0.498797
C33   C     C_R   0.840801 0.732687 0.755269 0.435854
C34   C     C_R   0.885542 0.623186 0.500872 0.867436
C35   C     C_R   0.822558 0.292040 0.758187 0.498800
C36   C     C_R   0.301402 0.260064 0.878924 -0.371810
C37   C     C_R   0.262976 0.807089 0.865775 -0.238780
C38   C     C_R   0.801402 0.760065 0.878924 -0.371812
C39   C     C_R   0.762975 0.307091 0.865775 -0.238782
C40   C     C_R   0.711256 0.781741 0.883417 0.390346
C41   C     C_R   0.673511 0.284052 0.852632 0.312874
C42   C     C_R   0.211256 0.281740 0.883416 0.390344
C43   C     C_R   0.173511 0.784050 0.852632 0.312889
C44   C     C_R   0.663608 0.785140 0.761723 -0.112041
C45   C     C_R   0.274151 0.214308 0.381927 0.360056
C46   C     C_R   0.648811 0.238537 0.737409 -0.115455
C47   C     C_R   0.163608 0.285139 0.761722 -0.112041
C48   C     C_R   0.148811 0.738538 0.737406 -0.115458
C49   C     C_R   0.705972 0.771636 0.633796 -0.142798
C50   C     C_R   0.705524 0.231572 0.622490 -0.106749
C51   C     C_R   0.205972 0.271637 0.633795 -0.142799
C52   C     C_R   0.205525 0.731572 0.622489 -0.106752
C53   C     C_R   0.289748 0.230493 0.631646 -0.008654
C54   C     C_R   0.287517 0.773648 0.625922 -0.113885
C55   C     C_R   0.789747 0.730492 0.631647 -0.008655
C56   C     C_R   0.284245 0.780107 0.373623 0.400464
C57   C     C_R   0.787515 0.273649 0.625923 -0.113891
C58   C     C_R   0.319815 0.193936 0.504813 -0.223298
C59   C     C_R   0.323074 0.805562 0.500239 -0.282659
C60   C     C_R   0.819814 0.693936 0.504813 -0.223295
C61   C     C_R   0.823071 0.305564 0.500239 -0.282657
C62   C     C_3   0.280020 0.142217 0.179072 -0.278849
C63   C     C_3   0.388683 0.768171 0.202507 -0.345358
C64   C     C_3   0.780022 0.642218 0.179070 -0.278847
C65   C     C_3   0.888677 0.268171 0.202505 -0.345379
C66   C     C_3   0.271965 0.022774 0.892105 -0.400446
C67   C     C_R   0.774150 0.714307 0.381928 0.360052
C68   C     C_3   0.771965 0.522775 0.892105 -0.400455
C69   C     C_3   0.580366 0.689991 0.291273 -0.377323
C70   C     C_3   0.703388 0.178248 0.152071 -0.143566
C71   C     C_3   0.080364 0.190001 0.291268 -0.377303
C72   C     C_3   0.203396 0.678244 0.152068 -0.143599
C73   C     C_3   0.765600 0.968777 0.334372 -0.181606
C74   C     C_3   0.265600 0.468778 0.334373 -0.181609
C75   C     C_3   0.897060 0.034603 0.043673 -0.336933
C76   C     C_3   0.397062 0.534596 0.043672 -0.336937
C77   C     C_R   0.784241 0.280111 0.373624 0.400477
C78   C     C_R   0.693975 0.759768 0.387027 0.406104
Cu1   Cu    Cu3+1 0.499990 0.000000 0.640660 1.003079
Cu2   Cu    Cu3+1 0.999990 0.500000 0.640660 1.003080
Cu3   Cu    Cu3+1 0.500010 0.000000 0.359340 1.038482
Cu4   Cu    Cu3+1 0.000010 0.500000 0.359340 1.038482
H1    H     H_    0.798763 0.980042 0.834818 0.180476
H2    H     H_    0.582206 0.217062 0.731883 0.230720
H3    H     H_    0.093486 0.300304 0.768928 0.208639
H4    H     H_    0.082206 0.717064 0.731879 0.230720
H5    H     H_    0.362939 0.982452 0.130471 0.161049
H6    H     H_    0.862939 0.482453 0.130471 0.161049
H7    H     H_    0.220426 0.163837 0.121943 0.208564
H8    H     H_    0.264548 0.085460 0.241116 0.143241
H9    H     H_    0.330111 0.125859 0.100715 0.171015
H10   H     H_    0.390107 0.767850 0.088512 0.198208
H11   H     H_    0.390040 0.701720 0.236771 0.102158
H12   H     H_    0.298763 0.480039 0.834817 0.180476
H13   H     H_    0.450485 0.799926 0.234006 0.249900
H14   H     H_    0.720428 0.663837 0.121941 0.208564
H15   H     H_    0.764551 0.585460 0.241113 0.143242
H16   H     H_    0.830113 0.625861 0.100713 0.171016
H17   H     H_    0.890083 0.267822 0.088516 0.198172
H18   H     H_    0.890051 0.201730 0.236808 0.102158
H19   H     H_    0.950478 0.299940 0.233956 0.249916
H20   H     H_    0.286257 0.090228 0.889794 0.161422
H21   H     H_    0.246050 0.001634 0.993589 0.146832
H22   H     H_    0.217794 0.012415 0.816492 0.208782
H23   H     H_    0.664046 0.999777 0.738684 0.238516
H24   H     H_    0.786256 0.590229 0.889795 0.161425
H25   H     H_    0.746050 0.501634 0.993590 0.146829
H26   H     H_    0.717793 0.512417 0.816493 0.208780
H27   H     H_    0.453495 0.213965 0.848053 0.336248
H28   H     H_    0.443906 0.763810 0.709048 0.294602
H29   H     H_    0.953495 0.713968 0.848054 0.336250
H30   H     H_    0.943905 0.263810 0.709049 0.294602
H31   H     H_    0.715766 0.812674 0.074804 0.369741
H32   H     H_    0.637457 0.338439 0.022039 0.351107
H33   H     H_    0.215767 0.312675 0.074802 0.369744
H34   H     H_    0.164046 0.499777 0.738684 0.238515
H35   H     H_    0.137463 0.838422 0.022058 0.351112
H36   H     H_    0.529287 0.701983 0.372320 0.147398
H37   H     H_    0.616745 0.631319 0.317741 0.140724
H38   H     H_    0.546901 0.678635 0.191440 0.194489
H39   H     H_    0.752158 0.131668 0.191000 0.133254
H40   H     H_    0.654149 0.148827 0.083509 0.173160
H41   H     H_    0.739298 0.222621 0.087544 0.174379
H42   H     H_    0.029286 0.201997 0.372314 0.147403
H43   H     H_    0.116739 0.131327 0.317736 0.140718
H44   H     H_    0.046900 0.178648 0.191434 0.194490
H45   H     H_    0.340963 0.263717 0.971941 0.194520
H46   H     H_    0.252164 0.631663 0.191000 0.133262
H47   H     H_    0.154158 0.648825 0.083503 0.173163
H48   H     H_    0.239309 0.722616 0.087544 0.174372
H49   H     H_    0.821853 0.013032 0.323476 0.168147
H50   H     H_    0.781973 0.904769 0.298745 0.200658
H51   H     H_    0.754006 0.965028 0.447075 0.119864
H52   H     H_    0.321853 0.513033 0.323475 0.168144
H53   H     H_    0.281974 0.404769 0.298748 0.200661
H54   H     H_    0.254006 0.465031 0.447076 0.119863
H55   H     H_    0.949494 0.044583 0.122308 0.176207
H56   H     H_    0.286506 0.834936 0.959870 0.185292
H57   H     H_    0.863798 0.095856 0.024609 0.135406
H58   H     H_    0.930851 0.013010 0.948198 0.193802
H59   H     H_    0.449496 0.544575 0.122306 0.176206
H60   H     H_    0.363802 0.595850 0.024605 0.135409
H61   H     H_    0.430853 0.513000 0.948198 0.193803
H62   H     H_    0.840963 0.763718 0.971941 0.194518
H63   H     H_    0.786505 0.334938 0.959870 0.185299
H64   H     H_    0.593486 0.800304 0.768929 0.208639
N1    N     N_R   0.501200 0.000000 0.147910 -0.187522
N2    N     N_R   0.001200 0.500000 0.147910 -0.187525
N3    N     N_R   0.501270 0.000000 0.852040 -0.209025
N4    N     N_R   0.001270 0.500000 0.852040 -0.209025
O1    O     O_R   0.409820 0.909830 0.618810 -0.508138
O2    O     O_R   0.590170 0.909830 0.618760 -0.626376
O3    O     O_R   0.090170 0.590170 0.618760 -0.634573
O4    O     O_R   0.090170 0.409830 0.618760 -0.626377
O5    O     O_R   0.590190 0.090180 0.381190 -0.475477
O6    O     O_R   0.590190 0.909820 0.381190 -0.490217
O7    O     O_R   0.090190 0.590180 0.381190 -0.475474
O8    O     O_R   0.090190 0.409820 0.381190 -0.490214
O9    O     O_3   0.317832 0.206301 0.257061 -0.549909
O10   O     O_3   0.312576 0.812975 0.248620 -0.572770
O11   O     O_3   0.817831 0.706302 0.257061 -0.549912
O12   O     O_R   0.409820 0.090170 0.618810 -0.527574
O13   O     O_3   0.812571 0.312977 0.248620 -0.572768
O14   O     O_3   0.346826 0.975918 0.850447 -0.535373
O15   O     O_3   0.846826 0.475919 0.850447 -0.535373
O16   O     O_3   0.430853 0.217483 0.752079 -0.730188
O17   O     O_3   0.412663 0.791285 0.787011 -0.724357
O18   O     O_3   0.930852 0.717483 0.752079 -0.730188
O19   O     O_3   0.912662 0.291286 0.787012 -0.724353
O20   O     O_3   0.669401 0.805566 0.003292 -0.704032
O21   O     O_3   0.610130 0.302017 0.951708 -0.711375
O22   O     O_3   0.169401 0.305566 0.003291 -0.704032
O23   O     O_R   0.909820 0.409830 0.618810 -0.508140
O24   O     O_3   0.110130 0.802015 0.951708 -0.711371
O25   O     O_3   0.637202 0.759563 0.275815 -0.541728
O26   O     O_3   0.656947 0.219642 0.257551 -0.536706
O27   O     O_3   0.137207 0.259568 0.275812 -0.541726
O28   O     O_3   0.156954 0.719639 0.257547 -0.536710
O29   O     O_3   0.687634 0.001214 0.270965 -0.556136
O30   O     O_3   0.187633 0.501214 0.270965 -0.556135
O31   O     O_3   0.838111 0.972485 0.093138 -0.581909
O32   O     O_3   0.338111 0.472480 0.093138 -0.581908
O33   O     O_R   0.909820 0.590170 0.618810 -0.527572
O34   O     O_R   0.409840 0.909830 0.381240 -0.561375
O35   O     O_R   0.409840 0.090170 0.381240 -0.555122
O36   O     O_R   0.909840 0.409830 0.381240 -0.561375
O37   O     O_R   0.909840 0.590170 0.381240 -0.555124
O38   O     O_R   0.590170 0.090170 0.618760 -0.634574

loop_
_geom_bond_atom_site_label_1
_geom_bond_atom_site_label_2
_ccdc_geom_bond_type
C44   C49   A    
C77   O13   S    
C28   O4    A    
C73   H49   S    
C33   C55   A    
C22   C29   A    
C25   O5    A    
C66   H20   S    
C36   C42   A    
C11   O31   S    
C65   H19   S    
C4    C8    A    
C15   H12   S    
C40   O20   S    
C72   H47   S    
C39   C41   A    
Cu2   N4    S    
C41   O21   S    
C39   H63   S    
Cu3   O6    S    
C72   H46   S    
C47   H3    S    
C19   C21   A    
Cu2   O23   S    
C3    C7    A    
C75   H58   S    
C1    C59   S    
Cu4   O8    S    
C43   O24   S    
C30   N4    A    
C6    C25   S    
C62   H7    S    
C63   H13   S    
C69   H36   S    
C19   N4    A    
Cu2   O33   S    
Cu3   O35   S    
C57   C61   A    
C70   H40   S    
C2    O26   S    
C26   O6    A    
C70   H41   S    
C60   C67   A    
C61   C77   A    
Cu3   N1    S    
C74   H54   S    
C63   H10   S    
C44   H64   S    
C41   C46   A    
C71   H44   S    
C68   H25   S    
C72   O28   S    
C18   N3    A    
C43   C48   A    
C8    C52   A    
C40   C44   A    
C18   C20   A    
C9    O29   S    
Cu1   N3    S    
C12   C58   S    
C68   O15   S    
C64   H16   S    
C73   H50   S    
C55   C60   A    
C74   H53   S    
C34   C60   S    
C29   O14   S    
C5    C49   A    
C2    C6    A    
C67   C78   A    
C68   H24   S    
C14   H1    S    
C76   O32   S    
C32   C54   A    
C1    O34   A    
C52   C54   A    
C54   C59   A    
C10   C21   A    
H32   O21   S    
C45   C58   A    
Cu1   O38   S    
C21   N2    A    
C66   H22   S    
C71   H42   S    
Cu2   O3    S    
C65   H17   S    
Cu2   Cu4   S    
C75   H55   S    
Cu1   Cu3   S    
Cu4   O7    S    
C64   O11   S    
C47   C51   A    
C49   C55   A    
C29   N3    A    
C3    C45   A    
C6    C50   A    
C7    C28   S    
C51   C53   A    
C37   C43   A    
C35   C39   A    
C25   O38   A    
C9    C11   A    
H28   O17   S    
C67   O11   S    
C9    C20   A    
H30   O19   S    
C31   O16   S    
C23   C61   S    
C62   H9    S    
C65   O13   S    
C28   O8    A    
C20   N1    A    
C66   O14   S    
C34   O33   A    
C32   C37   A    
C31   C53   A    
Cu2   O4    S    
C24   H6    S    
C64   H14   S    
C42   O22   S    
C16   H23   S    
C46   H2    S    
C27   O3    A    
C73   H51   S    
C37   H56   S    
C13   C15   A    
C24   N2    A    
C78   O25   S    
C35   O19   S    
C14   C16   A    
C33   O18   S    
Cu1   O12   S    
C17   C19   A    
C75   O31   S    
Cu1   O1    S    
C15   C17   A    
C46   C50   A    
C64   H15   S    
C31   C36   A    
C50   C57   A    
C38   H62   S    
C66   H21   S    
C30   O15   S    
C4    O28   S    
H33   O22   S    
C65   H18   S    
C10   C13   A    
C22   H5    S    
C74   H52   S    
C23   O36   A    
Cu4   N2    S    
C53   C58   A    
C72   H48   S    
H31   O20   S    
C23   O23   A    
C27   O7    A    
C69   O25   S    
C63   H11   S    
C69   H38   S    
C63   O10   S    
C33   C38   A    
Cu3   O5    S    
C56   C59   A    
Cu4   O37   S    
C35   C57   A    
C10   O30   S    
C45   O9    S    
Cu4   O36   S    
C26   O2    A    
C3    O27   S    
C7    C51   A    
C56   O10   S    
C2    C77   A    
C75   H57   S    
C76   H59   S    
C38   C40   A    
C70   H39   S    
C71   O27   S    
C12   O35   A    
C62   H8    S    
C11   C14   A    
C69   H37   S    
C1    O1    A    
C48   H4    S    
C42   C47   A    
C34   O37   A    
C24   C30   A    
H27   O16   S    
C12   O12   A    
C5    C26   S    
C73   O29   S    
C76   H61   S    
C48   C52   A    
C74   O30   S    
C22   N1    A    
C16   C18   A    
C13   O32   S    
C32   O17   S    
C36   H45   S    
C8    C27   S    
C62   O9    S    
C71   H43   S    
H29   O18   S    
C68   H26   S    
Cu3   O34   S    
C5    C78   A    
C70   O26   S    
H35   O24   S    
C4    C56   A    
C17   H34   S    
Cu1   O2    S    
C76   H60   S    
