data_mof_unit_31498.cif
_audit_creation_date              2012-12-11T14:03:59-0500
_audit_creation_method            fapswitch 2.2
_symmetry_space_group_name_H-M    P1
_symmetry_Int_Tables_number       1
_space_group_crystal_system       triclinic
_cell_length_a                    18.90716
_cell_length_b                    11.172074
_cell_length_c                    18.721208
_cell_angle_alpha                 90.089321
_cell_angle_beta                  89.363034
_cell_angle_gamma                 90.395221
_cell_volume                      3954.17898936

loop_
_atom_site_label
_atom_site_type_symbol
_atom_type_description
_atom_site_fract_x
_atom_site_fract_y
_atom_site_fract_z
_atom_type_partial_charge
C1    C     C_R   0.226950 0.514116 0.637770 0.562556
C2    C     C_R   0.760192 0.468545 0.353688 0.558315
C3    C     C_R   0.726950 0.014116 0.637770 0.562556
C4    C     C_R   0.260192 0.968545 0.353688 0.558315
C5    C     C_2   0.290098 0.844490 0.536315 -0.170955
C6    C     C_2   0.694776 0.886092 0.454420 -0.168866
C7    C     C_2   0.790098 0.344490 0.536315 -0.170954
C8    C     C_2   0.194776 0.386093 0.454420 -0.168866
C9    C     C_R   0.005245 0.665554 0.425750 -0.028543
C10   C     C_R   0.991405 0.666183 0.576590 -0.026716
C11   C     C_R   0.505244 0.165554 0.425750 -0.028543
C12   C     C_R   0.491404 0.166183 0.576590 -0.026716
C13   C     C_R   0.010702 0.884631 0.427596 -0.121942
C14   C     C_R   0.987572 0.884841 0.574821 -0.111643
C15   C     C_R   0.510702 0.384631 0.427596 -0.121942
C16   C     C_R   0.487571 0.384840 0.574821 -0.111643
C17   C     C_R   0.998389 0.991024 0.463381 0.048479
C18   C     C_R   0.996555 0.991665 0.538486 0.050636
C19   C     C_R   0.498389 0.491024 0.463382 0.048479
C20   C     C_R   0.496554 0.491665 0.538486 0.050636
C21   C     C_R   0.994023 0.775329 0.538877 -0.003511
C22   C     C_R   0.004065 0.775102 0.463451 -0.008943
C23   C     C_R   0.494023 0.275329 0.538877 -0.003511
C24   C     C_R   0.504065 0.275102 0.463452 -0.008943
C25   C     C_R   0.984311 0.561067 0.536978 0.012830
C26   C     C_R   0.007967 0.559934 0.465826 0.014104
C27   C     C_R   0.484310 0.061067 0.536978 0.012830
C28   C     C_R   0.507967 0.059934 0.465826 0.014104
C29   C     C_R   0.959168 0.454562 0.567669 -0.096143
C30   C     C_R   0.029178 0.451039 0.435820 -0.105562
C31   C     C_R   0.459167 0.954562 0.567669 -0.096143
C32   C     C_R   0.529178 0.951039 0.435821 -0.105563
C33   C     C_R   0.970938 0.347264 0.532727 -0.064260
C34   C     C_R   0.012741 0.345419 0.470654 -0.069130
C35   C     C_R   0.470939 0.847264 0.532727 -0.064259
C36   C     C_R   0.512741 0.845419 0.470654 -0.069130
C37   C     C_2   0.238858 0.893361 0.928417 -0.110212
C38   C     C_2   0.775241 0.861798 0.067344 -0.108222
C39   C     C_2   0.738859 0.393364 0.928416 -0.110209
C40   C     C_2   0.275241 0.361796 0.067344 -0.108224
C41   C     C_2   0.246093 0.884801 0.089858 0.019316
C42   C     C_2   0.753064 0.884577 0.909721 0.019724
C43   C     C_2   0.746093 0.384802 0.089858 0.019316
C44   C     C_2   0.253066 0.384577 0.909720 0.019725
C45   C     C_R   0.227876 0.874401 0.647918 0.552403
C46   C     C_R   0.771070 0.878078 0.350024 0.572981
C47   C     C_R   0.727876 0.374401 0.647918 0.552403
C48   C     C_R   0.271070 0.378078 0.350024 0.572981
C49   C     C_2   0.190864 0.911607 0.048599 -0.147578
C50   C     C_2   0.813593 0.901520 0.945881 -0.137620
C51   C     C_2   0.690865 0.411609 0.048598 -0.147579
C52   C     C_2   0.313594 0.401526 0.945883 -0.137618
C53   C     C_2   0.185780 0.872190 0.975009 -0.160740
C54   C     C_2   0.825593 0.855237 0.017228 -0.181352
C55   C     C_2   0.685781 0.372193 0.975008 -0.160740
C56   C     C_2   0.325595 0.355243 0.017229 -0.181352
C57   C     C_2   0.982576 0.663263 0.912762 -0.114267
C58   C     C_2   0.960532 0.652622 0.067353 -0.113264
C59   C     C_2   0.482575 0.163263 0.912762 -0.114267
C60   C     C_2   0.460531 0.152622 0.067353 -0.113263
C61   C     C_2   0.935114 0.570531 0.021932 -0.175952
C62   C     C_2   0.958562 0.565863 0.947236 -0.159248
C63   C     C_2   0.435113 0.070532 0.021932 -0.175951
C64   C     C_2   0.458561 0.065863 0.947236 -0.159248
C65   C     C_R   0.026884 0.655260 0.646851 0.522270
C66   C     C_R   0.972485 0.655530 0.353829 0.543435
C67   C     C_R   0.526884 0.155260 0.646851 0.522269
C68   C     C_R   0.472485 0.155530 0.353829 0.543434
C69   C     C_R   0.239307 0.462655 0.849171 0.565018
C70   C     C_R   0.760351 0.462205 0.151070 0.539431
C71   C     C_R   0.739306 0.962655 0.849171 0.565018
C72   C     C_R   0.260350 0.962205 0.151070 0.539430
C73   C     C_R   0.225998 0.869439 0.854299 0.548038
C74   C     C_R   0.790882 0.829212 0.139205 0.544841
C75   C     C_R   0.725998 0.369440 0.854299 0.548037
C76   C     C_R   0.290882 0.329211 0.139205 0.544841
C77   C     C_R   0.027165 0.652213 0.849301 0.546196
C78   C     C_R   0.940002 0.647475 0.141815 0.546840
C79   C     C_R   0.527165 0.152213 0.849301 0.546195
C80   C     C_R   0.440001 0.147476 0.141815 0.546841
C81   C     C_2   0.250833 0.916299 0.578147 -0.117495
C82   C     C_2   0.742620 0.939452 0.411860 -0.119894
C83   C     C_2   0.750833 0.416299 0.578147 -0.117494
C84   C     C_2   0.242620 0.439452 0.411860 -0.119894
C85   C     C_2   0.245781 0.911252 0.421805 -0.118344
C86   C     C_2   0.736769 0.974300 0.564867 -0.110097
C87   C     C_2   0.745781 0.411252 0.421805 -0.118345
C88   C     C_2   0.236769 0.474300 0.564867 -0.110097
C89   C     C_2   0.299282 0.869028 0.460443 -0.134079
C90   C     C_2   0.683066 0.928581 0.527369 -0.141660
C91   C     C_2   0.799282 0.369028 0.460443 -0.134079
C92   C     C_2   0.183066 0.428581 0.527369 -0.141660
Cr1   Cr    Cr6+3 0.113970 0.508630 0.747920 1.022251
Cr2   Cr    Cr6+3 0.886030 0.508630 0.252080 1.013806
Cr3   Cr    Cr6+3 0.613970 0.008630 0.747920 1.022251
Cr4   Cr    Cr6+3 0.386030 0.008630 0.252080 1.013806
Cr5   Cr    Cr6+3 0.269200 0.666740 0.749850 1.003896
Cr6   Cr    Cr6+3 0.730800 0.666740 0.250150 1.008603
Cr7   Cr    Cr6+3 0.769200 0.166740 0.749850 1.003896
Cr8   Cr    Cr6+3 0.230800 0.166740 0.250150 1.008603
Cr9   Cr    Cr6+3 0.112300 0.820070 0.749800 1.012099
Cr10  Cr    Cr6+3 0.887700 0.820070 0.250200 1.012647
Cr11  Cr    Cr6+3 0.612300 0.320070 0.749800 1.012099
Cr12  Cr    Cr6+3 0.387700 0.320070 0.250200 1.012646
H1    H     H_    0.351576 0.856851 0.437196 0.205912
H2    H     H_    0.631632 0.913748 0.552221 0.195031
H3    H     H_    0.851576 0.356851 0.437196 0.205912
H4    H     H_    0.131632 0.413748 0.552221 0.195031
H5    H     H_    0.134447 0.840812 0.956836 0.147899
H6    H     H_    0.878827 0.830147 0.031101 0.126366
H7    H     H_    0.634448 0.340814 0.956836 0.147899
H8    H     H_    0.378831 0.330163 0.031103 0.126367
H9    H     H_    0.289520 0.930475 0.944296 0.083341
H10   H     H_    0.724770 0.903578 0.057737 0.113327
H11   H     H_    0.789520 0.430479 0.944295 0.083341
H12   H     H_    0.224768 0.403568 0.057736 0.113329
H13   H     H_    0.901397 0.498273 0.041545 0.133320
H14   H     H_    0.961470 0.477918 0.922591 0.151629
H15   H     H_    0.401396 0.998273 0.041544 0.133319
H16   H     H_    0.461469 0.977918 0.922590 0.151628
H17   H     H_    0.995928 0.724111 0.050125 0.101530
H18   H     H_    0.975580 0.752160 0.935169 0.093672
H19   H     H_    0.495926 0.224112 0.050125 0.101529
H20   H     H_    0.475580 0.252160 0.935169 0.093673
H21   H     H_    0.314942 0.764702 0.557258 0.167708
H22   H     H_    0.667745 0.804621 0.438055 0.168225
H23   H     H_    0.814942 0.264702 0.557258 0.167708
H24   H     H_    0.167745 0.304621 0.438055 0.168226
H25   H     H_    0.193022 0.919514 0.444963 0.120659
H26   H     H_    0.789516 0.982945 0.541655 0.132548
H27   H     H_    0.693022 0.419515 0.444963 0.120659
H28   H     H_    0.289516 0.482945 0.541655 0.132548
H29   H     H_    0.226940 0.996804 0.556908 0.144797
H30   H     H_    0.768061 0.022849 0.427503 0.145351
H31   H     H_    0.726940 0.496804 0.556908 0.144797
H32   H     H_    0.268061 0.522849 0.427503 0.145351
H33   H     H_    0.022052 0.889006 0.370925 0.122762
H34   H     H_    0.976905 0.889017 0.631655 0.124591
H35   H     H_    0.522052 0.389006 0.370925 0.122762
H36   H     H_    0.476904 0.389016 0.631656 0.124590
H37   H     H_    0.057536 0.447698 0.385234 0.130910
H38   H     H_    0.932094 0.454366 0.619003 0.126405
H39   H     H_    0.557536 0.947698 0.385234 0.130911
H40   H     H_    0.432094 0.954366 0.619003 0.126405
H41   H     H_    0.948995 0.267090 0.555621 0.150701
H42   H     H_    0.032817 0.264187 0.448310 0.157151
H43   H     H_    0.448995 0.767090 0.555621 0.150701
H44   H     H_    0.532817 0.764187 0.448311 0.157150
H45   H     H_    0.151717 0.976686 0.065675 0.143333
H46   H     H_    0.855079 0.959706 0.924829 0.140097
H47   H     H_    0.651718 0.476687 0.065675 0.143333
H48   H     H_    0.355078 0.459720 0.924832 0.140097
O1    O     O_R   0.043230 0.549300 0.667990 -0.522516
O2    O     O_R   0.956770 0.549300 0.332010 -0.508826
O3    O     O_R   0.543230 0.049300 0.667990 -0.522516
O4    O     O_R   0.456770 0.049300 0.332010 -0.508825
O5    O     O_R   0.262920 0.788600 0.824420 -0.495235
O6    O     O_R   0.737080 0.788600 0.175580 -0.497431
O7    O     O_R   0.762920 0.288600 0.824420 -0.495234
O8    O     O_R   0.237080 0.288600 0.175580 -0.497432
O9    O     O_R   0.167530 0.905110 0.830340 -0.516485
O10   O     O_R   0.832470 0.905110 0.169660 -0.517186
O11   O     O_R   0.667530 0.405110 0.830340 -0.516485
O12   O     O_R   0.332470 0.405110 0.169660 -0.517187
O13   O     O_R   0.054010 0.748440 0.822860 -0.505814
O14   O     O_R   0.945990 0.748440 0.177140 -0.515232
O15   O     O_R   0.554010 0.248440 0.822860 -0.505814
O16   O     O_R   0.445990 0.248440 0.177140 -0.515233
O17   O     O_3   0.165160 0.665150 0.749190 -0.264890
O18   O     O_3   0.834840 0.665150 0.250810 -0.282710
O19   O     O_3   0.665160 0.165150 0.749190 -0.264890
O20   O     O_3   0.334840 0.165150 0.250810 -0.282710
O21   O     O_R   0.178620 0.457600 0.674100 -0.478397
O22   O     O_R   0.821380 0.457600 0.325900 -0.487142
O23   O     O_R   0.678620 0.957600 0.674100 -0.478397
O24   O     O_R   0.321380 0.957600 0.325900 -0.487142
O25   O     O_R   0.284680 0.542100 0.669460 -0.524815
O26   O     O_R   0.715320 0.542100 0.330540 -0.518148
O27   O     O_R   0.784680 0.042100 0.669460 -0.524815
O28   O     O_R   0.215320 0.042100 0.330540 -0.518148
O29   O     O_R   0.262860 0.790390 0.676650 -0.521815
O30   O     O_R   0.737140 0.790390 0.323350 -0.497189
O31   O     O_R   0.762860 0.290390 0.676650 -0.521815
O32   O     O_R   0.237140 0.290390 0.323350 -0.497189
O33   O     O_R   0.167460 0.907030 0.670940 -0.489438
O34   O     O_R   0.832540 0.907030 0.329060 -0.491685
O35   O     O_R   0.667460 0.407030 0.670940 -0.489438
O36   O     O_R   0.332540 0.407030 0.329060 -0.491685
O37   O     O_R   0.053950 0.750220 0.675100 -0.507963
O38   O     O_R   0.946050 0.750220 0.324900 -0.500497
O39   O     O_R   0.553950 0.250220 0.675100 -0.507962
O40   O     O_R   0.446050 0.250220 0.324900 -0.500497
O41   O     O_R   0.043300 0.547370 0.827390 -0.515520
O42   O     O_R   0.956700 0.547370 0.172610 -0.498518
O43   O     O_R   0.543300 0.047370 0.827390 -0.515521
O44   O     O_R   0.456700 0.047370 0.172610 -0.498518
O45   O     O_R   0.178690 0.455820 0.821860 -0.502123
O46   O     O_R   0.821310 0.455820 0.178140 -0.526993
O47   O     O_R   0.678690 0.955820 0.821860 -0.502124
O48   O     O_R   0.321310 0.955820 0.178140 -0.526993
O49   O     O_R   0.284750 0.540170 0.828860 -0.521810
O50   O     O_R   0.715250 0.540170 0.171140 -0.528327
O51   O     O_R   0.784750 0.040170 0.828860 -0.521808
O52   O     O_R   0.215250 0.040170 0.171140 -0.528327
C93   C     C_3   0.296703 0.782280 0.073009 -0.272055
C94   C     C_3   0.259248 0.661595 0.075853 -0.419876
H49   H     H_    0.233386 0.647900 0.128817 0.168352
H50   H     H_    0.219333 0.653306 0.033075 0.161973
H51   H     H_    0.299719 0.591878 0.067604 0.164156
H52   H     H_    0.323215 0.793126 0.020481 0.134891
H53   H     H_    0.340299 0.778538 0.112147 0.164021
C95   C     C_3   0.696702 0.790654 0.929158 -0.266999
C96   C     C_3   0.726159 0.665303 0.928823 -0.428991
H54   H     H_    0.754110 0.646655 0.877522 0.161576
H55   H     H_    0.762468 0.651048 0.974104 0.163937
H56   H     H_    0.680539 0.603308 0.934540 0.156933
H57   H     H_    0.669434 0.808625 0.980364 0.132669
H58   H     H_    0.653021 0.789464 0.890074 0.166927
C97   C     C_3   0.796704 0.282282 0.073008 -0.272054
C98   C     C_3   0.759249 0.161597 0.075850 -0.419877
H59   H     H_    0.733388 0.147899 0.128814 0.168351
H60   H     H_    0.719334 0.153309 0.033072 0.161973
H61   H     H_    0.799721 0.091881 0.067599 0.164154
H62   H     H_    0.823216 0.293130 0.020480 0.134892
H63   H     H_    0.840300 0.278540 0.112145 0.164021
C99   C     C_3   0.196707 0.290646 0.929155 -0.266998
C100  C     C_3   0.226170 0.165299 0.928820 -0.428992
H64   H     H_    0.254123 0.146654 0.877520 0.161574
H65   H     H_    0.262479 0.151048 0.974101 0.163937
H66   H     H_    0.180553 0.103299 0.934537 0.156936
H67   H     H_    0.169436 0.308613 0.980359 0.132667
H68   H     H_    0.153028 0.289451 0.890068 0.166925
C101  C     C_2   0.965743 0.085643 0.420845 0.214037
H69   H     H_    0.984332 0.103270 0.366764 0.091472
O53   O     O_2   0.914005 0.138656 0.443726 -0.563484
C102  C     C_2   0.022799 0.092919 0.580867 0.216928
H70   H     H_    0.000335 0.110884 0.633397 0.087907
O54   O     O_2   0.073946 0.151024 0.560229 -0.539411
C103  C     C_2   0.465743 0.585644 0.420845 0.214037
H71   H     H_    0.484333 0.603271 0.366764 0.091470
O55   O     O_2   0.414005 0.638657 0.443725 -0.563483
C104  C     C_2   0.522798 0.592919 0.580868 0.216928
H72   H     H_    0.500334 0.610883 0.633397 0.087907
O56   O     O_2   0.573945 0.651024 0.560229 -0.539411

loop_
_geom_bond_atom_site_label_1
_geom_bond_atom_site_label_2
_ccdc_geom_bond_type
Cr10  O18   S    
C7    C83   D    
C15   C19   A    
C69   O49   A    
Cr1   O21   S    
C6    C82   D    
C87   C91   D    
Cr8   O20   S    
Cr8   O52   S    
C14   C18   A    
C18   C102  S    
C35   C36   A    
C30   C34   A    
C45   O33   A    
C45   C81   S    
C98   H60   S    
C56   H8    S    
Cr5   O17   S    
C57   C62   D    
C40   H12   S    
C93   C94   S    
C11   C68   S    
C71   O51   A    
C12   C23   A    
Cr1   O17   S    
C59   C64   D    
C50   C54   S    
C30   H37   S    
C60   C63   D    
C32   C36   A    
C14   C21   A    
C67   O3    A    
C103  H71   S    
C48   O36   A    
Cr7   O7    S    
Cr3   O19   S    
C38   H10   S    
C67   O39   A    
C9    C22   A    
C10   C65   S    
Cr7   O19   S    
C95   H57   S    
C68   O40   A    
C77   O13   A    
C99   H67   S    
Cr12  O40   S    
C73   O5    A    
C11   C24   A    
C79   O43   A    
C102  H70   S    
C54   H6    S    
C75   O11   A    
C78   O42   A    
C87   H27   S    
C31   H40   S    
Cr3   O23   S    
C9    C66   S    
C32   H39   S    
C65   O1    A    
C85   H25   S    
C97   H62   S    
C46   C82   S    
C1    O25   A    
C36   H44   S    
C39   C55   D    
C14   H34   S    
C29   C33   A    
C40   C56   D    
Cr11  O19   S    
C84   H32   S    
C17   C18   A    
Cr6   O6    S    
C73   O9    A    
C23   C24   A    
Cr9   O17   S    
C8    C92   S    
C39   C75   S    
Cr6   O26   S    
C101  H69   S    
Cr7   O31   S    
C2    O22   A    
C52   H48   S    
C72   O52   A    
C37   C53   D    
C44   C52   D    
C1    C88   S    
C57   H18   S    
C48   O32   A    
C70   O46   A    
C8    C84   D    
C21   C22   A    
C63   C64   S    
C3    C86   S    
C69   O45   A    
C16   H36   S    
C58   C78   S    
C4    O28   A    
Cr9   O33   S    
C1    O21   A    
C41   C49   D    
C98   H59   S    
C3    O27   A    
C92   H4    S    
C9    C26   A    
C33   C34   A    
C15   H35   S    
Cr2   O22   S    
C96   H55   S    
C10   C21   A    
C25   C29   A    
C80   O44   A    
C12   C67   S    
C43   C97   S    
C78   O14   A    
C76   O8    A    
C99   C100  S    
C74   O6    A    
C12   C27   A    
C45   O29   A    
C88   C92   D    
C28   C32   A    
Cr11  O35   S    
C90   H2    S    
C47   O31   A    
C86   C90   D    
C59   C79   S    
C97   C98   S    
C74   O10   A    
C85   C89   D    
C94   H49   S    
C86   H26   S    
C35   H43   S    
C4    C85   S    
C25   C26   A    
C96   H54   S    
C27   C31   A    
C70   O50   A    
C46   O34   A    
C40   C76   S    
Cr11  O11   S    
Cr2   O46   S    
Cr5   O5    S    
C82   H30   S    
C60   H19   S    
Cr1   O45   S    
Cr7   O27   S    
C19   C103  S    
C72   O48   A    
C8    H24   S    
C50   H46   S    
Cr5   O25   S    
C100  H64   S    
C38   C54   D    
C16   C20   A    
C7    C91   S    
C104  H72   S    
C2    C87   S    
C103  O55   D    
Cr10  O34   S    
Cr11  O15   S    
C97   H63   S    
Cr5   O29   S    
C101  O53   D    
C6    H22   S    
Cr10  O14   S    
C33   H41   S    
C49   H45   S    
C42   C50   D    
C41   C72   S    
C10   C25   A    
C3    O23   A    
C15   C24   A    
C100  H65   S    
C65   O37   A    
C26   C30   A    
C43   C70   S    
C39   H11   S    
Cr7   O51   S    
C4    O24   A    
C104  O56   D    
C31   C35   A    
C76   O12   A    
Cr11  O39   S    
C88   H28   S    
C47   O35   A    
C99   H68   S    
Cr8   O28   S    
Cr12  O36   S    
Cr12  O20   S    
C42   C95   S    
Cr10  O10   S    
C66   O2    A    
C38   C74   S    
C96   H56   S    
C75   O7    A    
C59   H20   S    
Cr4   O48   S    
C37   C73   S    
C60   C80   S    
C58   H17   S    
Cr3   O43   S    
Cr4   O24   S    
C55   H7    S    
C77   O41   A    
Cr2   O42   S    
C83   H31   S    
C81   H29   S    
Cr6   O50   S    
Cr1   O41   S    
Cr5   O49   S    
Cr8   O8    S    
C68   O4    A    
Cr12  O12   S    
Cr12  O16   S    
C71   O47   A    
C17   C101  S    
Cr6   O30   S    
C16   C23   A    
Cr9   O37   S    
C64   H16   S    
C13   C17   A    
C79   O15   A    
C89   H1    S    
C46   O30   A    
C19   C20   A    
Cr9   O9    S    
C20   C104  S    
C61   H13   S    
C6    C90   S    
Cr9   O13   S    
Cr2   O2    S    
C34   H42   S    
C94   H51   S    
C43   C51   D    
Cr4   O4    S    
C95   H58   S    
C11   C28   A    
C58   C61   D    
C49   C53   S    
C29   H38   S    
C66   O38   A    
Cr1   O1    S    
C42   C71   S    
Cr10  O38   S    
C102  O54   D    
C13   C22   A    
C51   C55   S    
Cr3   O3    S    
C93   H53   S    
C41   C93   S    
C61   C62   S    
Cr8   O32   S    
C5    C89   S    
C62   H14   S    
C93   H52   S    
C51   H47   S    
C47   C83   S    
Cr6   O18   S    
C48   C84   S    
C5    C81   D    
Cr4   O44   S    
C100  H66   S    
C37   H9    S    
C95   C96   S    
Cr3   O47   S    
C63   H15   S    
Cr4   O20   S    
C5    H21   S    
C27   C28   A    
C44   C69   S    
C57   C77   S    
C53   H5    S    
C2    O26   A    
C7    H23   S    
C94   H50   S    
C44   C99   S    
C80   O16   A    
C98   H61   S    
Cr2   O18   S    
C52   C56   S    
C13   H33   S    
C91   H3    S    
