data_mof_unit_39381.cif
_audit_creation_date              2012-12-11T15:12:10-0500
_audit_creation_method            fapswitch 2.2
_symmetry_space_group_name_H-M    P1
_symmetry_Int_Tables_number       1
_space_group_crystal_system       triclinic
_cell_length_a                    31.321999
_cell_length_b                    23.009458
_cell_length_c                    18.068338
_cell_angle_alpha                 89.988916
_cell_angle_beta                  124.258059
_cell_angle_gamma                 90.017974
_cell_volume                      10762.7304002

loop_
_atom_site_label
_atom_site_type_symbol
_atom_type_description
_atom_site_fract_x
_atom_site_fract_y
_atom_site_fract_z
_atom_type_partial_charge
C1    C     C_R   0.533021 0.609819 0.704309 -0.176227
C2    C     C_R   0.239345 0.659938 0.465977 0.060434
C3    C     C_R   0.328457 0.268979 0.002225 -0.098823
C4    C     C_R   0.860614 0.301336 0.128964 -0.168943
C5    C     C_R   0.169286 0.762411 0.988941 -0.096401
C6    C     C_R   0.137696 0.301490 0.872493 -0.124864
C7    C     C_R   0.828456 0.768980 0.002223 -0.098823
C8    C     C_R   0.277341 0.766644 0.094816 -0.052847
C9    C     C_R   0.750448 0.308841 0.027746 -0.112624
C10   C     C_R   0.720533 0.770667 0.901406 -0.097071
C11   C     C_R   0.247489 0.312190 0.969557 -0.080068
C12   C     C_R   0.777349 0.266665 0.094845 -0.052845
C13   C     C_R   0.271699 0.320126 0.537264 0.066909
C14   C     C_R   0.250439 0.808822 0.027721 -0.112626
C15   C     C_R   0.220534 0.270666 0.901408 -0.097070
C16   C     C_R   0.747488 0.812191 0.969555 -0.080068
C17   C     C_R   0.779384 0.343963 0.005889 0.378282
C18   C     C_R   0.251272 0.734221 0.124273 0.456121
C19   C     C_R   0.218855 0.344982 0.994570 0.371095
C20   C     C_R   0.745847 0.740956 0.868126 0.393231
C21   C     C_R   0.279374 0.843948 0.005868 0.378289
C22   C     C_R   0.751280 0.234249 0.124310 0.456120
C23   C     C_R   0.718854 0.844982 0.994568 0.371094
C24   C     C_R   0.761137 0.660512 0.536757 0.061008
C25   C     C_R   0.245848 0.240955 0.868128 0.393229
C26   C     C_R   0.834193 0.346641 0.065711 0.381531
C27   C     C_R   0.197098 0.728374 0.067593 0.380962
C28   C     C_R   0.163866 0.346323 0.936796 0.380678
C29   C     C_R   0.800168 0.736436 0.922084 0.382566
C30   C     C_R   0.334183 0.846631 0.065693 0.381529
C31   C     C_R   0.697106 0.228406 0.067634 0.380952
C32   C     C_R   0.663865 0.846324 0.936794 0.380678
C33   C     C_R   0.300169 0.236434 0.922086 0.382567
C34   C     C_R   0.594610 0.582117 0.424980 0.207373
C35   C     C_R   0.227149 0.819526 0.460765 0.067067
C36   C     C_R   0.409973 0.408850 0.576044 0.312956
C37   C     C_R   0.405476 0.582377 0.575014 0.206655
C38   C     C_R   0.589879 0.408558 0.423967 0.315801
C39   C     C_R   0.094611 0.082116 0.424980 0.207373
C40   C     C_R   0.909971 0.908852 0.576044 0.312956
C41   C     C_R   0.905476 0.082378 0.575014 0.206650
C42   C     C_R   0.089879 0.908558 0.423967 0.315805
C43   C     C_R   0.396137 0.609418 0.297838 -0.039009
C44   C     C_R   0.612923 0.404893 0.731182 -0.034660
C45   C     C_R   0.603636 0.609644 0.701287 0.037739
C46   C     C_R   0.739343 0.159943 0.465962 0.060436
C47   C     C_R   0.386541 0.406163 0.267250 -0.039114
C48   C     C_R   0.896138 0.109419 0.297840 -0.039027
C49   C     C_R   0.112920 0.904888 0.731176 -0.034662
C50   C     C_R   0.103636 0.109644 0.701287 0.037737
C51   C     C_R   0.886541 0.906163 0.267250 -0.039115
C52   C     C_R   0.576482 0.641654 0.726917 0.093141
C53   C     C_R   0.409233 0.382876 0.226423 0.156582
C54   C     C_R   0.423260 0.641147 0.271800 0.046433
C55   C     C_R   0.589714 0.380649 0.770545 0.159815
C56   C     C_R   0.076482 0.141654 0.726918 0.093140
C57   C     C_R   0.771695 0.820131 0.537263 0.066909
C58   C     C_R   0.909233 0.882876 0.226423 0.156582
C59   C     C_R   0.923261 0.141148 0.271803 0.046445
C60   C     C_R   0.089710 0.880641 0.770534 0.159819
C61   C     C_R   0.642140 0.597638 0.498828 -0.085425
C62   C     C_R   0.366621 0.384849 0.502793 -0.120927
C63   C     C_R   0.358007 0.598021 0.501100 -0.091592
C64   C     C_R   0.633341 0.384783 0.497312 -0.120281
C65   C     C_R   0.142141 0.097636 0.498828 -0.085427
C66   C     C_R   0.866618 0.884853 0.502793 -0.120926
C67   C     C_R   0.858007 0.098023 0.501100 -0.091585
C68   C     C_R   0.261137 0.160508 0.536751 0.061007
C69   C     C_R   0.133341 0.884783 0.497313 -0.120276
C70   C     C_R   0.646526 0.284078 0.476985 0.441505
C71   C     C_R   0.330078 0.697409 0.482085 0.428396
C72   C     C_R   0.354046 0.284506 0.525938 0.439944
C73   C     C_R   0.669014 0.697405 0.515974 0.427070
C74   C     C_R   0.146527 0.784076 0.476997 0.441503
C75   C     C_R   0.830083 0.197413 0.482092 0.428409
C76   C     C_R   0.854046 0.784510 0.525944 0.439941
C77   C     C_R   0.169016 0.197402 0.515977 0.427070
C78   C     C_R   0.664390 0.341833 0.492581 -0.117763
C79   C     C_R   0.714391 0.260323 0.456032 -0.072438
C80   C     C_R   0.323442 0.639476 0.498488 -0.110760
C81   C     C_R   0.335560 0.342024 0.507826 -0.117008
C82   C     C_R   0.676520 0.639383 0.501370 -0.110451
C83   C     C_R   0.164389 0.841831 0.492583 -0.117764
C84   C     C_R   0.823443 0.139479 0.498488 -0.110761
C85   C     C_R   0.835558 0.842029 0.507827 -0.117011
C86   C     C_R   0.176521 0.139380 0.501370 -0.110451
C87   C     C_R   0.704661 0.359955 0.485896 0.227535
C88   C     C_R   0.278545 0.620016 0.489911 0.224968
C89   C     C_R   0.294542 0.360248 0.512328 0.227747
C90   C     C_R   0.247423 0.719067 0.457259 -0.077835
C91   C     C_R   0.722038 0.620263 0.511967 0.220529
C92   C     C_R   0.204658 0.859952 0.485890 0.227537
C93   C     C_R   0.778543 0.120020 0.489902 0.224956
C94   C     C_R   0.794539 0.860252 0.512326 0.227751
C95   C     C_R   0.222038 0.120260 0.511963 0.220531
C96   C     C_3   0.451531 0.843621 0.195894 -0.690691
C97   C     C_3   0.591478 0.193373 0.913118 -0.791082
C98   C     C_3   0.546410 0.841601 0.808058 -0.691222
C99   C     C_3   0.406912 0.201142 0.071843 -0.797243
C100  C     C_3   0.951542 0.343619 0.195900 -0.690689
C101  C     C_R   0.285231 0.261025 0.544568 -0.071766
C102  C     C_3   0.091464 0.693356 0.913086 -0.791067
C103  C     C_3   0.046411 0.341601 0.808062 -0.691226
C104  C     C_3   0.906911 0.701143 0.071840 -0.797243
C105  C     C_3   0.581821 0.576178 0.332009 -0.966566
C106  C     C_3   0.418749 0.415393 0.666050 -0.971319
C107  C     C_3   0.418305 0.576683 0.668057 -0.960515
C108  C     C_3   0.580741 0.414432 0.333616 -0.971482
C109  C     C_3   0.081820 0.076177 0.332008 -0.966563
C110  C     C_3   0.918748 0.915398 0.666049 -0.971323
C111  C     C_3   0.918304 0.076684 0.668057 -0.960516
C112  C     C_R   0.458319 0.405604 0.267943 -0.053222
C113  C     C_R   0.752161 0.719710 0.543157 -0.075787
C114  C     C_3   0.080740 0.914431 0.333616 -0.971487
C115  C     C_3   0.725210 0.421292 0.508910 -1.012872
C116  C     C_3   0.273106 0.557647 0.508957 -1.012622
C117  C     C_3   0.273652 0.421358 0.487445 -1.014309
C118  C     C_3   0.728169 0.557899 0.493919 -1.008642
C119  C     C_3   0.225208 0.921288 0.508900 -1.012876
C120  C     C_3   0.773101 0.057651 0.508942 -1.012620
C121  C     C_3   0.773648 0.921362 0.487441 -1.014310
C122  C     C_3   0.228168 0.057895 0.493913 -1.008637
C123  C     C_3   0.331035 0.818010 0.414845 -0.814938
C124  C     C_R   0.214389 0.760317 0.456036 -0.072441
C125  C     C_3   0.607838 0.159518 0.429397 -0.803586
C126  C     C_3   0.665010 0.819278 0.576302 -0.809098
C127  C     C_3   0.394361 0.160926 0.580255 -0.804471
C128  C     C_3   0.831053 0.318020 0.414883 -0.814930
C129  C     C_3   0.107849 0.659511 0.429448 -0.803589
C130  C     C_3   0.165016 0.319274 0.576310 -0.809102
C131  C     C_3   0.894365 0.660933 0.580275 -0.804470
C132  C     C_R   0.747426 0.219073 0.457255 -0.077833
C133  C     C_R   0.785229 0.761030 0.544571 -0.071766
C134  C     C_R   0.252163 0.219705 0.543155 -0.075786
C135  C     C_R   0.671764 0.242292 0.458467 -0.011241
C136  C     C_R   0.290890 0.737470 0.457739 -0.011194
C137  C     C_R   0.328742 0.243030 0.544821 -0.011841
C138  C     C_R   0.707829 0.737986 0.540023 -0.012143
C139  C     C_R   0.171765 0.742287 0.458483 -0.011240
C140  C     C_R   0.466831 0.609475 0.294916 -0.155641
C141  C     C_R   0.790896 0.237476 0.457748 -0.011202
C142  C     C_R   0.828742 0.743035 0.544828 -0.011842
C143  C     C_R   0.207833 0.237982 0.540025 -0.012143
C144  C     C_R   0.763454 0.336813 0.443024 -0.233500
C145  C     C_R   0.192586 0.642232 0.452340 -0.220728
C146  C     C_R   0.234297 0.337568 0.552248 -0.230733
C147  C     C_R   0.808668 0.643067 0.553383 -0.221037
C148  C     C_R   0.263444 0.836806 0.443004 -0.233507
C149  C     C_R   0.692581 0.142238 0.452310 -0.220729
C150  C     C_R   0.734292 0.837573 0.552243 -0.230735
C151  C     C_R   0.540945 0.404048 0.730032 -0.051576
C152  C     C_R   0.308667 0.143062 0.553372 -0.221036
C153  C     C_R   0.294549 0.796268 0.438483 0.284061
C154  C     C_R   0.657826 0.182593 0.446274 0.270333
C155  C     C_R   0.703037 0.797080 0.556481 0.280187
C156  C     C_R   0.343455 0.183574 0.559828 0.270828
C157  C     C_R   0.794560 0.296276 0.438505 0.284052
C158  C     C_R   0.157832 0.682587 0.446305 0.270327
C159  C     C_R   0.203042 0.297076 0.556486 0.280187
C160  C     C_R   0.843457 0.683580 0.559840 0.270828
C161  C     C_R   0.404783 0.696360 0.222169 -0.289672
C162  C     C_R   0.033021 0.109819 0.704310 -0.176226
C163  C     C_R   0.614760 0.341733 0.847866 -0.161260
C164  C     C_R   0.594530 0.697606 0.774731 -0.214328
C165  C     C_R   0.383569 0.345573 0.147091 -0.159627
C166  C     C_R   0.904785 0.196365 0.222179 -0.289664
C167  C     C_R   0.114753 0.841720 0.847848 -0.161269
C168  C     C_R   0.094531 0.197605 0.774732 -0.214328
C169  C     C_R   0.883569 0.845574 0.147090 -0.159626
C170  C     C_R   0.415671 0.795586 0.186261 0.180501
C171  C     C_R   0.616381 0.251474 0.919875 0.142713
C172  C     C_R   0.582693 0.794998 0.815305 0.183705
C173  C     C_R   0.958319 0.905604 0.267943 -0.053221
C174  C     C_R   0.381723 0.258130 0.069264 0.141933
C175  C     C_R   0.915679 0.295589 0.186271 0.180504
C176  C     C_R   0.116370 0.751455 0.919842 0.142684
C177  C     C_R   0.082694 0.294997 0.815307 0.183706
C178  C     C_R   0.881722 0.758131 0.069262 0.141934
C179  C     C_R   0.437349 0.744475 0.238718 0.454244
C180  C     C_R   0.589359 0.291793 0.848687 0.397439
C181  C     C_R   0.561480 0.744641 0.760635 0.411342
C182  C     C_R   0.409008 0.296963 0.142451 0.398428
C183  C     C_R   0.937354 0.244476 0.238725 0.454237
C184  C     C_R   0.966831 0.109475 0.294918 -0.155632
C185  C     C_R   0.089349 0.791779 0.848660 0.397467
C186  C     C_R   0.061481 0.244641 0.760637 0.411341
C187  C     C_R   0.909007 0.796964 0.142450 0.398428
C188  C     C_R   0.351334 0.702307 0.161112 0.549972
C189  C     C_R   0.665201 0.353938 0.918637 0.528274
C190  C     C_R   0.647687 0.703807 0.835572 0.561590
C191  C     C_R   0.332645 0.357840 0.078179 0.525110
C192  C     C_R   0.851335 0.202319 0.161131 0.549964
C193  C     C_R   0.165193 0.853921 0.918621 0.528277
C194  C     C_R   0.147688 0.203806 0.835574 0.561590
C195  C     C_R   0.040942 0.904043 0.730024 -0.051587
C196  C     C_R   0.832644 0.857841 0.078178 0.525109
C197  C     C_R   0.330150 0.757470 0.131858 -0.075199
C198  C     C_R   0.695426 0.309421 0.979225 -0.179974
C199  C     C_R   0.668461 0.759144 0.867579 -0.162029
C200  C     C_R   0.302390 0.314079 0.015878 -0.180879
C201  C     C_R   0.830156 0.257484 0.131882 -0.075192
C202  C     C_R   0.195417 0.809400 0.979201 -0.179974
C203  C     C_R   0.168462 0.259143 0.867580 -0.162029
C204  C     C_R   0.802389 0.814080 0.015876 -0.180878
C205  C     C_R   0.643671 0.581788 0.573158 0.486527
C206  C     C_R   0.727154 0.319532 0.460772 0.067066
C207  C     C_R   0.361248 0.406401 0.427025 0.443406
C208  C     C_R   0.356414 0.582021 0.426775 0.494206
C209  C     C_R   0.638826 0.406572 0.573018 0.440581
C210  C     C_R   0.143671 0.081787 0.573158 0.486533
C211  C     C_R   0.861247 0.906403 0.427025 0.443406
C212  C     C_R   0.856414 0.082021 0.426775 0.494207
C213  C     C_R   0.138827 0.906572 0.573018 0.440570
C214  C     C_R   0.360606 0.801327 0.128947 -0.168943
C215  C     C_R   0.669295 0.262435 0.988974 -0.096388
C216  C     C_R   0.637695 0.801491 0.872491 -0.124864
H1    H     H_    0.504372 0.623613 0.715419 0.161964
H2    H     H_    0.652956 0.400697 0.755052 0.220463
H3    H     H_    0.887424 0.052523 0.667198 0.257458
H4    H     H_    0.954726 0.052158 0.711338 0.240621
H5    H     H_    0.117458 0.925244 0.340935 0.254220
H6    H     H_    0.065933 0.872799 0.296545 0.260371
H7    H     H_    0.053608 0.950446 0.295653 0.235293
H8    H     H_    0.602510 0.294438 0.521662 0.323333
H9    H     H_    0.404546 0.692218 0.537665 0.327519
H10   H     H_    0.398894 0.294153 0.482805 0.323670
H11   H     H_    0.594452 0.691646 0.458512 0.327593
H12   H     H_    0.102511 0.794441 0.521674 0.323332
H13   H     H_    0.638477 0.622991 0.707688 0.208661
H14   H     H_    0.904552 0.192218 0.537676 0.327519
H15   H     H_    0.898893 0.794156 0.482810 0.323670
H16   H     H_    0.094455 0.191645 0.458518 0.327593
H17   H     H_    0.709528 0.446820 0.540340 0.278349
H18   H     H_    0.767774 0.420626 0.558164 0.259970
H19   H     H_    0.715617 0.443313 0.446741 0.251513
H20   H     H_    0.309075 0.532688 0.536554 0.267000
H21   H     H_    0.263895 0.555680 0.559954 0.253220
H22   H     H_    0.241930 0.536555 0.446038 0.263074
H23   H     H_    0.290139 0.446954 0.457419 0.278830
H24   H     H_    0.346426 0.402610 0.243172 0.223584
H25   H     H_    0.231274 0.420235 0.436574 0.259880
H26   H     H_    0.282001 0.443597 0.548651 0.252585
H27   H     H_    0.691904 0.533125 0.463872 0.266658
H28   H     H_    0.738995 0.555920 0.445057 0.253216
H29   H     H_    0.758398 0.536730 0.557622 0.262736
H30   H     H_    0.209530 0.946816 0.540337 0.278348
H31   H     H_    0.267772 0.920622 0.558146 0.259970
H32   H     H_    0.215611 0.943308 0.446728 0.251513
H33   H     H_    0.809071 0.032692 0.536549 0.266998
H34   H     H_    0.763884 0.055684 0.559929 0.253222
H35   H     H_    0.860833 0.122486 0.289975 0.218147
H36   H     H_    0.741930 0.036560 0.446019 0.263075
H37   H     H_    0.790136 0.946957 0.457416 0.278829
H38   H     H_    0.731271 0.920238 0.436569 0.259880
H39   H     H_    0.781996 0.943602 0.548646 0.252585
H40   H     H_    0.191903 0.033121 0.463870 0.266658
H41   H     H_    0.238991 0.055916 0.445048 0.253216
H42   H     H_    0.258398 0.036726 0.557616 0.262735
H43   H     H_    0.320018 0.862016 0.384288 0.201210
H44   H     H_    0.370933 0.821096 0.475917 0.278219
H45   H     H_    0.329741 0.788843 0.364644 0.278050
H46   H     H_    0.152954 0.900689 0.755044 0.220463
H47   H     H_    0.601462 0.113151 0.408632 0.202642
H48   H     H_    0.608539 0.162216 0.491401 0.271727
H49   H     H_    0.574560 0.184116 0.374049 0.273211
H50   H     H_    0.674748 0.864013 0.604292 0.201381
H51   H     H_    0.625506 0.820808 0.513960 0.277140
H52   H     H_    0.665916 0.791351 0.627296 0.280819
H53   H     H_    0.401190 0.115031 0.603355 0.202838
H54   H     H_    0.394727 0.162313 0.519216 0.272053
H55   H     H_    0.426821 0.186718 0.635114 0.272012
H56   H     H_    0.820043 0.362031 0.384341 0.201208
H57   H     H_    0.138477 0.122990 0.707689 0.208661
H58   H     H_    0.870950 0.321099 0.475961 0.278220
H59   H     H_    0.829760 0.288861 0.364676 0.278055
H60   H     H_    0.101476 0.613140 0.408700 0.202642
H61   H     H_    0.108555 0.662218 0.491457 0.271726
H62   H     H_    0.074567 0.684101 0.374096 0.273216
H63   H     H_    0.174755 0.364009 0.604301 0.201381
H64   H     H_    0.125512 0.320805 0.513970 0.277140
H65   H     H_    0.165923 0.291347 0.627305 0.280821
H66   H     H_    0.901195 0.615039 0.603380 0.202837
H67   H     H_    0.894733 0.662317 0.519237 0.272055
H68   H     H_    0.846426 0.902610 0.243172 0.223583
H69   H     H_    0.926823 0.686728 0.635132 0.272009
H70   H     H_    0.838773 0.424405 0.029048 0.332720
H71   H     H_    0.193588 0.658631 0.124521 0.338123
H72   H     H_    0.158440 0.422621 0.976616 0.333595
H73   H     H_    0.803776 0.669039 0.861116 0.333839
H74   H     H_    0.338758 0.924398 0.029033 0.332721
H75   H     H_    0.693590 0.158676 0.124579 0.338107
H76   H     H_    0.658439 0.922621 0.976615 0.333594
H77   H     H_    0.303776 0.169037 0.861119 0.333840
H78   H     H_    0.769132 0.382230 0.435341 0.153861
H79   H     H_    0.183325 0.596616 0.449124 0.154041
H80   H     H_    0.227802 0.383061 0.557785 0.153383
H81   H     H_    0.482102 0.401760 0.242910 0.138020
H82   H     H_    0.818537 0.597508 0.558701 0.154242
H83   H     H_    0.269118 0.882223 0.435311 0.153862
H84   H     H_    0.683317 0.096622 0.449083 0.154042
H85   H     H_    0.727796 0.883066 0.557777 0.153384
H86   H     H_    0.318534 0.097503 0.558686 0.154242
H87   H     H_    0.710086 0.416561 0.994769 0.328205
H88   H     H_    0.338112 0.621546 0.122241 0.323317
H89   H     H_    0.286535 0.420823 0.005968 0.329649
H90   H     H_    0.710130 0.662699 0.926848 0.316410
H91   H     H_    0.210079 0.916540 0.994766 0.328197
H92   H     H_    0.495360 0.623045 0.283346 0.158838
H93   H     H_    0.838102 0.121560 0.122250 0.323315
H94   H     H_    0.786535 0.920824 0.005968 0.329650
H95   H     H_    0.210130 0.162698 0.926849 0.316409
H96   H     H_    0.519959 0.265413 0.802956 0.322215
H97   H     H_    0.496468 0.715838 0.351762 0.325869
H98   H     H_    0.478312 0.272542 0.184353 0.322078
H99   H     H_    0.502463 0.716355 0.647283 0.321935
H100  H     H_    0.019947 0.765408 0.802927 0.322208
H101  H     H_    0.996473 0.215837 0.351767 0.325865
H102  H     H_    0.978312 0.772541 0.184352 0.322078
H103  H     H_    0.516707 0.398959 0.753969 0.137554
H104  H     H_    0.002464 0.216356 0.647284 0.321935
H105  H     H_    0.492755 0.834687 0.248169 0.247261
H106  H     H_    0.448532 0.849108 0.132102 0.254773
H107  H     H_    0.441647 0.884800 0.214966 0.241296
H108  H     H_    0.560245 0.181997 0.843206 0.224612
H109  H     H_    0.619897 0.157559 0.934851 0.264008
H110  H     H_    0.575420 0.193921 0.954405 0.261586
H111  H     H_    0.505237 0.832374 0.755804 0.249239
H112  H     H_    0.549691 0.845207 0.872322 0.253986
H113  H     H_    0.555655 0.883816 0.790404 0.240584
H114  H     H_    0.004372 0.123612 0.715420 0.161963
H115  H     H_    0.438881 0.188665 0.140675 0.226389
H116  H     H_    0.378952 0.164731 0.049186 0.260039
H117  H     H_    0.422043 0.204152 0.029255 0.263306
H118  H     H_    0.992765 0.334680 0.248171 0.247261
H119  H     H_    0.948541 0.349104 0.132105 0.254772
H120  H     H_    0.941663 0.384800 0.214976 0.241295
H121  H     H_    0.060206 0.681994 0.843185 0.224592
H122  H     H_    0.119875 0.657538 0.934764 0.263991
H123  H     H_    0.075440 0.693894 0.954427 0.261640
H124  H     H_    0.005238 0.332373 0.755808 0.249238
H125  H     H_    0.982101 0.901760 0.242909 0.138019
H126  H     H_    0.049692 0.345205 0.872326 0.253987
H127  H     H_    0.055655 0.383815 0.790407 0.240586
H128  H     H_    0.938879 0.688665 0.140673 0.226388
H129  H     H_    0.878951 0.664732 0.049181 0.260039
H130  H     H_    0.922044 0.704154 0.029255 0.263303
H131  H     H_    0.779673 0.377955 0.907170 0.339865
H132  H     H_    0.257891 0.706553 0.232155 0.317756
H133  H     H_    0.219795 0.376083 0.095969 0.339469
H134  H     H_    0.737142 0.715956 0.757457 0.322904
H135  H     H_    0.279663 0.877947 0.907153 0.339865
H136  H     H_    0.995361 0.123046 0.283349 0.158843
H137  H     H_    0.757902 0.206592 0.232200 0.317747
H138  H     H_    0.719794 0.876083 0.095968 0.339469
H139  H     H_    0.237143 0.215954 0.757459 0.322906
H140  H     H_    0.716919 0.591229 0.660847 0.323100
H141  H     H_    0.292645 0.378366 0.339872 0.327789
H142  H     H_    0.283191 0.591629 0.339105 0.322714
H143  H     H_    0.707717 0.379248 0.660000 0.327717
H144  H     H_    0.216919 0.091227 0.660847 0.323100
H145  H     H_    0.792643 0.878370 0.339872 0.327788
H146  H     H_    0.783192 0.091631 0.339105 0.322717
H147  H     H_    0.016703 0.898951 0.753958 0.137561
H148  H     H_    0.207718 0.879251 0.660000 0.327716
H149  H     H_    0.578337 0.619934 0.303240 0.256061
H150  H     H_    0.612714 0.551877 0.333111 0.257981
H151  H     H_    0.545373 0.551670 0.288797 0.239489
H152  H     H_    0.382083 0.427656 0.657974 0.254537
H153  H     H_    0.432361 0.373590 0.702966 0.258783
H154  H     H_    0.446763 0.450629 0.704598 0.236097
H155  H     H_    0.421860 0.620518 0.696639 0.256443
H156  H     H_    0.387425 0.552521 0.667200 0.257460
H157  H     H_    0.454727 0.552157 0.711338 0.240619
H158  H     H_    0.360831 0.622485 0.289969 0.218148
H159  H     H_    0.617459 0.425246 0.340936 0.254220
H160  H     H_    0.565935 0.372800 0.296545 0.260371
H161  H     H_    0.553609 0.450447 0.295653 0.235292
H162  H     H_    0.078337 0.119933 0.303240 0.256063
H163  H     H_    0.112713 0.051875 0.333109 0.257980
H164  H     H_    0.045372 0.051670 0.288797 0.239489
H165  H     H_    0.882082 0.927667 0.657972 0.254537
H166  H     H_    0.932355 0.873595 0.702965 0.258778
H167  H     H_    0.946765 0.950630 0.704600 0.236098
H168  H     H_    0.921860 0.120519 0.696638 0.256442
N1    N     N_R   0.532970 0.559900 0.665210 -0.052966
N2    N     N_R   0.402100 0.440070 0.454470 -0.090443
N3    N     N_R   0.402100 0.559930 0.454470 -0.099768
N4    N     N_R   0.597900 0.440070 0.545530 -0.090497
N5    N     N_R   0.097900 0.059930 0.545530 -0.103564
N6    N     N_R   0.902100 0.940070 0.454470 -0.090444
N7    N     N_R   0.902100 0.059930 0.454470 -0.099768
N8    N     N_R   0.097900 0.940070 0.545530 -0.090496
N9    N     N_R   0.567170 0.559950 0.454460 -0.093603
N10   N     N_R   0.432830 0.440050 0.545540 -0.097153
N11   N     N_R   0.432830 0.559950 0.545540 -0.093742
N12   N     N_R   0.467030 0.440100 0.334790 -0.069290
N13   N     N_R   0.567170 0.440050 0.454460 -0.096939
N14   N     N_R   0.067170 0.059950 0.454460 -0.093604
N15   N     N_R   0.932830 0.940050 0.545540 -0.097153
N16   N     N_R   0.932830 0.059950 0.545540 -0.093740
N17   N     N_R   0.067170 0.940050 0.454460 -0.096939
N18   N     N_R   0.421470 0.559970 0.334770 -0.048231
N19   N     N_R   0.578530 0.440030 0.665230 -0.061447
N20   N     N_R   0.578530 0.559970 0.665230 -0.057055
N21   N     N_R   0.421470 0.440030 0.334770 -0.062183
N22   N     N_R   0.921470 0.059970 0.334770 -0.048230
N23   N     N_R   0.467030 0.559900 0.334790 -0.051359
N24   N     N_R   0.078530 0.940030 0.665230 -0.061445
N25   N     N_R   0.078530 0.059970 0.665230 -0.057054
N26   N     N_R   0.921470 0.940030 0.334770 -0.062183
N27   N     N_R   0.532970 0.440100 0.665210 -0.068818
N28   N     N_R   0.032970 0.059900 0.665210 -0.052966
N29   N     N_R   0.967030 0.940100 0.334790 -0.069290
N30   N     N_R   0.967030 0.059900 0.334790 -0.051361
N31   N     N_R   0.032970 0.940100 0.665210 -0.068818
N32   N     N_R   0.597900 0.559930 0.545530 -0.103564
Ni1   Ni    Ni4+2 0.483030 0.500000 0.604430 0.193337
Ni2   Ni    Ni4+2 0.516970 0.500000 0.395570 0.189590
Ni3   Ni    Ni4+2 0.983030 1.000000 0.604430 0.193339
Ni4   Ni    Ni4+2 0.016970 1.000000 0.395570 0.189590
Ni5   Ni    Ni4+2 0.587400 0.500000 0.604430 0.303181
Ni6   Ni    Ni4+2 0.412600 0.500000 0.395570 0.298060
Ni7   Ni    Ni4+2 0.087400 1.000000 0.604430 0.303183
Ni8   Ni    Ni4+2 0.912600 1.000000 0.395570 0.298060
O1    O     O_3   0.681902 0.410951 0.930784 -0.704684
O2    O     O_3   0.489830 0.742789 0.303706 -0.754702
O3    O     O_3   0.460275 0.288396 0.210676 -0.743559
O4    O     O_3   0.508955 0.742448 0.696136 -0.752507
O5    O     O_3   0.038394 0.783503 0.778783 -0.740477
O6    O     O_3   0.989836 0.242784 0.303706 -0.754706
O7    O     O_3   0.960274 0.788397 0.210674 -0.743560
O8    O     O_3   0.008956 0.242448 0.696138 -0.752509
O9    O     O_3   0.754573 0.370577 0.922996 -0.714781
O10   O     O_3   0.279805 0.709554 0.208762 -0.739831
O11   O     O_3   0.244250 0.370564 0.078246 -0.717824
O12   O     O_3   0.318706 0.654690 0.124619 -0.723373
O13   O     O_3   0.716414 0.716919 0.783291 -0.738488
O14   O     O_3   0.254563 0.870564 0.922976 -0.714783
O15   O     O_3   0.779814 0.209585 0.208800 -0.739831
O16   O     O_3   0.744249 0.870565 0.078245 -0.717824
O17   O     O_3   0.216414 0.216918 0.783292 -0.738489
O18   O     O_3   0.686872 0.575685 0.659118 -0.734985
O19   O     O_3   0.318135 0.404351 0.340672 -0.749527
O20   O     O_3   0.313196 0.575967 0.340826 -0.736432
O21   O     O_3   0.682153 0.405084 0.659194 -0.748450
O22   O     O_3   0.186872 0.075684 0.659118 -0.734984
O23   O     O_3   0.315451 0.414411 0.069251 -0.710761
O24   O     O_3   0.818134 0.904354 0.340672 -0.749526
O25   O     O_3   0.813196 0.075968 0.340826 -0.736429
O26   O     O_3   0.182154 0.905086 0.659194 -0.748448
O27   O     O_3   0.605689 0.267769 0.482091 -0.748101
O28   O     O_3   0.374917 0.715448 0.490991 -0.753741
O29   O     O_3   0.395506 0.268054 0.522728 -0.746564
O30   O     O_3   0.623749 0.714922 0.505870 -0.755106
O31   O     O_3   0.105690 0.767769 0.482106 -0.748103
O32   O     O_3   0.874923 0.215450 0.491002 -0.753739
O33   O     O_3   0.895505 0.768058 0.522735 -0.746558
O34   O     O_3   0.678469 0.654513 0.866894 -0.723254
O35   O     O_3   0.123753 0.214920 0.505876 -0.755108
O36   O     O_3   0.861529 0.390062 0.057162 -0.763999
O37   O     O_3   0.170962 0.691952 0.089950 -0.759745
O38   O     O_3   0.136277 0.387889 0.948135 -0.766033
O39   O     O_3   0.825920 0.702586 0.896010 -0.757374
O40   O     O_3   0.361516 0.890056 0.057148 -0.763998
O41   O     O_3   0.670967 0.191997 0.090001 -0.759721
O42   O     O_3   0.636276 0.887889 0.948133 -0.766033
O43   O     O_3   0.325920 0.202583 0.896013 -0.757373
O44   O     O_3   0.181895 0.910934 0.930779 -0.704686
O45   O     O_3   0.818702 0.154706 0.124641 -0.723382
O46   O     O_3   0.815451 0.914411 0.069251 -0.710762
O47   O     O_3   0.178469 0.154512 0.866895 -0.723255
O48   O     O_3   0.538404 0.283511 0.778809 -0.740481

loop_
_geom_bond_atom_site_label_1
_geom_bond_atom_site_label_2
_ccdc_geom_bond_type
C26   O36   S    
C7    C29   A    
C196  O46   S    
C73   C82   A    
H88   O12   S    
C74   C83   A    
C126  H52   S    
C73   O30   S    
C66   C85   S    
C146  H80   S    
H133  O11   S    
C41   C67   A    
N27   Ni1   S    
C140  N23   A    
C195  H147  S    
C49   C60   A    
C14   C21   A    
C35   C124  A    
C92   C119  S    
C120  H34   S    
C61   C82   S    
N9    Ni2   S    
C38   N13   A    
C104  H129  S    
C167  C185  A    
C56   C162  A    
C192  O45   S    
C2    C90   A    
C105  H149  S    
C102  H122  S    
C209  N4    A    
C134  C143  A    
C11   C15   A    
H91   O44   S    
C152  C156  A    
N28   Ni3   S    
C10   C20   A    
C127  H54   S    
C121  H39   S    
H143  O21   S    
C93   C120  S    
H14   O32   S    
C114  H7    S    
C196  C204  A    
C87   C115  S    
N8    N17   A    
C29   O39   S    
C47   C53   A    
N18   Ni6   S    
C43   N18   A    
C113  C133  A    
C107  H155  S    
H100  O5    S    
C39   C65   A    
H145  O24   S    
C57   C133  A    
C36   C62   A    
C37   C63   A    
C190  C199  A    
H146  O25   S    
C38   C64   A    
C107  H156  S    
C68   C95   A    
C36   C106  S    
N11   Ni1   S    
C44   H2    S    
C169  C187  A    
C145  H79   S    
C40   N15   A    
C131  H69   S    
C101  C137  A    
C40   C110  S    
H10   O29   S    
H74   O40   S    
C36   N10   A    
C182  O3    S    
C179  O2    S    
C82   C91   A    
C130  C159  S    
C103  H124  S    
C48   N22   A    
C188  O12   S    
N2    Ni6   S    
C43   C54   A    
C173  H125  S    
C147  H82   S    
C98   H112  S    
C108  H161  S    
H144  O22   S    
C100  C175  S    
C91   C118  S    
C74   O31   S    
C121  H37   S    
H11   O30   S    
C141  C157  A    
N7    N16   A    
C62   C81   S    
C63   C208  A    
C6    C177  A    
C5    C176  A    
N31   Ni3   S    
C109  H162  S    
C148  C153  A    
C205  N32   A    
H99   O4    S    
C97   H109  S    
C5    C202  A    
C175  C183  A    
C125  H49   S    
C119  H30   S    
C120  H36   S    
C127  C156  S    
C15   C203  A    
C49   H46   S    
H71   O37   S    
H89   O23   S    
N17   Ni4   S    
C149  H84   S    
H70   O36   S    
C110  H167  S    
C105  H151  S    
C55   C163  S    
C6    C203  A    
C80   C88   A    
C10   C16   A    
C122  H40   S    
C136  C153  A    
C44   C55   A    
C4    C201  A    
C99   C174  S    
H131  O9    S    
C125  H48   S    
N10   Ni1   S    
C187  O7    S    
C84   C93   A    
C114  H5    S    
C186  O8    S    
C86   C95   A    
C39   C109  S    
C117  H23   S    
C41   N16   A    
C3    C174  A    
C193  O44   S    
C172  C216  A    
C76   C85   A    
C115  H18   S    
C197  C214  A    
C78   C87   A    
C32   O42   S    
C124  C139  A    
C108  H159  S    
C39   N14   A    
C30   O40   S    
C10   C199  A    
C174  C182  A    
C131  H67   S    
C51   N26   A    
C133  C142  A    
C188  C197  A    
C162  H114  S    
C161  C188  A    
N5    Ni7   S    
C46   C132  A    
C75   C84   A    
C15   C25   A    
C31   C215  A    
C12   C22   A    
C150  H85   S    
C130  H63   S    
C119  H31   S    
C11   C200  A    
H77   O43   S    
C164  C181  A    
C75   C141  A    
C49   N24   A    
N6    N15   A    
C5    C27   A    
C207  N2    A    
C172  C181  A    
C42   C114  S    
C6    C28   A    
N1    N20   A    
C4    C175  A    
N7    Ni8   S    
C109  H164  S    
C161  C179  A    
C34   N9    A    
N30   Ni4   S    
C212  O25   S    
C98   C172  S    
C127  H55   S    
C38   C108  S    
C128  H56   S    
C209  O21   S    
C111  H3    S    
C164  C190  A    
C147  C160  A    
N15   Ni3   S    
C129  C158  S    
C118  H28   S    
C128  C157  S    
H137  O15   S    
C63   C80   S    
C60   C167  S    
C168  C186  A    
C110  H165  S    
C58   C169  S    
C191  C200  A    
C144  H78   S    
C71   C136  A    
C45   C52   A    
N32   Ni5   S    
C116  H21   S    
C107  H157  S    
C50   C56   A    
H140  O18   S    
C77   C143  A    
C128  H59   S    
C45   N20   A    
C28   O38   S    
C122  H41   S    
N22   Ni8   S    
C210  N5    A    
C96   H106  S    
C3    C200  A    
C129  H62   S    
C106  H152  S    
C75   O32   S    
N25   N28   A    
C19   C28   A    
C65   C210  A    
H132  O10   S    
C106  H154  S    
C140  H92   S    
C89   C117  S    
C16   C23   A    
C1    N1    A    
C57   C94   A    
C51   H68   S    
H72   O38   S    
H12   O31   S    
H139  O17   S    
N24   Ni7   S    
C125  C154  S    
C48   C59   A    
C132  C141  A    
H94   O46   S    
C100  H118  S    
N9    N32   A    
C113  C138  A    
C64   C78   S    
C109  H163  S    
N21   Ni6   S    
C47   N21   A    
C70   O27   S    
C211  N6    A    
C24   C147  A    
H135  O14   S    
C99   H116  S    
C20   O13   S    
C170  C179  A    
C150  C155  A    
C95   C122  S    
H75   O41   S    
C81   C89   A    
C16   C204  A    
C117  H26   S    
C104  H130  S    
H102  O7    S    
C14   C202  A    
C129  H60   S    
C35   C148  A    
C54   C161  S    
C208  O20   S    
C171  C180  A    
C9    C12   A    
C102  H123  S    
C125  H47   S    
C32   C216  A    
C46   C149  A    
C41   C111  S    
C126  H50   S    
C184  N30   A    
C213  N8    A    
C144  C157  A    
N13   Ni2   S    
C21   O14   S    
H8    O27   S    
C60   C195  A    
C25   C33   A    
C27   O37   S    
C138  C155  A    
C22   O15   S    
C115  H19   S    
C65   C86   S    
C210  O22   S    
C2    C145  A    
C11   C19   A    
C135  C154  A    
C25   O17   S    
C165  C182  A    
C37   C107  S    
C130  H65   S    
H95   O47   S    
C3    C33   A    
C19   O11   S    
N4    N13   A    
C167  C193  A    
C17   O9    S    
N3    Ni6   S    
C8    C14   A    
C192  C201  A    
H15   O33   S    
H104  O8    S    
N19   N27   A    
C72   C81   A    
C171  C215  A    
C126  C155  S    
C100  H120  S    
N24   N31   A    
C152  H86   S    
C23   O16   S    
C40   C66   A    
N20   Ni5   S    
C103  H126  S    
C71   O28   S    
C198  C215  A    
C97   H108  S    
H87   O1    S    
C144  C206  A    
H90   O34   S    
C189  O1    S    
H101  O6    S    
C43   H158  S    
C69   C213  A    
C120  H33   S    
C176  C185  A    
C33   O43   S    
C42   N17   A    
C8    C18   A    
C193  C202  A    
C7    C178  A    
C149  C154  A    
C102  H121  S    
C7    C204  A    
C68   C152  A    
C30   C214  A    
C108  H160  S    
C116  H20   S    
C151  H103  S    
N1    Ni1   S    
C67   C212  A    
C163  C189  A    
C51   C58   A    
C114  H6    S    
C128  H58   S    
C52   C164  S    
C178  C187  A    
C53   C165  S    
C37   N11   A    
C70   C135  A    
N6    Ni8   S    
C64   C209  A    
C58   C173  A    
H148  O26   S    
N2    N10   A    
C62   C207  A    
C115  H17   S    
H97   O2    S    
C123  C153  S    
C195  N31   A    
C34   C105  S    
C90   C124  A    
C166  C183  A    
C4    C26   A    
C212  N7    A    
C143  C159  A    
C170  C214  A    
N8    Ni7   S    
C151  N27   A    
C123  H44   S    
C61   C205  A    
C79   C135  A    
C21   C30   A    
C123  H43   S    
C23   C32   A    
C48   H35   S    
C68   C134  A    
H98   O3    S    
C145  C158  A    
C98   H111  S    
C99   H117  S    
C50   H57   S    
C165  C191  A    
C166  C192  A    
C34   C61   A    
H138  O16   S    
C1    C52   A    
H96   O48   S    
C177  C186  A    
N18   N23   A    
C94   C121  S    
C148  H83   S    
C194  O47   S    
C184  H136  S    
C76   O33   S    
C190  O34   S    
C1    H1    S    
C181  O4    S    
C66   C211  A    
N12   Ni2   S    
C97   H110  S    
C189  C198  A    
C70   C78   A    
C31   O41   S    
C105  H150  S    
C118  H29   S    
C121  H38   S    
C87   C206  A    
C208  N3    A    
C101  C134  A    
C205  O18   S    
N5    N14   A    
C110  H166  S    
C17   C26   A    
N14   Ni4   S    
C73   C138  A    
C79   C132  A    
C102  C176  S    
H16   O35   S    
C116  H22   S    
C211  O24   S    
C173  N29   A    
C96   H107  S    
N19   Ni5   S    
C122  H42   S    
C54   C140  A    
C139  C158  A    
C183  O6    S    
C129  H61   S    
H134  O13   S    
C67   C84   S    
C96   C170  S    
N25   Ni7   S    
N26   Ni8   S    
C8    C197  A    
C131  C160  S    
C35   C92   A    
C45   H13   S    
C13   C146  A    
C185  O5    S    
C71   C80   A    
C169  C196  A    
C20   C29   A    
C104  C178  S    
C22   C31   A    
C199  C216  A    
C103  H127  S    
N4    Ni5   S    
C18   O10   S    
N26   N29   A    
C111  H168  S    
C146  C159  A    
C99   H115  S    
C42   C69   A    
C137  C156  A    
C103  C177  S    
C88   C116  S    
C119  H32   S    
C130  H64   S    
C69   C83   S    
C162  N28   A    
C90   C136  A    
C85   C94   A    
C112  N12   A    
C180  O48   S    
N23   Ni2   S    
C57   C150  A    
C56   C168  S    
C12   C201  A    
C2    C88   A    
N29   Ni4   S    
C59   C166  S    
C191  O23   S    
C53   C112  A    
C9    C17   A    
C72   C137  A    
C77   C86   A    
C118  H27   S    
N16   Ni3   S    
C127  H53   S    
C126  H51   S    
C111  H4    S    
C50   N25   A    
C13   C101  A    
C24   C91   A    
C44   N19   A    
C9    C198  A    
C104  H128  S    
C55   C151  A    
H73   O39   S    
H93   O45   S    
N22   N30   A    
C13   C89   A    
C72   O29   S    
C100  H119  S    
C18   C27   A    
C142  C160  A    
C79   C206  A    
H142  O20   S    
C74   C139  A    
C98   H113  S    
C112  H81   S    
C97   C171  S    
C46   C93   A    
C207  O19   S    
C123  H45   S    
C194  C203  A    
C77   O35   S    
H9    O28   S    
C96   H105  S    
C59   C184  A    
C213  O26   S    
N3    N11   A    
C106  H153  S    
C47   H24   S    
C24   C113  A    
C83   C92   A    
H76   O42   S    
C163  C180  A    
C168  C194  A    
H141  O19   S    
N12   N21   A    
C131  H66   S    
C76   C142  A    
C117  H25   S    
