data_mof_unit_20037.cif
_audit_creation_date              2012-12-10T20:48:16-0500
_audit_creation_method            fapswitch 2.2
_symmetry_space_group_name_H-M    P1
_symmetry_Int_Tables_number       1
_space_group_crystal_system       monoclinic
_cell_length_a                    10.671006
_cell_length_b                    8.928017
_cell_length_c                    8.109235
_cell_angle_alpha                 90.0
_cell_angle_beta                  89.812818
_cell_angle_gamma                 90.0
_cell_volume                      772.570180267

loop_
_atom_site_label
_atom_site_type_symbol
_atom_type_description
_atom_site_fract_x
_atom_site_fract_y
_atom_site_fract_z
_atom_type_partial_charge
C1    C     C_R   0.500000 0.217995 0.500000 0.941501
C2    C     C_R   0.257153 0.497606 0.500351 0.836112
C3    C     C_R   0.742847 0.497606 0.499648 0.836112
C4    C     C_R   0.500000 0.781953 0.500000 0.908123
C5    C     C_1   0.500000 0.065166 0.500000 -0.195127
C6    C     C_3   0.071054 0.409398 0.649079 -0.436922
C7    C     C_3   0.071266 0.424075 0.342455 -0.435166
C8    C     C_3   0.928733 0.424074 0.657544 -0.435166
C9    C     C_3   0.928946 0.409399 0.350920 -0.436922
C10   C     C_1   0.500000 0.934755 0.500000 -0.205113
C11   C     C_3   0.073827 0.672767 0.513072 0.227588
C12   C     C_3   0.926172 0.672767 0.486928 0.227587
C13   C     C_3   0.121210 0.503450 0.501215 0.055454
C14   C     C_3   0.878790 0.503450 0.498785 0.055454
H1    H     H_    0.112482 0.442469 0.769237 0.185586
H2    H     H_    0.098007 0.484132 0.227918 0.175836
H3    H     H_    0.901992 0.484131 0.772082 0.175836
H4    H     H_    0.887518 0.442470 0.230763 0.185586
N1    N     N_1   0.500000 0.500030 0.073640 -0.041643
N2    N     N_1   0.500000 0.500030 0.926360 -0.041643
O1    O     O_R   0.500000 0.285340 0.636850 -0.612014
O2    O     O_R   0.500000 0.285340 0.363150 -0.612014
O3    O     O_R   0.314790 0.499970 0.636880 -0.634622
O4    O     O_R   0.314790 0.499970 0.363120 -0.629693
O5    O     O_R   0.685210 0.499970 0.636880 -0.629693
O6    O     O_R   0.685210 0.499970 0.363120 -0.634622
O7    O     O_R   0.500000 0.714650 0.636900 -0.617245
O8    O     O_R   0.500000 0.714650 0.363100 -0.617244
Zn1   Zn    Zn3+2 0.500000 0.499990 0.682780 0.964236
Zn2   Zn    Zn3+2 0.500000 0.499990 0.317220 0.964236
H5    H     H_    0.096597 0.289372 0.631840 0.194206
H6    H     H_    0.112722 0.309948 0.331250 0.191540
H7    H     H_    0.887278 0.309948 0.668749 0.191540
H8    H     H_    0.903403 0.289373 0.368159 0.194206
N3    N     N_3   0.104744 0.738722 0.675664 -0.436360
H9    H     H_    0.201516 0.740295 0.694606 0.189463
H10   H     H_    0.064563 0.680312 0.773724 0.172553
N4    N     N_3   0.135095 0.768867 0.387556 -0.421690
H11   H     H_    0.140961 0.716678 0.272897 0.173787
H12   H     H_    0.227354 0.792780 0.421629 0.174302
N5    N     N_3   0.864904 0.768866 0.612445 -0.421690
H13   H     H_    0.772646 0.792779 0.578372 0.174302
H14   H     H_    0.859039 0.716677 0.727104 0.173787
N6    N     N_3   0.895256 0.738723 0.324337 -0.436360
H15   H     H_    0.935437 0.680313 0.226277 0.172553
H16   H     H_    0.798484 0.740295 0.305395 0.189463

loop_
_geom_bond_atom_site_label_1
_geom_bond_atom_site_label_2
_ccdc_geom_bond_type
C11   N4    S    
C6    C8    S    
C9    C14   S    
C1    O1    A    
C12   N5    S    
O7    Zn1   S    
N5    H14   S    
N5    H13   S    
C8    H3    S    
C3    O5    A    
N2    Zn1   S    
C11   N3    S    
C6    H5    S    
C1    O2    A    
C12   N6    S    
C6    C13   S    
N4    H12   S    
C11   C13   S    
C9    H8    S    
C3    C14   S    
O1    Zn1   S    
C1    C5    S    
O3    Zn1   S    
O8    Zn2   S    
C7    H2    S    
C4    O8    A    
C12   C14   S    
O6    Zn2   S    
C8    H7    S    
C2    O4    A    
N4    H11   S    
O4    Zn2   S    
C5    C10   T    
C9    H4    S    
C7    C13   S    
C4    O7    A    
N6    H15   S    
O5    Zn1   S    
C2    O3    A    
C7    C9    S    
C2    C13   S    
C8    C14   S    
C7    H6    S    
O2    Zn2   S    
N3    H10   S    
C6    H1    S    
N1    Zn2   S    
C4    C10   S    
C3    O6    A    
N1    N2    T    
C11   C12   S    
N6    H16   S    
N3    H9    S    
