data_mof_unit_45419.cif
_audit_creation_date              2013-03-05T15:50:18-0500
_audit_creation_method            fapswitch 2.2
_symmetry_space_group_name_H-M    P1
_symmetry_Int_Tables_number       1
_space_group_crystal_system       triclinic
_cell_length_a                    18.448321
_cell_length_b                    25.832872
_cell_length_c                    18.174106
_cell_angle_alpha                 89.945654
_cell_angle_beta                  89.70057
_cell_angle_gamma                 90.03017
_cell_volume                      8661.16691316

loop_
_atom_site_label
_atom_site_type_symbol
_atom_site_description
_atom_site_fract_x
_atom_site_fract_y
_atom_site_fract_z
_atom_type_partial_charge
Zn1   Zn    Zn3+2 0.249990 0.293780 0.913250 1.021599
Zn2   Zn    Zn3+2 0.249990 0.706220 0.086750 1.058740
Zn3   Zn    Zn3+2 0.249990 0.706220 0.913250 1.007092
Zn4   Zn    Zn3+2 0.249990 0.293780 0.086750 1.058699
Zn5   Zn    Zn3+2 0.749990 0.793780 0.413250 1.021368
Zn6   Zn    Zn3+2 0.749990 0.206220 0.586750 1.014008
Zn7   Zn    Zn3+2 0.749990 0.206220 0.413250 1.041231
Zn8   Zn    Zn3+2 0.749990 0.793780 0.586750 1.058531
Zn9   Zn    Zn3+2 0.336760 0.206240 0.000000 0.984419
Zn10  Zn    Zn3+2 0.336760 0.793760 0.000000 1.021219
Zn11  Zn    Zn3+2 0.836760 0.706240 0.500000 0.987463
Zn12  Zn    Zn3+2 0.836760 0.293760 0.500000 1.028026
Zn13  Zn    Zn3+2 0.163250 0.206230 0.000000 0.959330
Zn14  Zn    Zn3+2 0.163250 0.793770 0.000000 0.963112
Zn15  Zn    Zn3+2 0.663250 0.706230 0.500000 0.960055
Zn16  Zn    Zn3+2 0.663250 0.293770 0.500000 0.961707
O1    O     O_3   0.249990 0.250010 0.000000 -0.507856
O2    O     O_3   0.249990 0.749990 0.000000 -0.509127
O3    O     O_3   0.749990 0.750010 0.500000 -0.508437
O4    O     O_3   0.749990 0.249990 0.500000 -0.507595
O5    O     O_R   0.335430 0.280650 0.146160 -0.569843
O6    O     O_R   0.335430 0.719350 0.853840 -0.618642
O7    O     O_R   0.335430 0.719350 0.146160 -0.592248
O8    O     O_R   0.335430 0.280650 0.853840 -0.588822
O9    O     O_R   0.835430 0.780650 0.646160 -0.569291
O10   O     O_R   0.835430 0.219350 0.353840 -0.595960
O11   O     O_R   0.835430 0.219350 0.646160 -0.611977
O12   O     O_R   0.835430 0.780650 0.353840 -0.585201
O13   O     O_R   0.164550 0.280640 0.853840 -0.649626
O14   O     O_R   0.164550 0.719360 0.146160 -0.626890
O15   O     O_R   0.164550 0.719360 0.853840 -0.655753
O16   O     O_R   0.164550 0.280640 0.146160 -0.591227
O17   O     O_R   0.664550 0.780640 0.353840 -0.651486
O18   O     O_R   0.664550 0.219360 0.646160 -0.652327
O19   O     O_R   0.664550 0.219360 0.353840 -0.652530
O20   O     O_R   0.664550 0.780640 0.646160 -0.587573
O21   O     O_R   0.396160 0.219380 0.914560 -0.644181
O22   O     O_R   0.396160 0.780620 0.085440 -0.610099
O23   O     O_R   0.396160 0.780620 0.914560 -0.606593
O24   O     O_R   0.396160 0.219380 0.085440 -0.645233
O25   O     O_R   0.896160 0.719380 0.414560 -0.643629
O26   O     O_R   0.896160 0.280620 0.585440 -0.614834
O27   O     O_R   0.896160 0.280620 0.414560 -0.606321
O28   O     O_R   0.896160 0.719380 0.585440 -0.644209
O29   O     O_R   0.103840 0.219370 0.085450 -0.647299
O30   O     O_R   0.103840 0.780630 0.914550 -0.623026
O31   O     O_R   0.103840 0.780630 0.085450 -0.633102
O32   O     O_R   0.103840 0.219370 0.914550 -0.630964
O33   O     O_R   0.603840 0.719370 0.585450 -0.649002
O34   O     O_R   0.603840 0.280630 0.414550 -0.624013
O35   O     O_R   0.603840 0.280630 0.585450 -0.629234
O36   O     O_R   0.603840 0.719370 0.414550 -0.626384
O37   O     O_R   0.310730 0.133160 0.000000 -0.642566
O38   O     O_R   0.310730 0.866840 0.000000 -0.651595
O39   O     O_R   0.810730 0.633160 0.500000 -0.640131
O40   O     O_R   0.810730 0.366840 0.500000 -0.647564
O41   O     O_R   0.249970 0.366860 0.060720 -0.633640
O42   O     O_R   0.249970 0.633140 0.939280 -0.625441
O43   O     O_R   0.249970 0.633140 0.060720 -0.604939
O44   O     O_R   0.249970 0.366860 0.939280 -0.610174
O45   O     O_R   0.749970 0.866860 0.560720 -0.636185
O46   O     O_R   0.749970 0.133140 0.439280 -0.606386
O47   O     O_R   0.749970 0.133140 0.560720 -0.632340
O48   O     O_R   0.749970 0.866860 0.439280 -0.614685
O49   O     O_R   0.189290 0.133150 0.000000 -0.634637
O50   O     O_R   0.189290 0.866850 0.000000 -0.633846
O51   O     O_R   0.689290 0.633150 0.500000 -0.639059
O52   O     O_R   0.689290 0.366850 0.500000 -0.636269
C1    C     C_R   0.388408 0.249482 0.141879 0.795623
C2    C     C_R   0.390124 0.749309 0.860641 0.871640
C3    C     C_R   0.389608 0.749161 0.140797 0.846970
C4    C     C_R   0.390729 0.251680 0.861203 0.847481
C5    C     C_R   0.888296 0.749338 0.641969 0.797901
C6    C     C_R   0.890912 0.247868 0.361159 0.880950
C7    C     C_R   0.889887 0.249598 0.640013 0.872188
C8    C     C_R   0.890771 0.751703 0.361237 0.846757
C9    C     C_R   0.110101 0.250459 0.860305 0.766441
C10   C     C_R   0.110298 0.749585 0.139849 0.763883
C11   C     C_R   0.111121 0.750172 0.859440 0.770979
C12   C     C_R   0.110071 0.250674 0.139486 0.773895
C13   C     C_R   0.610077 0.750910 0.360351 0.770847
C14   C     C_R   0.610289 0.249597 0.639852 0.769047
C15   C     C_R   0.611081 0.250134 0.359468 0.766537
C16   C     C_R   0.610261 0.750130 0.639860 0.782360
C17   C     C_R   0.249971 0.109437 0.000267 0.778340
C18   C     C_R   0.250066 0.890518 0.999656 0.768416
C19   C     C_R   0.749950 0.609454 0.500382 0.775995
C20   C     C_R   0.750062 0.390538 0.499663 0.769804
C21   C     C_R   0.249404 0.391431 0.999842 0.799023
C22   C     C_R   0.249716 0.608509 0.999888 0.809624
C23   C     C_R   0.749955 0.891448 0.499879 0.798464
C24   C     C_R   0.750082 0.108524 0.499947 0.831883
C25   C     C_3   0.186537 0.470008 0.048352 -0.398766
C26   C     C_3   0.237863 0.529757 0.920122 -0.381733
C27   C     C_3   0.187139 0.529827 0.048920 -0.388583
C28   C     C_3   0.238415 0.470249 0.920006 -0.365476
C29   C     C_3   0.680305 0.969991 0.537285 -0.399427
C30   C     C_3   0.753332 0.029753 0.419645 -0.358073
C31   C     C_3   0.680160 0.029873 0.536968 -0.413547
C32   C     C_3   0.752804 0.970318 0.419544 -0.369611
H1    H     H_    0.192288 0.455501 0.105707 0.204498
H2    H     H_    0.281570 0.544110 0.882850 0.208296
H3    H     H_    0.194161 0.543668 0.106423 0.214888
H4    H     H_    0.282950 0.456432 0.883413 0.223017
H5    H     H_    0.676994 0.955816 0.595056 0.193623
H6    H     H_    0.803376 0.043770 0.391537 0.241218
H7    H     H_    0.676199 0.044262 0.594553 0.189388
H8    H     H_    0.802312 0.956009 0.390844 0.231891
H9    H     H_    0.133503 0.455896 0.027397 0.150428
H10   H     H_    0.185273 0.543855 0.898010 0.172609
H11   H     H_    0.134045 0.544646 0.029150 0.147061
H12   H     H_    0.186436 0.455732 0.896971 0.170740
H13   H     H_    0.631522 0.955418 0.508046 0.146808
H14   H     H_    0.706113 0.044141 0.387676 0.178670
H15   H     H_    0.631610 0.044178 0.507080 0.151622
H16   H     H_    0.705001 0.956359 0.388081 0.176388
H17   H     H_    0.200716 0.903755 0.129625 0.124680
H18   H     H_    0.197431 0.095092 0.129479 0.126355
H19   H     H_    0.697483 0.403840 0.628559 0.127622
H20   H     H_    0.694837 0.595133 0.628501 0.125476
H21   H     H_    0.330692 0.455852 0.086288 0.201198
H22   H     H_    0.367745 0.543540 0.992381 0.205811
H23   H     H_    0.332884 0.543984 0.084396 0.232270
H24   H     H_    0.367683 0.454952 0.994805 0.213917
H25   H     H_    0.816680 0.955350 0.599101 0.199747
H26   H     H_    0.867649 0.044322 0.516769 0.230330
H27   H     H_    0.815348 0.043664 0.600075 0.197755
H28   H     H_    0.867604 0.955778 0.514735 0.210396
C33   C     C_3   0.322030 0.469812 0.029042 -0.376308
C34   C     C_3   0.322558 0.529608 0.028027 -0.374335
C35   C     C_3   0.816938 0.969937 0.541459 -0.382624
C36   C     C_3   0.816642 0.029762 0.542139 -0.349654
C37   C     C_3   0.249047 0.449073 0.999319 0.155441
C38   C     C_3   0.249310 0.550760 0.999335 0.153385
C39   C     C_3   0.749991 0.949118 0.499545 0.156802
C40   C     C_3   0.750094 0.050803 0.499682 0.139405
H29   H     H_    0.213501 0.179734 0.635495 0.156971
H30   H     H_    0.181440 0.871002 0.330341 0.149692
H31   H     H_    0.894265 0.670142 0.961507 0.153256
H32   H     H_    0.166612 0.116801 0.318768 0.146253
H33   H     H_    0.598071 0.581436 0.243730 0.158716
H34   H     H_    0.680040 0.372640 0.828682 0.142953
H35   H     H_    0.391997 0.173849 0.462746 0.152154
H36   H     H_    0.669380 0.616733 0.817759 0.144312
C41   C     C_R   0.968128 0.290043 0.891134 -0.146520
C42   C     C_R   0.988421 0.681327 0.131180 -0.141321
C43   C     C_R   0.141720 0.783572 0.711218 -0.147202
C44   C     C_R   0.992921 0.323549 0.135463 -0.146632
C45   C     C_R   0.530244 0.844676 0.326797 -0.153674
C46   C     C_R   0.488127 0.181614 0.630889 -0.144093
C47   C     C_R   0.642513 0.281868 0.210591 -0.142732
C48   C     C_R   0.490384 0.819899 0.632133 -0.142112
C49   C     C_R   0.899283 0.309155 0.907152 -0.138426
C50   C     C_R   0.929175 0.648069 0.126301 -0.143911
C51   C     C_R   0.157114 0.799173 0.639439 -0.143377
C52   C     C_R   0.934975 0.358018 0.131961 -0.143539
C53   C     C_R   0.491802 0.889685 0.310890 -0.145330
C54   C     C_R   0.428650 0.148583 0.625749 -0.144733
C55   C     C_R   0.658287 0.296613 0.138530 -0.145705
C56   C     C_R   0.431287 0.853206 0.626663 -0.130152
C57   C     C_R   0.437500 0.888976 0.258245 -0.130293
C58   C     C_R   0.374801 0.149645 0.679440 -0.155010
C59   C     C_R   0.604338 0.295621 0.085538 -0.123508
C60   C     C_R   0.376815 0.851956 0.679685 -0.154297
C61   C     C_R   0.845815 0.308506 0.853693 -0.131420
C62   C     C_R   0.875404 0.649068 0.180079 -0.140046
C63   C     C_R   0.103130 0.798143 0.586480 -0.115156
C64   C     C_R   0.880725 0.356511 0.185276 -0.153680
C65   C     C_R   0.420992 0.843170 0.221556 -0.140247
C66   C     C_R   0.380226 0.183666 0.738607 -0.146754
C67   C     C_R   0.534185 0.280500 0.104592 -0.108010
C68   C     C_R   0.381508 0.817717 0.738741 -0.152251
C69   C     C_R   0.860892 0.288687 0.784001 -0.150317
C70   C     C_R   0.880701 0.683239 0.239090 -0.142123
C71   C     C_R   0.033315 0.782102 0.605288 -0.109312
C72   C     C_R   0.884415 0.320834 0.242719 -0.147093
C73   C     C_R   0.459796 0.796961 0.236051 0.081216
C74   C     C_R   0.440200 0.217744 0.745059 0.081816
C75   C     C_R   0.516469 0.265501 0.177545 0.068677
C76   C     C_R   0.441150 0.783372 0.745565 0.078494
C77   C     C_R   0.930312 0.268286 0.766492 0.068943
C78   C     C_R   0.940430 0.717552 0.245272 0.079630
C79   C     C_R   0.015987 0.766227 0.677955 0.067993
C80   C     C_R   0.942270 0.284897 0.246898 0.079111
C81   C     C_R   0.984650 0.269174 0.820868 0.082654
C82   C     C_R   0.994995 0.716372 0.190717 0.082661
C83   C     C_R   0.071428 0.766248 0.731298 0.074987
C84   C     C_R   0.997162 0.286354 0.192575 0.080624
C85   C     C_R   0.515662 0.797851 0.289092 0.084183
C86   C     C_R   0.494828 0.216525 0.690570 0.081399
C87   C     C_R   0.571869 0.265433 0.230938 0.074034
C88   C     C_R   0.495951 0.784358 0.691302 0.077271
C89   C     C_R   0.440689 0.749362 0.202652 -0.150478
C90   C     C_R   0.445809 0.253319 0.803978 -0.153607
C91   C     C_R   0.444349 0.253079 0.198861 -0.146267
C92   C     C_R   0.446670 0.748282 0.805182 -0.159191
C93   C     C_R   0.946334 0.247717 0.695950 -0.162368
C94   C     C_R   0.945896 0.753279 0.304028 -0.149342
C95   C     C_R   0.944191 0.752705 0.699013 -0.146047
C96   C     C_R   0.944433 0.246189 0.301975 -0.144912
C97   C     C_R   0.473397 0.702290 0.227065 -0.023539
C98   C     C_R   0.504556 0.289008 0.808419 -0.052424
C99   C     C_R   0.427490 0.241846 0.274204 -0.038688
C100  C     C_R   0.505703 0.712963 0.811097 -0.063142
C101  C     C_R   0.016236 0.226934 0.679317 -0.049608
C102  C     C_R   0.004788 0.788840 0.308563 -0.051360
C103  C     C_R   0.927695 0.740163 0.774011 -0.039863
C104  C     C_R   0.997508 0.206166 0.299459 -0.049692
C105  C     C_R   0.071305 0.230531 0.733252 0.048903
C106  C     C_R   0.062304 0.783897 0.257135 0.057001
C107  C     C_R   0.985883 0.731189 0.822429 0.058097
C108  C     C_R   0.057261 0.212304 0.251459 0.057909
C109  C     C_R   0.538257 0.705533 0.266987 0.048296
C110  C     C_R   0.562036 0.284167 0.756905 0.058951
C111  C     C_R   0.485419 0.232367 0.322708 0.058031
C112  C     C_R   0.558983 0.713163 0.754534 0.068182
C113  C     C_R   0.054619 0.250537 0.803677 -0.119900
C114  C     C_R   0.055307 0.749540 0.197190 -0.109926
C115  C     C_R   0.055649 0.748639 0.803142 -0.120152
C116  C     C_R   0.054910 0.250706 0.196425 -0.092894
C117  C     C_R   0.555169 0.751961 0.303300 -0.125814
C118  C     C_R   0.555236 0.249607 0.697152 -0.116761
C119  C     C_R   0.555650 0.248667 0.303112 -0.120686
C120  C     C_R   0.554487 0.749546 0.696541 -0.100658
C121  C     C_R   0.445027 0.651722 0.213829 0.334646
C122  C     C_R   0.509185 0.329119 0.862695 0.331680
C123  C     C_R   0.355623 0.238228 0.303831 0.285815
C124  C     C_R   0.514237 0.677123 0.870930 0.354437
C125  C     C_R   0.033913 0.202418 0.610887 0.341356
C126  C     C_R   0.009611 0.828831 0.362977 0.329954
C127  C     C_R   0.855946 0.734739 0.803286 0.287367
C128  C     C_R   0.994173 0.160121 0.342998 0.398680
C129  C     C_R   0.492248 0.609131 0.214921 -0.181989
C130  C     C_R   0.573389 0.357426 0.870512 -0.190344
C131  C     C_R   0.343705 0.210549 0.369262 -0.193248
C132  C     C_R   0.573113 0.643103 0.872130 -0.171014
C133  C     C_R   0.105091 0.187119 0.595489 -0.166214
C134  C     C_R   0.074194 0.856630 0.371347 -0.193495
C135  C     C_R   0.844893 0.706512 0.868370 -0.187421
C136  C     C_R   0.056626 0.130019 0.352335 -0.169977
C137  C     C_R   0.158890 0.192580 0.647624 -0.210386
C138  C     C_R   0.132231 0.848625 0.324006 -0.226382
C139  C     C_R   0.903355 0.690545 0.910259 -0.203203
C140  C     C_R   0.118886 0.140639 0.312033 -0.249541
C141  C     C_R   0.562491 0.614687 0.240930 -0.195115
C142  C     C_R   0.631283 0.349706 0.822920 -0.243701
C143  C     C_R   0.401692 0.193746 0.411203 -0.205322
C144  C     C_R   0.623792 0.643035 0.815739 -0.228116
C145  C     C_R   0.142222 0.212891 0.716238 -0.140632
C146  C     C_R   0.125902 0.813859 0.266206 -0.127312
C147  C     C_R   0.973055 0.705009 0.889700 -0.133186
C148  C     C_R   0.117889 0.179179 0.258749 -0.072997
C149  C     C_R   0.584115 0.661742 0.270753 -0.125226
C150  C     C_R   0.625313 0.314543 0.765572 -0.141629
C151  C     C_R   0.471840 0.206878 0.390358 -0.131496
C152  C     C_R   0.616596 0.677028 0.757131 -0.064577
H37   H     H_    0.008175 0.292249 0.934296 0.120370
H38   H     H_    0.029024 0.679065 0.088094 0.104773
H39   H     H_    0.185520 0.785229 0.750484 0.126383
H40   H     H_    0.033843 0.326071 0.092708 0.101273
H41   H     H_    0.570907 0.847186 0.369229 0.130768
H42   H     H_    0.528763 0.179324 0.587839 0.105346
H43   H     H_    0.686300 0.283538 0.249863 0.127694
H44   H     H_    0.531259 0.822117 0.589306 0.104829
H45   H     H_    0.887554 0.324839 0.961142 0.133719
H46   H     H_    0.925049 0.621353 0.080668 0.121328
H47   H     H_    0.211166 0.812094 0.624894 0.142016
H48   H     H_    0.932005 0.385844 0.087504 0.123500
H49   H     H_    0.503810 0.925172 0.340043 0.128910
H50   H     H_    0.424395 0.122009 0.579961 0.120879
H51   H     H_    0.712599 0.308871 0.123805 0.140055
H52   H     H_    0.427634 0.879939 0.580926 0.127499
H53   H     H_    0.407080 0.923857 0.246711 0.136823
H54   H     H_    0.328509 0.124084 0.675169 0.121550
H55   H     H_    0.616633 0.307176 0.029559 0.147701
H56   H     H_    0.330666 0.877591 0.675050 0.123042
H57   H     H_    0.792463 0.323596 0.866191 0.131848
H58   H     H_    0.829266 0.623342 0.176002 0.125703
H59   H     H_    0.115142 0.810332 0.530715 0.150921
H60   H     H_    0.835214 0.382786 0.181738 0.121346
H61   H     H_    0.375959 0.844243 0.183777 0.124011
H62   H     H_    0.336647 0.183165 0.778696 0.099809
H63   H     H_    0.494100 0.281611 0.061678 0.185435
H64   H     H_    0.337705 0.818383 0.778569 0.094871
H65   H     H_    0.817436 0.289703 0.744324 0.111855
H66   H     H_    0.837238 0.682640 0.279303 0.102669
H67   H     H_    0.993168 0.783110 0.562419 0.184270
H68   H     H_    0.840509 0.320843 0.282445 0.094246
H69   H     H_    0.118242 0.169144 0.543259 0.166368
H70   H     H_    0.078197 0.886528 0.412878 0.168840
H71   H     H_    0.790703 0.700779 0.890117 0.183182
H72   H     H_    0.055476 0.096017 0.387220 0.173156
H73   H     H_    0.472708 0.570640 0.202268 0.178103
H74   H     H_    0.577157 0.387493 0.911819 0.166784
H75   H     H_    0.289416 0.206025 0.391320 0.181313
H76   H     H_    0.579601 0.616404 0.917621 0.162461
H77   H     H_    0.185920 0.214440 0.755572 0.138380
H78   H     H_    0.171757 0.810412 0.229143 0.120360
H79   H     H_    0.016862 0.694690 0.926306 0.117512
H80   H     H_    0.165551 0.183266 0.224270 0.138268
H81   H     H_    0.637104 0.663725 0.295944 0.124700
H82   H     H_    0.671097 0.311256 0.728394 0.114168
H83   H     H_    0.515369 0.196073 0.427024 0.117261
H84   H     H_    0.657684 0.675236 0.714500 0.125206
H85   H     H_    0.152971 0.046437 0.235040 0.139408
H86   H     H_    0.155252 0.951140 0.235389 0.143885
H87   H     H_    0.647653 0.546621 0.732872 0.138694
H88   H     H_    0.649563 0.451254 0.733151 0.145536
C153  C     C_R   0.300606 0.054135 0.873683 -0.134581
C154  C     C_R   0.300984 0.946391 0.873459 -0.133977
C155  C     C_R   0.802986 0.554310 0.374879 -0.140834
C156  C     C_R   0.804279 0.446594 0.374848 -0.135410
C157  C     C_R   0.325746 0.027296 0.812205 -0.137064
C158  C     C_R   0.325950 0.973546 0.812100 -0.134852
C159  C     C_R   0.830006 0.527578 0.314188 -0.141213
C160  C     C_R   0.830806 0.473859 0.314253 -0.134969
C161  C     C_R   0.276091 0.972878 0.937088 0.070087
C162  C     C_R   0.275933 0.027331 0.937233 0.070424
C163  C     C_R   0.777577 0.472983 0.437808 0.069658
C164  C     C_R   0.777164 0.527430 0.437910 0.071408
C165  C     C_R   0.250224 0.946166 0.999802 -0.137511
C166  C     C_R   0.249861 0.053719 0.000089 -0.141949
C167  C     C_R   0.750193 0.446214 0.499858 -0.138833
C168  C     C_R   0.749754 0.553764 0.500183 -0.141973
C169  C     C_R   0.224279 0.972490 0.062664 0.070673
C170  C     C_R   0.223748 0.026940 0.062719 0.069178
C171  C     C_R   0.722685 0.472535 0.562092 0.070528
C172  C     C_R   0.722245 0.526983 0.562189 0.070665
C173  C     C_R   0.199910 0.945558 0.126231 -0.143177
C174  C     C_R   0.198149 0.053292 0.126164 -0.138818
C175  C     C_R   0.696780 0.445635 0.625082 -0.135636
C176  C     C_R   0.695369 0.553348 0.625092 -0.138220
C177  C     C_R   0.174152 0.972236 0.187501 -0.136004
C178  C     C_R   0.173044 0.025955 0.187348 -0.134108
C179  C     C_R   0.669634 0.472338 0.685741 -0.133234
C180  C     C_R   0.668731 0.526062 0.685640 -0.138048
H89   H     H_    0.300379 0.095945 0.870420 0.124632
H90   H     H_    0.301123 0.904588 0.870091 0.122971
H91   H     H_    0.802315 0.596104 0.371405 0.124681
H92   H     H_    0.804752 0.404804 0.371414 0.124382
H93   H     H_    0.344763 0.048281 0.764302 0.135519
H94   H     H_    0.345151 0.952811 0.764127 0.135435
H95   H     H_    0.850089 0.548615 0.266777 0.136508
H96   H     H_    0.851724 0.453288 0.266960 0.136824
N1    N     N_R   0.369030 0.641174 0.222884 0.233450
O53   O     O_R   0.331987 0.666593 0.272183 -0.357378
O54   O     O_R   0.340616 0.599771 0.194424 -0.417299
N2    N     N_R   0.447181 0.347290 0.902637 0.172347
O55   O     O_R   0.398829 0.374226 0.867545 -0.388879
O56   O     O_R   0.450262 0.351310 0.973855 -0.483882
N3    N     N_R   0.299804 0.273579 0.282134 0.222284
O57   O     O_R   0.315536 0.322556 0.276219 -0.333865
O58   O     O_R   0.232102 0.260398 0.289102 -0.415620
N4    N     N_R   0.465243 0.674535 0.932001 0.167959
O59   O     O_R   0.481046 0.699199 0.992209 -0.408687
O60   O     O_R   0.417287 0.637635 0.934387 -0.441993
N5    N     N_R   0.980371 0.189216 0.557844 0.183138
O61   O     O_R   0.935240 0.151699 0.571714 -0.390258
O62   O     O_R   0.986797 0.206703 0.491118 -0.415162
N6    N     N_R   0.947521 0.847456 0.402355 0.173494
O63   O     O_R   0.899151 0.873826 0.366452 -0.386686
O64   O     O_R   0.950479 0.852469 0.473454 -0.482109
N7    N     N_R   0.798516 0.768562 0.781299 0.220024
O65   O     O_R   0.811011 0.818133 0.778232 -0.337031
O66   O     O_R   0.731696 0.752884 0.785617 -0.418444
N8    N     N_R   0.926461 0.137629 0.364941 0.201403
O67   O     O_R   0.921461 0.113921 0.427859 -0.394638
O68   O     O_R   0.879392 0.126570 0.314222 -0.388103

loop_
_geom_bond_atom_site_label_1
_geom_bond_atom_site_label_2
_geom_bond_distance
_ccdc_geom_bond_type
N5    O61   1.300956 A    
C63   H59   1.082765 S    
C94   C102  1.425176 A    
C109  C149  1.414773 A    
C148  H80   1.082127 S    
C172  C176  1.418641 A    
C149  H81   1.082822 S    
C99   C123  1.431349 A    
C75   C91   1.420267 A    
C177  C178  1.387870 A    
C128  N8    1.432012 S    
O26   C7    1.279261 A    
C73   C89   1.416993 A    
C66   C74   1.418953 A    
C130  H74   1.083203 S    
C99   C111  1.410257 A    
C4    C90   1.450783 S    
O30   C11   1.280815 A    
C22   C38   1.491866 S    
C30   H14   1.113457 S    
C91   C99   1.432001 A    
C136  C140  1.386184 A    
C89   C97   1.429070 A    
C153  H89   1.081647 S    
Zn12  O26   1.935047 S    
C110  C118  1.412526 A    
C51   C63   1.388873 A    
H34   C142  1.082392 S    
C169  C173  1.418986 A    
C92   C100  1.425551 A    
C43   C51   1.392782 A    
C76   C92   1.416109 A    
C32   C39   1.553786 S    
H29   C137  1.082554 S    
C96   C104  1.424931 A    
C34   C38   1.550521 S    
C44   H40   1.082441 S    
O11   C7    1.276789 A    
C45   H41   1.080610 S    
C42   C82   1.417101 A    
O34   C15   1.280942 A    
C55   H51   1.082835 S    
C136  H72   1.082929 S    
C163  C167  1.413265 A    
C62   C70   1.393472 A    
C41   H37   1.081894 S    
C137  C145  1.386452 A    
Zn14  O30   1.935615 S    
Zn1   O44   1.946671 S    
C25   H1    1.112983 S    
C153  C157  1.393039 A    
Zn2   O43   1.946672 S    
C108  C116  1.408913 A    
C141  C149  1.390493 A    
Zn5   O48   1.946671 S    
H32   C140  1.082112 S    
Zn6   O47   1.946672 S    
C97   C121  1.428080 A    
C112  C120  1.414298 A    
Zn7   O46   1.945800 S    
O16   C12   1.274647 A    
C11   C115  1.451439 S    
C42   C50   1.393141 A    
C104  C108  1.410961 A    
C155  C164  1.419080 A    
Zn12  O4    1.959344 S    
Zn1   O13   1.945103 S    
C156  C163  1.418678 A    
C71   H67   1.078079 S    
C98   C110  1.416544 A    
C26   C28   1.537313 S    
C72   H68   1.082247 S    
Zn4   O16   1.935578 S    
C57   H53   1.082691 S    
C104  C128  1.429139 A    
C9    C113  1.455284 S    
C33   C37   1.548885 S    
C6    C96   1.456982 S    
C28   H4    1.113431 S    
C125  C133  1.398469 A    
C87   C119  1.411507 A    
C13   C117  1.453572 S    
C64   H60   1.082062 S    
C71   C79   1.417357 A    
C154  C158  1.393044 A    
C72   C80   1.417230 A    
C14   C118  1.450848 S    
C44   C84   1.416252 A    
C45   C85   1.417137 A    
C30   H6    1.113001 S    
Zn10  O22   1.935047 S    
C105  C113  1.413267 A    
C132  H76   1.083324 S    
C48   C88   1.417482 A    
C133  H69   1.083545 S    
O25   C8    1.282890 A    
Zn13  O29   1.926604 S    
C129  C141  1.389119 A    
C15   C119  1.451610 S    
Zn10  O2    1.959344 S    
N2    O55   1.300910 A    
C31   C40   1.550963 S    
O29   C12   1.278357 A    
C167  C171  1.412437 A    
Zn15  O33   1.926604 S    
C18   C165  1.437549 S    
C151  H83   1.082739 S    
C123  N3    1.433310 S    
C152  H84   1.082123 S    
C179  C180  1.387956 A    
C80   C84   1.411039 A    
C75   C87   1.412994 A    
C26   H2    1.113533 S    
C41   C81   1.418374 A    
C135  C139  1.386128 A    
O48   C23   1.271889 A    
C130  C142  1.385474 A    
C171  C175  1.419260 A    
C155  C159  1.392144 A    
C132  C144  1.383621 A    
C101  C125  1.432320 A    
N3    O57   1.302152 A    
C164  C168  1.412505 A    
Zn16  O35   1.925882 S    
C77   C93   1.418048 A    
C70   C78   1.418788 A    
C82   C114  1.409454 A    
Zn7   O10   1.935534 S    
O33   C16   1.275115 A    
C25   C37   1.551542 S    
C86   C118  1.409686 A    
C78   C82   1.409601 A    
O40   C20   1.276033 A    
C52   C64   1.389876 A    
C70   H66   1.082184 S    
C1    C91   1.468806 S    
H85   C178  1.079846 S    
C102  C106  1.416261 A    
N8    O67   1.299484 A    
H35   C143  1.082090 S    
C80   C96   1.414920 A    
Zn5   O17   1.945103 S    
H33   C141  1.082648 S    
H31   C139  1.082019 S    
C65   H61   1.080903 S    
C150  H82   1.082310 S    
C57   C65   1.393126 A    
C53   H49   1.082661 S    
C25   C27   1.545381 S    
C103  C107  1.410733 A    
C67   C75   1.417473 A    
C169  C170  1.406643 A    
C61   H57   1.081922 S    
C65   C73   1.417410 A    
N6    O63   1.300770 A    
C27   H3    1.113050 S    
C32   H8    1.112940 S    
Zn8   O3    1.941017 S    
C21   C37   1.489085 S    
O38   C18   1.275715 A    
C146  H78   1.082365 S    
H22   C34   1.112535 S    
O5    C1    1.268751 A    
C47   C55   1.392800 A    
O32   C9    1.275719 A    
C153  C162  1.418885 A    
H25   C35   1.112964 S    
C52   H48   1.082562 S    
H26   C36   1.110992 S    
C36   C40   1.551740 S    
Zn15  O51   1.948274 S    
C111  C151  1.415284 A    
Zn11  O28   1.935361 S    
Zn12  O40   1.948231 S    
C20   C167  1.438280 S    
H17   C173  1.081718 S    
H23   C34   1.107443 S    
C42   H38   1.082426 S    
N1    O54   1.299818 A    
C29   C39   1.551193 S    
C155  H91   1.081514 S    
H28   C35   1.113228 S    
O8    C4    1.273105 A    
C63   C71   1.393549 A    
C33   C34   1.544817 S    
C64   C72   1.393889 A    
C49   C61   1.388242 A    
O50   C18   1.276792 A    
O37   C17   1.277198 A    
C154  C161  1.418683 A    
C107  C115  1.406048 A    
C100  C112  1.418559 A    
Zn1   O1    1.939276 S    
C122  C130  1.399597 A    
C133  C137  1.382985 A    
Zn2   O14   1.936228 S    
C29   H5    1.112997 S    
C58   H54   1.082392 S    
C68   C76   1.419661 A    
C166  C170  1.413743 A    
C45   C53   1.393126 A    
C157  H93   1.081932 S    
O9    C5    1.269430 A    
C43   H39   1.081704 S    
O36   C13   1.282404 A    
C60   C68   1.393209 A    
C127  N7    1.431903 S    
O13   C9    1.276111 A    
Zn1   O8    1.936184 S    
N5    O62   1.298523 A    
N4    O59   1.301066 A    
Zn2   O7    1.945060 S    
C173  C177  1.391740 A    
Zn3   O6    1.935534 S    
O18   C14   1.275618 A    
O31   C10   1.278531 A    
C106  C146  1.415680 A    
C25   H9    1.113068 S    
C110  C150  1.415794 A    
C93   C101  1.428132 A    
C32   H16   1.113593 S    
C134  H70   1.083195 S    
C98   C122  1.434114 A    
C59   H55   1.082843 S    
Zn15  O3    1.959038 S    
C74   C90   1.415919 A    
Zn11  O3    1.960316 S    
O41   C21   1.275121 A    
C56   C60   1.388969 A    
C66   H62   1.082207 S    
Zn16  O34   1.935615 S    
C31   H15   1.113059 S    
C74   C86   1.409599 A    
C3    C89   1.470660 S    
Zn2   O2    1.939274 S    
O15   C11   1.270986 A    
C90   C98   1.425168 A    
Zn8   O20   1.935578 S    
H87   C180  1.080609 S    
C109  C117  1.405225 A    
C170  C174  1.418484 A    
N7    O65   1.302115 A    
C108  C148  1.415309 A    
C59   C67   1.393550 A    
C47   H43   1.081593 S    
C48   H44   1.082341 S    
C84   C116  1.410556 A    
C69   C77   1.419828 A    
C159  C160  1.387789 A    
C112  C152  1.415891 A    
Zn8   O9    1.944993 S    
C24   C40   1.491112 S    
C19   C168  1.438638 S    
C7    C93   1.459895 S    
H20   C176  1.081319 S    
C56   H52   1.082568 S    
C162  C166  1.413167 A    
C138  C146  1.388058 A    
O7    C3    1.264742 A    
C88   C120  1.409230 A    
C95   C103  1.431817 A    
C16   C120  1.452231 S    
O19   C15   1.270989 A    
C83   C115  1.411130 A    
C142  C150  1.387938 A    
C43   C83   1.417459 A    
C26   H10   1.113366 S    
C27   C38   1.551656 S    
C147  H79   1.082725 S    
Zn6   O18   1.936228 S    
Zn10  O23   1.926355 S    
C49   H45   1.082772 S    
C79   C83   1.412922 A    
C58   C66   1.393391 A    
C168  C172  1.413610 A    
N2    O56   1.300126 A    
Zn15  O36   1.935301 S    
C124  N4    1.429208 S    
O42   C22   1.271534 A    
C97   C109  1.405086 A    
C28   C37   1.554691 S    
C46   H42   1.082414 S    
Zn4   O1    1.941017 S    
C30   C32   1.535390 S    
C121  N1    1.436708 S    
Zn9   O37   1.947741 S    
C35   C36   1.545512 S    
O12   C8    1.273439 A    
H86   C177  1.082481 S    
C53   C57   1.389007 A    
Zn11  O39   1.947741 S    
C46   C54   1.393196 A    
C60   H56   1.082458 S    
H21   C33   1.113161 S    
N3    O58   1.299923 A    
Zn5   O3    1.939276 S    
Zn13  O1    1.959038 S    
C31   H7    1.112987 S    
C54   H50   1.082418 S    
C121  C129  1.403915 A    
C139  C147  1.388104 A    
C171  C172  1.406561 A    
C8    C94   1.451108 S    
C10   C114  1.450564 S    
C126  N6    1.431227 S    
C157  C158  1.388535 A    
C129  H73   1.082793 S    
H24   C33   1.113178 S    
Zn9   O24   1.935361 S    
O28   C5    1.294415 A    
C159  H95   1.081952 S    
C17   C166  1.439360 S    
C163  C164  1.406555 A    
Zn3   O42   1.945800 S    
C161  C165  1.412611 A    
C23   C39   1.489773 S    
Zn7   O4    1.941019 S    
O21   C4    1.283024 A    
C50   C62   1.389211 A    
C44   C52   1.393299 A    
C175  C179  1.392119 A    
C105  C145  1.418296 A    
C143  C151  1.388334 A    
C145  H77   1.081010 S    
C48   C56   1.393119 A    
C102  C126  1.433837 A    
Zn14  O2    1.960011 S    
C78   C94   1.416027 A    
N6    O64   1.300167 A    
C160  H96   1.080598 S    
Zn13  O49   1.948274 S    
O44   C21   1.271093 A    
C28   H12   1.113344 S    
C81   C113  1.411490 A    
Zn12  O27   1.926355 S    
C35   C39   1.550743 S    
C85   C117  1.416158 A    
C46   C86   1.417124 A    
C61   C69   1.393367 A    
C30   C40   1.554276 S    
H19   C175  1.081569 S    
Zn3   O2    1.941019 S    
C127  C135  1.402894 A    
H27   C36   1.112960 S    
O10   C6    1.268420 A    
O46   C24   1.272285 A    
Zn4   O41   1.945802 S    
Zn16  O52   1.947784 S    
C100  C124  1.436827 A    
H88   C179  1.082456 S    
H30   C138  1.082691 S    
Zn16  O4    1.960011 S    
Zn8   O45   1.945802 S    
C41   C49   1.392348 A    
O27   C6    1.292116 A    
C47   C87   1.417597 A    
O39   C19   1.277319 A    
N7    O66   1.299298 A    
C67   H63   1.077953 S    
C158  H94   1.081849 S    
C131  C143  1.386428 A    
C29   C31   1.546920 S    
C156  H92   1.081462 S    
N8    O68   1.301510 A    
C73   C85   1.415055 A    
O24   C1    1.295128 A    
C76   C88   1.408827 A    
C77   C81   1.411526 A    
C79   C95   1.420136 A    
C156  C160  1.393157 A    
O43   C22   1.276151 A    
O14   C10   1.275290 A    
O47   C24   1.274989 A    
Zn3   O15   1.945036 S    
C122  N2    1.431180 S    
Zn5   O12   1.936184 S    
Zn6   O11   1.945060 S    
C101  C105  1.418471 A    
Zn6   O4    1.939274 S    
Zn9   O21   1.925632 S    
Zn14  O50   1.947784 S    
C135  H71   1.083116 S    
O35   C14   1.278352 A    
H18   C174  1.081648 S    
Zn9   O1    1.960316 S    
N4    O60   1.300720 A    
H36   C144  1.082216 S    
O52   C20   1.276964 A    
C55   C59   1.388802 A    
C126  C134  1.399854 A    
C29   H13   1.113131 S    
C154  H90   1.081691 S    
O22   C3    1.297813 A    
C140  C148  1.388418 A    
Zn7   O19   1.945036 S    
C176  C180  1.393465 A    
C50   H46   1.082390 S    
C111  C119  1.406109 A    
C12   C116  1.447534 S    
Zn13  O32   1.935301 S    
C144  C152  1.386763 A    
C2    C92   1.447036 S    
O49   C17   1.276425 A    
Zn14  O31   1.925882 S    
C123  C131  1.403292 A    
C134  C138  1.385755 A    
O51   C19   1.275885 A    
C106  C114  1.412256 A    
C27   H11   1.113056 S    
Zn4   O5    1.944993 S    
C103  C127  1.430750 A    
O20   C16   1.279809 A    
C165  C169  1.411673 A    
C5    C95   1.468656 S    
C26   C38   1.554366 S    
O23   C2    1.276509 A    
O6    C2    1.277882 A    
Zn11  O25   1.925632 S    
C161  C162  1.406684 A    
Zn10  O38   1.948231 S    
C131  H75   1.083071 S    
C124  C132  1.397786 A    
C54   C58   1.389161 A    
C68   H64   1.082215 S    
C69   H65   1.081392 S    
C174  C178  1.393726 A    
C128  C136  1.401302 A    
C125  N5    1.425317 S    
C107  C147  1.415412 A    
N1    O53   1.302352 A    
O17   C13   1.269444 A    
C62   H58   1.082479 S    
C51   H47   1.082749 S    
O45   C23   1.274674 A    
