data_mof_unit_60086.cif
_audit_creation_date              2012-12-10T19:27:22-0500
_audit_creation_method            fapswitch 2.2
_symmetry_space_group_name_H-M    P1
_symmetry_Int_Tables_number       1
_space_group_crystal_system       triclinic
_cell_length_a                    13.899772
_cell_length_b                    16.449427
_cell_length_c                    17.727854
_cell_angle_alpha                 89.975762
_cell_angle_beta                  90.185637
_cell_angle_gamma                 84.864764
_cell_volume                      4037.06322643

loop_
_atom_site_label
_atom_site_type_symbol
_atom_type_description
_atom_site_fract_x
_atom_site_fract_y
_atom_site_fract_z
_atom_type_partial_charge
C1    C     C_R   0.500148 0.499961 0.644790 0.794259
C2    C     C_R   0.499852 0.500039 0.355210 0.794259
C3    C     C_R   0.500128 0.573692 0.153578 -0.148143
C4    C     C_R   0.499872 0.426308 0.846422 -0.148142
C5    C     C_R   0.499666 0.500028 0.114403 0.141514
C6    C     C_R   0.500334 0.499972 0.885597 0.141514
C7    C     C_1   0.499892 0.500007 0.033823 -0.053006
C8    C     C_1   0.500108 0.499993 0.966177 -0.053006
C9    C     C_R   0.439575 0.176193 0.449786 0.069122
C10   C     C_R   0.560425 0.823807 0.550214 0.069122
C11   C     C_R   0.441277 0.261900 0.451270 0.054214
C12   C     C_R   0.558723 0.738100 0.548730 0.054215
C13   C     C_R   0.558410 0.252141 0.548402 0.069783
C14   C     C_R   0.441590 0.747859 0.451598 0.069783
C15   C     C_R   0.559011 0.166329 0.548929 -0.289477
C16   C     C_R   0.440989 0.833671 0.451071 -0.289477
C17   C     C_R   0.499236 0.126980 0.499325 0.085981
C18   C     C_R   0.500764 0.873020 0.500675 0.085981
C19   C     C_1   0.499815 0.037288 0.499832 0.046035
C20   C     C_1   0.500185 0.962712 0.500168 0.046035
C21   C     C_R   0.683365 0.486930 0.500038 0.829770
C22   C     C_R   0.316635 0.513070 0.499962 0.829769
C23   C     C_1   0.213594 0.521030 0.499922 -0.164875
C24   C     C_1   0.786406 0.478970 0.500077 -0.164875
C25   C     C_2   0.023319 0.533694 0.499873 -0.152961
C26   C     C_2   0.976681 0.466306 0.500127 -0.152962
C27   C     C_1   0.873158 0.472637 0.500105 0.018573
C28   C     C_1   0.126842 0.527363 0.499894 0.018573
C29   C     C_R   0.499069 0.426381 0.153646 -0.145474
C30   C     C_R   0.500931 0.573619 0.846353 -0.145474
C31   C     C_R   0.499050 0.426290 0.232285 -0.181294
C32   C     C_R   0.500950 0.573710 0.767715 -0.181293
C33   C     C_R   0.499658 0.500047 0.272262 -0.042504
C34   C     C_R   0.500342 0.499952 0.727738 -0.042504
C35   C     C_R   0.500104 0.573805 0.232216 -0.187427
C36   C     C_R   0.499896 0.426195 0.767784 -0.187428
Cu1   Cu    Cu3+1 0.500000 0.419580 0.500020 0.951992
Cu2   Cu    Cu3+1 0.500000 0.580420 0.499980 0.951992
H1    H     H_    0.015943 0.406128 0.500348 0.165463
H2    H     H_    0.984057 0.593872 0.499652 0.165463
H3    H     H_    0.498665 0.369126 0.123485 0.140327
H4    H     H_    0.501335 0.630874 0.876515 0.140327
H5    H     H_    0.498585 0.368589 0.261675 0.160882
H6    H     H_    0.501415 0.631411 0.738325 0.160882
H7    H     H_    0.500497 0.631515 0.261553 0.154817
H8    H     H_    0.499503 0.368485 0.738446 0.154817
H9    H     H_    0.500557 0.630938 0.123363 0.137898
H10   H     H_    0.499443 0.369062 0.876637 0.137898
H11   H     H_    0.395238 0.299153 0.413085 0.144337
H12   H     H_    0.604762 0.700847 0.586915 0.144337
H13   H     H_    0.604940 0.281394 0.586956 0.130181
H14   H     H_    0.395060 0.718606 0.413044 0.130181
H15   H     H_    0.606034 0.130931 0.587947 0.169039
H16   H     H_    0.393966 0.869069 0.412053 0.169039
N1    N     N_R   0.500030 0.298780 0.500030 -0.182975
N2    N     N_R   0.499970 0.701220 0.499970 -0.182975
O1    O     O_R   0.500010 0.432070 0.608760 -0.587040
O2    O     O_R   0.499990 0.567930 0.391240 -0.587040
O3    O     O_R   0.500000 0.567880 0.608730 -0.586375
O4    O     O_R   0.500000 0.432120 0.391270 -0.586375
O5    O     O_R   0.637850 0.422490 0.500000 -0.574735
O6    O     O_R   0.362150 0.577510 0.500000 -0.574735
O7    O     O_R   0.637840 0.558310 0.499970 -0.573861
O8    O     O_R   0.362160 0.441690 0.500030 -0.573860
I1    I     I_    0.346059 0.124940 0.371951 -0.394038
I2    I     I_    0.653941 0.875060 0.628049 -0.394038

loop_
_geom_bond_atom_site_label_1
_geom_bond_atom_site_label_2
_ccdc_geom_bond_type
C12   H12   S    
C31   C33   A    
C35   H7    S    
C36   H8    S    
Cu1   Cu2   S    
C11   H11   S    
C1    O1    A    
C22   O6    A    
C14   N2    A    
C19   C20   T    
C24   C27   T    
C3    C35   A    
C25   H2    S    
C9    I1    S    
C10   I2    S    
C32   H6    S    
C11   N1    A    
C7    C8    T    
C29   C31   A    
C16   C18   A    
C13   H13   S    
C23   C28   T    
C25   C28   S    
C30   C32   A    
C9    C11   A    
C33   C35   A    
C26   C27   S    
C12   N2    A    
C2    O4    A    
C31   H5    S    
C10   C18   A    
C15   C17   A    
C15   H15   S    
C2    C33   S    
C3    H9    S    
C17   C19   S    
C34   C36   A    
C4    C36   A    
C1    C34   S    
C16   H16   S    
C1    O3    A    
C13   C15   A    
C2    O2    A    
C10   C12   A    
C14   C16   A    
C26   H1    S    
C21   O7    A    
Cu1   O4    S    
C22   O8    A    
Cu2   O3    S    
Cu1   N1    S    
C5    C29   A    
C3    C5    A    
Cu1   O8    S    
Cu2   N2    S    
Cu1   O5    S    
C18   C20   S    
C4    C6    A    
Cu2   O7    S    
C4    H10   S    
C21   C24   S    
C9    C17   A    
C5    C7    S    
C22   C23   S    
C30   H4    S    
C6    C8    S    
C29   H3    S    
C25   C26   D    
Cu2   O2    S    
Cu1   O1    S    
C21   O5    A    
C6    C30   A    
C14   H14   S    
Cu2   O6    S    
C13   N1    A    
C32   C34   A    
