data_mof_unit_66936.cif
_audit_creation_date              2013-03-05T15:57:30-0500
_audit_creation_method            fapswitch 2.2
_symmetry_space_group_name_H-M    P1
_symmetry_Int_Tables_number       1
_space_group_crystal_system       triclinic
_cell_length_a                    17.201203
_cell_length_b                    18.552702
_cell_length_c                    8.417371
_cell_angle_alpha                 90.180272
_cell_angle_beta                  101.882393
_cell_angle_gamma                 89.754392
_cell_volume                      2628.63464676

loop_
_atom_site_label
_atom_site_type_symbol
_atom_site_description
_atom_site_fract_x
_atom_site_fract_y
_atom_site_fract_z
_atom_type_partial_charge
P1    P     P_3+3 0.834140 0.419320 0.003900 0.455522
P2    P     P_3+3 0.834140 0.580680 0.503900 0.453240
P3    P     P_3+3 0.334140 0.919320 0.003900 0.451941
P4    P     P_3+3 0.334140 0.080680 0.503900 0.446781
O1    O     O_2   0.841960 0.394640 0.833410 -0.368893
O2    O     O_2   0.841960 0.605360 0.333410 -0.379002
O3    O     O_2   0.341960 0.894640 0.833410 -0.374733
O4    O     O_2   0.341960 0.105360 0.333410 -0.376509
O5    O     O_3   0.907950 0.463080 0.102990 -0.407948
O6    O     O_3   0.907950 0.536920 0.602990 -0.402909
O7    O     O_3   0.407950 0.963080 0.102990 -0.400397
O8    O     O_3   0.407950 0.036920 0.602990 -0.400174
O9    O     O_3   0.972780 0.329600 0.629720 -0.404357
O10   O     O_3   0.972780 0.670400 0.129720 -0.408085
O11   O     O_3   0.472780 0.829600 0.629720 -0.354967
O12   O     O_3   0.472780 0.170400 0.129720 -0.404269
O13   O     O_2   0.840303 0.273748 0.694889 -0.279098
O14   O     O_2   0.839479 0.726004 0.192106 -0.285509
O15   O     O_2   0.343044 0.772416 0.702255 -0.336407
O16   O     O_2   0.343933 0.230768 0.201332 -0.367091
O17   O     O_3   0.752594 0.477598 0.964207 -0.581022
O18   O     O_3   0.750812 0.524632 0.467594 -0.583159
O19   O     O_3   0.251519 0.976720 0.967310 -0.583318
O20   O     O_3   0.251154 0.024260 0.467225 -0.580177
O21   O     O_3   0.942387 0.181525 0.626760 -0.467019
O22   O     O_3   0.942487 0.818790 0.133902 -0.457274
O23   O     O_3   0.446399 0.682806 0.630534 -0.470469
O24   O     O_3   0.446365 0.320488 0.125682 -0.492725
H1    H     H_    0.059384 0.214315 0.693680 0.141283
H2    H     H_    0.059410 0.786353 0.208806 0.146841
H3    H     H_    0.516703 0.717640 0.465714 0.058497
H4    H     H_    0.557968 0.286445 0.243390 0.153313
C1    C     C_3   0.050580 0.108330 0.590921 -1.091212
C2    C     C_3   0.050931 0.891995 0.104761 -1.094114
C3    C     C_3   0.567188 0.626579 0.602599 -0.966874
C4    C     C_3   0.564196 0.385807 0.116270 -1.009290
H5    H     H_    0.605530 0.663213 0.688950 0.285233
H6    H     H_    0.628272 0.380442 0.115066 0.224203
H7    H     H_    0.113700 0.108790 0.579100 0.250376
H8    H     H_    0.114122 0.891653 0.093437 0.247994
H9    H     H_    0.045343 0.081301 0.704971 0.291355
H10   H     H_    0.044899 0.919525 0.218374 0.290942
H11   H     H_    0.548595 0.580043 0.668280 0.256034
H12   H     H_    0.556616 0.419215 0.221090 0.287361
P5    P     P_3+3 0.165830 0.418670 0.685610 0.435722
P6    P     P_3+3 0.165830 0.581330 0.185610 0.480956
P7    P     P_3+3 0.665830 0.918670 0.685610 0.430108
P8    P     P_3+3 0.665830 0.081330 0.185610 0.425759
P9    P     P_3+3 0.101884 0.264223 0.111624 0.510556
P10   P     P_3+3 0.098903 0.737980 0.610793 0.480049
P11   P     P_3+3 0.602051 0.763922 0.108523 0.475904
P12   P     P_3+3 0.595252 0.240485 0.611903 0.445439
O25   O     O_2   0.157990 0.394030 0.856030 -0.313854
O26   O     O_2   0.157990 0.605970 0.356030 -0.396015
O27   O     O_2   0.657990 0.894030 0.856030 -0.355531
O28   O     O_2   0.657990 0.105970 0.356030 -0.365487
O29   O     O_3   0.027110 0.329490 0.059550 -0.336158
O30   O     O_3   0.027110 0.670510 0.559550 -0.356023
O31   O     O_3   0.527110 0.829490 0.059550 -0.359655
O32   O     O_3   0.527110 0.170510 0.559550 -0.400932
O33   O     O_2   0.162338 0.277535 0.002885 -0.338633
O34   O     O_2   0.156634 0.728131 0.494218 -0.359199
O35   O     O_2   0.664950 0.781784 0.008673 -0.335804
O36   O     O_2   0.656293 0.230716 0.501919 -0.363720
O37   O     O_3   0.254332 0.466915 0.721326 -0.630476
O38   O     O_3   0.248016 0.522702 0.205390 -0.522664
O39   O     O_3   0.753649 0.968354 0.718945 -0.636149
O40   O     O_3   0.754920 0.033068 0.220090 -0.631341
O41   O     O_3   0.062250 0.180896 0.040650 -0.491757
O42   O     O_3   0.054206 0.820598 0.547765 -0.479932
O43   O     O_3   0.566474 0.682829 0.018079 -0.474623
O44   O     O_3   0.549375 0.322702 0.545998 -0.539363
C5    C     C_3   0.038254 0.144010 0.167614 0.429670
C6    C     C_3   0.035459 0.857212 0.681388 0.444370
C7    C     C_3   0.544489 0.638834 0.135183 0.389410
C8    C     C_3   0.467467 0.320926 0.546461 0.435311
H13   H     H_    0.981103 0.166355 0.187147 0.079064
H14   H     H_    0.978365 0.837073 0.704891 0.071135
H15   H     H_    0.488961 0.660128 0.163418 0.097837
H16   H     H_    0.435509 0.346314 0.433168 0.148320
H17   H     H_    0.081736 0.146681 0.283473 0.039906
H18   H     H_    0.080331 0.851670 0.794361 0.037509
H19   H     H_    0.589885 0.635856 0.248292 0.023871
H20   H     H_    0.440802 0.266724 0.546776 0.119267
C9    C     C_3   0.030874 0.064690 0.125119 -1.020297
C10   C     C_3   0.031420 0.937212 0.645791 -1.028412
C11   C     C_3   0.534529 0.562714 0.069429 -0.969407
C12   C     C_3   0.450937 0.363826 0.689357 -1.113814
H21   H     H_    0.507382 0.562539 0.938100 0.269112
H22   H     H_    0.386225 0.372355 0.676108 0.251067
H23   H     H_    0.993834 0.037792 0.200695 0.218886
H24   H     H_    0.995677 0.964702 0.723839 0.218391
H25   H     H_    0.003766 0.057190 0.994892 0.277000
H26   H     H_    0.004527 0.947201 0.516444 0.278466
H27   H     H_    0.593101 0.535317 0.088184 0.260435
H28   H     H_    0.481280 0.416849 0.698183 0.270485
C13   C     C_3   0.265378 0.484211 0.351653 0.435570
C14   C     C_3   0.251779 0.529236 0.812424 0.265680
C15   C     C_3   0.754286 0.972751 0.317219 0.275434
C16   C     C_3   0.752032 0.029280 0.814987 0.275579
H29   H     H_    0.218676 0.490187 0.423286 0.046255
H30   H     H_    0.213902 0.522881 0.902923 0.118902
H31   H     H_    0.714134 0.978832 0.403940 0.074037
H32   H     H_    0.714087 0.022136 0.905289 0.078956
C17   C     C_3   0.345809 0.510334 0.452326 -0.680815
C18   C     C_3   0.337642 0.543302 0.900351 -0.501444
C19   C     C_3   0.839956 0.962389 0.412273 -0.582720
C20   C     C_3   0.838372 0.041625 0.904336 -0.580199
H33   H     H_    0.355823 0.486145 0.573736 0.162121
H34   H     H_    0.358592 0.496235 0.978356 0.273162
H35   H     H_    0.855710 0.008055 0.498538 0.191169
H36   H     H_    0.857622 0.995739 0.988047 0.190725
H37   H     H_    0.343924 0.569408 0.468331 0.229012
H38   H     H_    0.376710 0.547645 0.811309 0.173724
H39   H     H_    0.881611 0.963983 0.327165 0.220872
H40   H     H_    0.877867 0.041978 0.814899 0.221065
Ba1   Ba    Ba6+2 0.000000 0.447380 0.844850 1.589557
Ba2   Ba    Ba6+2 0.000000 0.552620 0.344850 1.580227
Ba3   Ba    Ba6+2 0.500000 0.947380 0.844850 1.559829
Ba4   Ba    Ba6+2 0.500000 0.052620 0.344850 1.539700
C21   C     C_3   0.775493 0.545458 0.918310 0.369408
C22   C     C_3   0.768478 0.457853 0.405497 0.369039
C23   C     C_3   0.271159 0.043231 0.908538 0.374214
C24   C     C_3   0.270095 0.957248 0.408337 0.380738
H41   H     H_    0.776758 0.544117 0.787697 0.107346
H42   H     H_    0.756698 0.461489 0.271535 0.098600
H43   H     H_    0.269193 0.037945 0.777051 0.112650
H44   H     H_    0.265655 0.961606 0.275910 0.108634
H45   H     H_    0.833557 0.564024 0.989753 0.130577
H46   H     H_    0.830595 0.439804 0.451998 0.115688
H47   H     H_    0.330248 0.063266 0.971728 0.125708
H48   H     H_    0.330023 0.937440 0.467722 0.119474
C25   C     C_3   0.713832 0.599367 0.947105 -0.908008
C26   C     C_3   0.713598 0.401836 0.454276 -0.896556
C27   C     C_3   0.209510 0.098280 0.935286 -0.908562
C28   C     C_3   0.209780 0.902643 0.441238 -0.917482
H49   H     H_    0.654480 0.579596 0.888333 0.276396
H50   H     H_    0.653044 0.424328 0.444494 0.271239
H51   H     H_    0.149775 0.073740 0.908406 0.275537
H52   H     H_    0.150030 0.927523 0.421584 0.276933
H53   H     H_    0.723702 0.652650 0.896801 0.234593
H54   H     H_    0.710806 0.353333 0.376386 0.223860
H55   H     H_    0.209656 0.145746 0.855862 0.226746
H56   H     H_    0.207852 0.855274 0.360132 0.226990
H57   H     H_    0.716256 0.604707 0.078947 0.264925
H58   H     H_    0.735710 0.385871 0.581726 0.276221
H59   H     H_    0.222224 0.116045 0.063656 0.269284
H60   H     H_    0.225735 0.884619 0.568937 0.268948
O45   O     O_3   0.092100 0.536880 0.086720 -0.380648
O46   O     O_3   0.092100 0.463120 0.586720 -0.423036
O47   O     O_3   0.592100 0.036880 0.086720 -0.409379
O48   O     O_3   0.592100 0.963120 0.586720 -0.415333
P13   P     P_3+3 0.898474 0.735586 0.078204 0.537189
P14   P     P_3+3 0.897865 0.265259 0.577295 0.537442
P15   P     P_3+3 0.400041 0.237081 0.080274 0.469763
P16   P     P_3+3 0.398360 0.764961 0.580069 0.523774
C29   C     C_3   0.019413 0.184286 0.595050 0.517074
C30   C     C_3   0.020555 0.815968 0.107894 0.523957
C31   C     C_3   0.494849 0.668518 0.518187 0.361154
C32   C     C_3   0.527957 0.312312 0.128357 0.472776
H61   H     H_    0.020364 0.209766 0.475969 -0.028377
H62   H     H_    0.023958 0.789954 0.990226 -0.025571
H63   H     H_    0.460865 0.635854 0.417776 0.074348
H64   H     H_    0.539080 0.279517 0.024986 0.036479
H65   H     H_    0.601552 0.606093 0.514052 0.221185
H66   H     H_    0.534308 0.412994 0.003024 0.282703
H67   H     H_    0.014485 0.078673 0.486974 0.263172
H68   H     H_    0.014767 0.921281 0.000428 0.266083
H69   H     H_    0.496724 0.532517 0.135826 0.278914
H70   H     H_    0.472339 0.332752 0.800989 0.267663
H71   H     H_    0.090932 0.039676 0.148785 0.279382
H72   H     H_    0.092499 0.959741 0.670867 0.277604
C33   C     C_R   0.137178 0.677850 0.923762 -0.548369
C34   C     C_R   0.136114 0.321913 0.426326 -0.498361
C35   C     C_R   0.633529 0.180105 0.925280 -0.558225
C36   C     C_R   0.635267 0.820713 0.425412 -0.505566
C37   C     C_R   0.860203 0.323734 0.264997 -0.491395
C38   C     C_R   0.862342 0.676925 0.765535 -0.494383
C39   C     C_R   0.360288 0.824189 0.267643 -0.500554
C40   C     C_R   0.360913 0.176124 0.768893 -0.518229
C41   C     C_R   0.787018 0.216225 0.302131 -0.191788
C42   C     C_R   0.789861 0.785788 0.801280 -0.202949
C43   C     C_R   0.285705 0.717617 0.305743 -0.100619
C44   C     C_R   0.288158 0.284867 0.805688 -0.170983
C45   C     C_R   0.844423 0.267981 0.363575 0.177086
C46   C     C_R   0.847093 0.733700 0.863239 0.169307
C47   C     C_R   0.343651 0.768853 0.366917 0.150957
C48   C     C_R   0.345230 0.232630 0.867494 0.234142
C49   C     C_R   0.813923 0.334298 0.109935 0.288629
C50   C     C_R   0.816508 0.666778 0.609823 0.298463
C51   C     C_R   0.315521 0.833678 0.110649 0.288547
C52   C     C_R   0.316096 0.166625 0.611738 0.261260
C53   C     C_R   0.751604 0.283614 0.048364 -0.029551
C54   C     C_R   0.755350 0.718433 0.547399 0.001597
C55   C     C_R   0.255003 0.781614 0.047625 -0.085498
C56   C     C_R   0.255801 0.219038 0.548882 -0.054653
C57   C     C_R   0.240167 0.722154 0.146405 -0.063199
C58   C     C_R   0.241334 0.279048 0.647402 -0.093078
C59   C     C_R   0.738885 0.222638 0.145345 -0.075593
C60   C     C_R   0.741598 0.778967 0.644868 -0.072001
C61   C     C_R   0.181312 0.668673 0.081263 0.273728
C62   C     C_R   0.180489 0.331073 0.583721 0.262073
C63   C     C_R   0.679110 0.169847 0.081814 0.272025
C64   C     C_R   0.680695 0.830958 0.581747 0.297913
C65   C     C_R   0.153742 0.733564 0.825005 0.194303
C66   C     C_R   0.153719 0.266684 0.327086 0.190117
C67   C     C_R   0.647177 0.238034 0.828303 0.263742
C68   C     C_R   0.651644 0.764439 0.326550 0.141731
C69   C     C_R   0.210999 0.785403 0.887378 -0.190168
C70   C     C_R   0.211412 0.214903 0.388900 -0.208135
C71   C     C_R   0.703742 0.290357 0.891425 -0.150793
C72   C     C_R   0.709994 0.713327 0.388376 -0.158212
H73   H     H_    0.277760 0.674029 0.383748 0.207882
H74   H     H_    0.281620 0.329737 0.883373 0.231850
H75   H     H_    0.780929 0.171273 0.378598 0.229012
H76   H     H_    0.783722 0.831169 0.877081 0.231200
H77   H     H_    0.710781 0.335273 0.815120 0.164956
H78   H     H_    0.719991 0.670429 0.309217 0.158274
H79   H     H_    0.219510 0.828939 0.808947 0.170549
H80   H     H_    0.220466 0.171595 0.309607 0.173178
H81   H     H_    0.092413 0.638597 0.873483 0.161829
H82   H     H_    0.091513 0.361462 0.375638 0.173207
H83   H     H_    0.589537 0.140279 0.874520 0.169200
H84   H     H_    0.590378 0.860092 0.375258 0.161323
H85   H     H_    0.906663 0.361741 0.313459 0.160050
H86   H     H_    0.907476 0.637706 0.815381 0.159650
H87   H     H_    0.406237 0.862587 0.316614 0.164221
H88   H     H_    0.406407 0.137147 0.818152 0.171643
C73   C     C_2   0.417834 0.491614 0.384452 0.635737
H89   H     H_    0.476193 0.506612 0.451246 0.002240
O49   O     O_2   0.412482 0.458039 0.258151 -0.560905
C74   C     C_2   0.346310 0.610825 0.998977 0.517030
H90   H     H_    0.340875 0.663039 0.940435 0.114574
O50   O     O_2   0.362122 0.607665 0.146355 -0.626784
C75   C     C_2   0.852144 0.893275 0.505513 0.523537
H91   H     H_    0.852008 0.893104 0.633739 0.048175
O51   O     O_2   0.865304 0.837170 0.439691 -0.481683
C76   C     C_2   0.849961 0.110136 0.000511 0.530396
H92   H     H_    0.849523 0.109628 0.128600 0.047296
O52   O     O_2   0.863717 0.166468 0.937481 -0.483809
C77   C     C_2   0.270794 0.405368 0.314602 0.608182
H93   H     H_    0.290630 0.367665 0.412320 -0.100797
O53   O     O_2   0.257053 0.383497 0.174932 -0.498542
C78   C     C_2   0.219675 0.588437 0.698210 0.424884
H94   H     H_    0.156541 0.590057 0.648794 0.104365
O54   O     O_2   0.263078 0.633720 0.658323 -0.583041
C79   C     C_2   0.727442 0.911928 0.204775 0.590232
H95   H     H_    0.664398 0.903463 0.165084 0.037405
O55   O     O_2   0.774758 0.876665 0.146782 -0.516873
C80   C     C_2   0.720751 0.089636 0.703103 0.561382
H96   H     H_    0.657259 0.094517 0.660839 0.055425
O56   O     O_2   0.765278 0.130297 0.651732 -0.516298

loop_
_geom_bond_atom_site_label_1
_geom_bond_atom_site_label_2
_geom_bond_distance
_ccdc_geom_bond_type
C43   H73   1.070050 S    
C15   H31   1.108609 S    
C12   H28   1.110675 S    
P1    O17   1.744832 S    
O5    Ba2   2.843428 S    
O16   P15   1.546035 D    
C2    H8    1.110501 S    
P12   C67   1.856872 S    
O28   Ba4   2.879432 S    
P4    C52   1.888236 S    
P3    O19   1.748572 S    
C34   H82   1.082286 S    
C35   C67   1.401098 A    
C25   H49   1.102570 S    
O44   C8    1.410255 S    
C33   H81   1.082145 S    
C8    H20   1.107268 S    
C9    H23   1.109636 S    
C37   C45   1.390202 A    
P8    Ba4   3.436420 S    
C10   H24   1.109615 S    
O27   Ba3   2.871618 S    
C27   H51   1.105389 S    
P8    C63   1.899178 S    
P6    Ba2   3.436420 S    
C43   C57   1.409611 A    
C7    H15   1.102057 S    
P12   O32   1.746478 S    
C18   H38   1.108206 S    
C10   H72   1.111293 S    
C32   H64   1.108213 S    
O38   C13   1.402563 S    
C17   H37   1.104963 S    
C3    H5    1.108394 S    
O37   C14   1.390896 S    
C55   C69   1.406054 A    
P3    O3    1.536889 D    
P15   C48   1.846057 S    
O12   Ba4   2.817824 S    
P4    O20   1.748690 S    
O25   Ba1   2.871618 S    
O9    Ba1   2.812095 S    
C53   C71   1.410962 A    
C39   C47   1.393028 A    
P13   C46   1.843294 S    
O13   P14   1.544751 D    
O23   C31   1.407204 S    
C11   H69   1.097209 S    
O20   C24   1.398815 S    
P9    O29   1.752294 S    
C78   H94   1.080304 S    
C24   H48   1.110512 S    
C33   C61   1.395985 A    
C77   H93   1.080870 S    
C42   C46   1.399502 A    
C29   H61   1.112762 S    
C5    H17   1.101167 S    
P4    O4    1.539921 D    
Ba2   O46   2.842948 S    
O30   Ba2   2.811411 S    
C36   C64   1.398087 A    
C22   C26   1.520041 S    
C17   H33   1.097814 S    
C40   C48   1.394590 A    
C21   H41   1.104307 S    
P7    O48   1.594373 S    
P5    O37   1.740861 S    
C9    H25   1.107914 S    
P6    C61   1.891360 S    
C54   C60   1.436033 A    
C36   C68   1.396564 A    
C18   C74   1.491594 S    
P5    C62   1.875381 S    
O10   Ba2   2.817824 S    
C37   C49   1.395745 A    
C11   H27   1.108599 S    
P2    O18   1.749153 S    
O24   P15   1.748419 S    
C75   H91   1.079818 S    
O11   Ba3   2.812095 S    
C57   C61   1.444511 A    
Ba1   O46   2.956600 S    
O23   P16   1.742168 S    
P4    O8    1.589366 S    
C10   H26   1.107638 S    
C8    C12   1.514573 S    
C14   C78   1.489427 S    
P8    O28   1.536206 D    
C49   C53   1.441767 A    
C28   H52   1.105960 S    
C24   H44   1.104697 S    
C56   C70   1.406674 A    
Ba1   O45   2.843398 S    
P7    Ba3   3.431318 S    
P7    O27   1.539233 D    
P5    O25   1.539233 D    
C2    H10   1.106131 S    
P9    O41   1.745600 S    
C59   C63   1.442673 A    
O15   P16   1.543783 D    
C75   O51   1.219714 D    
P2    O2    1.539921 D    
P11   O43   1.739653 S    
C6    H18   1.099225 S    
C2    H68   1.108406 S    
O7    Ba4   2.843428 S    
P7    O39   1.745293 S    
C1    C29   1.508419 S    
O18   C22   1.399489 S    
C50   C54   1.438095 A    
C3    C31   1.513163 S    
C79   O55   1.218917 D    
P11   O31   1.755659 S    
Ba3   O47   2.843398 S    
C71   H77   1.076047 S    
P14   C45   1.844719 S    
C76   O52   1.219433 D    
Ba4   O48   2.842948 S    
C16   C20   1.538057 S    
C24   C28   1.519362 S    
C69   H79   1.074179 S    
P1    O5    1.592242 S    
O3    Ba3   2.875972 S    
P11   O35   1.538212 D    
C56   C58   1.437347 A    
P12   O36   1.545948 D    
C70   H80   1.074092 S    
C41   C45   1.399718 A    
P11   C68   1.857705 S    
H1    C29   1.112500 S    
C12   H70   1.099986 S    
C16   H32   1.107715 S    
C80   H96   1.080223 S    
C14   H30   1.106481 S    
C67   C71   1.401176 A    
C54   C72   1.406819 A    
C40   H88   1.081966 S    
C39   H87   1.082087 S    
C6    C10   1.513562 S    
C20   H36   1.111805 S    
O1    Ba1   2.875972 S    
C77   O53   1.219049 D    
P10   O30   1.751716 S    
C22   H42   1.106063 S    
Ba2   O45   2.953907 S    
P2    Ba2   3.429097 S    
O42   C6    1.404703 S    
C73   H89   1.081761 S    
P12   O44   1.752694 S    
C43   C47   1.398532 A    
C60   C64   1.440656 A    
C26   H54   1.107069 S    
O8    Ba3   2.842981 S    
C66   C70   1.400274 A    
C13   H29   1.104300 S    
C44   H74   1.076690 S    
C34   C62   1.396417 A    
C65   C69   1.400929 A    
C68   C72   1.399031 A    
C19   H39   1.113176 S    
P6    O26   1.536206 D    
O12   P15   1.744910 S    
C4    H66   1.107406 S    
C42   C60   1.410094 A    
C41   H75   1.073631 S    
C1    H7    1.110572 S    
P8    O40   1.743869 S    
Ba3   Ba4   4.633953 S    
O41   C5    1.403386 S    
C5    C9    1.513025 S    
O11   P16   1.743890 S    
C28   H60   1.105685 S    
O14   P13   1.543987 D    
P3    Ba3   3.434086 S    
O39   C16   1.391117 S    
C58   C62   1.441491 A    
C2    C30   1.508451 S    
C27   H59   1.106830 S    
C7    C11   1.512671 S    
C12   H22   1.106351 S    
C4    C32   1.514072 S    
C44   C58   1.411897 A    
O26   Ba2   2.879432 S    
O24   C32   1.406586 S    
C40   C52   1.398205 A    
P10   O34   1.543042 D    
P1    O1    1.536889 D    
C4    H12   1.105838 S    
C25   H57   1.106088 S    
C15   C79   1.483287 S    
C41   C59   1.411213 A    
C52   C56   1.438678 A    
C23   H43   1.104382 S    
C3    H11   1.109752 S    
O4    Ba4   2.868238 S    
O29   Ba1   2.817143 S    
C18   H34   1.107693 S    
P16   C47   1.847925 S    
P5    Ba1   3.431318 S    
Ba3   O48   2.956600 S    
H2    C30   1.111798 S    
C19   C75   1.496776 S    
C76   H92   1.079822 S    
P5    O46   1.594373 S    
Ba4   O47   2.953907 S    
O31   Ba3   2.817143 S    
C36   H84   1.082151 S    
C23   H47   1.110651 S    
O21   P14   1.742338 S    
C19   H35   1.111557 S    
C13   C17   1.545134 S    
P4    Ba4   3.429097 S    
P2    C50   1.880611 S    
C21   H45   1.110022 S    
C74   O50   1.215615 D    
C26   H50   1.107706 S    
O19   C23   1.399189 S    
C8    H16   1.103713 S    
C42   H76   1.072707 S    
C73   O49   1.217672 D    
P6    O38   1.760787 S    
C15   C19   1.536787 S    
C16   C80   1.491006 S    
C14   C18   1.532695 S    
P1    C49   1.883367 S    
C26   H58   1.102859 S    
C1    H9    1.104635 S    
C20   H40   1.113108 S    
C4    H6    1.108372 S    
P10   O42   1.746144 S    
O40   C15   1.389376 S    
C35   C63   1.400685 A    
O32   Ba4   2.811411 S    
O10   P13   1.745305 S    
O6    Ba1   2.842981 S    
C53   C59   1.440669 A    
Ba1   Ba2   4.633953 S    
O43   C7    1.393588 S    
P9    O33   1.541326 D    
C7    H19   1.101383 S    
C72   H78   1.072215 S    
O2    Ba2   2.868238 S    
C38   C50   1.396097 A    
C27   H55   1.107627 S    
C74   H90   1.083148 S    
C3    H65   1.107738 S    
C78   O54   1.219127 D    
P7    C64   1.886089 S    
O22   C30   1.405111 S    
C31   H63   1.104384 S    
C20   C76   1.496643 S    
O17   C21   1.399795 S    
P3    C51   1.888482 S    
C51   C55   1.440846 A    
O9    P14   1.748118 S    
C38   H86   1.082195 S    
H4    C32   1.108748 S    
P3    O7    1.592242 S    
C30   H62   1.112648 S    
O21   C29   1.405569 S    
C37   H85   1.082156 S    
C38   C46   1.391281 A    
P10   C65   1.856752 S    
C44   C48   1.399417 A    
C9    H71   1.110863 S    
C39   C51   1.396977 A    
P9    C66   1.849380 S    
C5    H13   1.108136 S    
C28   H56   1.107544 S    
C6    H14   1.107620 S    
P8    O47   1.597285 S    
C23   C27   1.518511 S    
C34   C66   1.391240 A    
C11   H21   1.107921 S    
C35   H83   1.082020 S    
C1    H67   1.109049 S    
O22   P13   1.742167 S    
C33   C65   1.395020 A    
C25   H53   1.104090 S    
C13   C77   1.501161 S    
C21   C25   1.509709 S    
P6    O45   1.597285 S    
P1    Ba1   3.434086 S    
C80   O56   1.219058 D    
C22   H46   1.110201 S    
H3    C31   1.113908 S    
C79   H95   1.078987 S    
C17   C73   1.506162 S    
C55   C57   1.438394 A    
P2    O6    1.589366 S    
