data_mof_unit_59562.cif
_audit_creation_date              2012-12-10T18:13:13-0500
_audit_creation_method            fapswitch 2.2
_symmetry_space_group_name_H-M    P1
_symmetry_Int_Tables_number       1
_space_group_crystal_system       triclinic
_cell_length_a                    10.828632
_cell_length_b                    9.539672
_cell_length_c                    19.270215
_cell_angle_alpha                 89.781232
_cell_angle_beta                  85.358184
_cell_angle_gamma                 90.850838
_cell_volume                      1983.87091181

loop_
_atom_site_label
_atom_site_type_symbol
_atom_type_description
_atom_site_fract_x
_atom_site_fract_y
_atom_site_fract_z
_atom_type_partial_charge
C1    C     C_R   0.260472 0.498949 0.501445 0.765817
C2    C     C_R   0.427149 0.508454 0.074746 0.416009
C3    C     C_R   0.404512 0.621193 0.818925 -0.243604
C4    C     C_R   0.465434 0.379921 0.823195 -0.257953
C5    C     C_R   0.420429 0.620919 0.745331 0.460483
C6    C     C_R   0.487121 0.375815 0.750173 0.441009
C7    C     C_R   0.466547 0.498603 0.710718 -0.193346
C8    C     C_R   0.429374 0.502580 0.857605 -0.056479
C9    C     C_3   0.072050 0.603943 0.560001 -0.395194
C10   C     C_3   0.069582 0.349669 0.525030 -0.399784
C11   C     C_3   0.932173 0.624464 0.554731 0.312355
C12   C     C_3   0.926374 0.353757 0.535418 0.280210
C13   C     C_3   0.080186 0.536446 0.433104 -0.447857
C14   C     C_3   0.123287 0.497191 0.504810 0.022603
C15   C     C_3   0.878105 0.500384 0.511262 -0.152160
C16   C     C_R   0.493256 0.500413 0.368059 0.874543
C17   C     C_3   0.937931 0.521738 0.435032 -0.478461
C18   C     C_3   0.582286 0.083597 0.551905 -0.204611
C19   C     C_3   0.575284 0.918058 0.555476 -0.193378
C20   C     C_3   0.374708 0.080613 0.518560 -0.302932
C21   C     C_3   0.373875 0.915000 0.515084 -0.308958
C22   C     C_3   0.547785 0.086425 0.430249 0.291573
C23   C     C_3   0.553449 0.916004 0.431205 0.348656
C24   C     C_R   0.738910 0.500651 0.506786 0.970513
C25   C     C_R   0.489099 0.499358 0.633031 0.933940
C26   C     C_R   0.500185 0.626023 0.254033 -0.137715
C27   C     C_R   0.433624 0.382464 0.260442 -0.201389
C28   C     C_R   0.481593 0.628901 0.183311 -0.145542
C29   C     C_R   0.415878 0.384933 0.189632 -0.126891
C30   C     C_R   0.440210 0.508027 0.150289 0.053632
C31   C     C_R   0.477688 0.502264 0.293007 -0.029800
C32   C     C_R   0.420180 0.505958 0.934347 0.474704
Cu1   Cu    Cu3+1 0.499860 0.642410 0.500030 1.023335
Cu2   Cu    Cu3+1 0.499860 0.357590 0.500030 1.009457
H1    H     H_    0.532598 0.720662 0.278026 0.184321
H2    H     H_    0.411045 0.287355 0.289900 0.128472
H3    H     H_    0.903475 0.617096 0.411034 0.250191
H4    H     H_    0.914267 0.432003 0.401790 0.253505
H5    H     H_    0.556711 0.125286 0.604332 0.227778
H6    H     H_    0.535307 0.885690 0.607918 0.190574
H7    H     H_    0.679530 0.117428 0.537785 0.236658
H8    H     H_    0.669549 0.874798 0.551627 0.257072
H9    H     H_    0.338332 0.114504 0.571418 0.191163
H10   H     H_    0.329482 0.871405 0.564782 0.211097
H11   H     H_    0.474944 0.110730 0.394601 0.010585
H12   H     H_    0.490153 0.881279 0.391742 0.028477
H13   H     H_    0.309405 0.120694 0.481812 0.165816
H14   H     H_    0.314519 0.880983 0.473577 0.154925
H15   H     H_    0.501346 0.725276 0.154393 0.165351
H16   H     H_    0.382635 0.290454 0.165831 0.159097
H17   H     H_    0.368966 0.711950 0.846860 0.163008
H18   H     H_    0.477731 0.287296 0.854110 0.169739
H19   H     H_    0.119478 0.707933 0.552776 0.171390
H20   H     H_    0.096934 0.274108 0.482791 0.160039
H21   H     H_    0.091688 0.565071 0.612366 0.234818
H22   H     H_    0.111606 0.310358 0.571926 0.217047
H23   H     H_    0.925068 0.720324 0.523149 0.157098
H24   H     H_    0.891479 0.272620 0.500496 0.161378
H25   H     H_    0.109286 0.646280 0.419504 0.188152
H26   H     H_    0.123739 0.467261 0.391939 0.190331
N1    N     N_R   0.413907 0.385982 0.040431 -0.229746
N2    N     N_R   0.434524 0.630063 0.037633 -0.230180
N3    N     N_R   0.410839 0.384755 0.971635 -0.228332
N4    N     N_R   0.430951 0.628887 0.968742 -0.226863
N5    N     N_3   0.500250 0.143650 0.501520 -0.207500
N6    N     N_3   0.500250 0.856350 0.501520 -0.204537
O1    O     O_R   0.317570 0.620260 0.500040 -0.613099
O2    O     O_R   0.317570 0.379740 0.500040 -0.620584
O3    O     O_R   0.499870 0.620300 0.400170 -0.564843
O4    O     O_R   0.499870 0.379700 0.400170 -0.558209
O5    O     O_R   0.682190 0.620260 0.500020 -0.503891
O6    O     O_R   0.682190 0.379740 0.500020 -0.532886
O7    O     O_R   0.499890 0.620220 0.599880 -0.531031
O8    O     O_R   0.499890 0.379780 0.599880 -0.540742
S1    S     S_3+6 0.688667 0.172618 0.382177 0.067304
O9    O     O_2   0.708446 0.327704 0.378461 -0.279845
O10   O     O_2   0.806224 0.119586 0.407861 -0.250685
O11   O     O_3   0.682010 0.133075 0.297459 -0.451848
H27   H     H_    0.599884 0.164626 0.285372 0.321888
S2    S     S_3+6 0.706305 0.841425 0.396008 0.043829
O12   O     O_2   0.707732 0.689215 0.378697 -0.298747
O13   O     O_2   0.751643 0.904413 0.327342 -0.206598
O14   O     O_3   0.814441 0.870095 0.452274 -0.550862
H28   H     H_    0.894884 0.869254 0.423833 0.366693
O15   O     O_3   0.379508 0.730434 0.705058 -0.574786
C33   C     C_3   0.389846 0.862933 0.736517 -0.284952
H29   H     H_    0.480355 0.876399 0.759328 0.154042
H30   H     H_    0.310844 0.879870 0.775869 0.186385
H31   H     H_    0.384208 0.945332 0.696203 0.186679
O16   O     O_3   0.518923 0.251904 0.715374 -0.574503
C34   C     C_3   0.594367 0.163937 0.752782 -0.268575
H32   H     H_    0.536927 0.101273 0.792163 0.141213
H33   H     H_    0.667889 0.223451 0.777774 0.185775
H34   H     H_    0.641399 0.088931 0.716018 0.211630
S3    S     S_3+6 0.859594 0.676808 0.638149 -0.000845
O17   O     O_2   0.721707 0.661894 0.641264 -0.334410
O18   O     O_2   0.907294 0.596494 0.697295 -0.246214
O19   O     O_3   0.895413 0.846984 0.648575 -0.495890
H35   H     H_    0.848557 0.874280 0.692619 0.383595
S4    S     S_3+6 0.872741 0.295722 0.621988 0.004915
O20   O     O_2   0.854489 0.139492 0.621091 -0.289805
O21   O     O_2   0.966182 0.329975 0.673282 -0.270064
O22   O     O_3   0.737446 0.369200 0.647621 -0.508644
H36   H     H_    0.744418 0.396637 0.696614 0.394901

loop_
_geom_bond_atom_site_label_1
_geom_bond_atom_site_label_2
_ccdc_geom_bond_type
S1    O9    D    
C21   N6    S    
C27   C29   A    
S3    O17   D    
C4    C8    A    
S3    O19   S    
C13   H26   S    
O15   C33   S    
C18   N5    S    
Cu1   O1    S    
C4    H18   S    
C23   N6    S    
C25   O8    A    
C33   H30   S    
C1    O2    A    
C19   N6    S    
C18   C19   S    
N1    N3    A    
N2    N4    A    
C11   C15   S    
C9    H21   S    
C23   S2    S    
C10   H22   S    
Cu2   O4    S    
C2    N1    A    
Cu1   O3    S    
C21   H14   S    
C5    O15   S    
C26   C31   A    
C23   H12   S    
C13   C14   S    
C22   S1    S    
S2    O14   S    
Cu2   N5    S    
Cu1   N6    S    
C29   H16   S    
C27   C31   A    
C8    C32   S    
C20   N5    S    
C16   O4    A    
C32   N4    A    
C4    C6    A    
C3    C8    A    
C10   C14   S    
C18   H7    S    
Cu2   O2    S    
C34   H32   S    
C5    C7    A    
C9    C14   S    
C3    H17   S    
C33   H29   S    
C6    O16   S    
S4    O22   S    
C16   C31   S    
C18   H5    S    
C22   N5    S    
C29   C30   A    
C34   H33   S    
C21   H10   S    
C9    C11   S    
C28   H15   S    
O14   H28   S    
C12   C15   S    
S4    O21   D    
Cu1   Cu2   S    
C17   H3    S    
S1    O10   D    
C10   C12   S    
Cu2   O8    S    
Cu1   O7    S    
C15   C24   S    
C9    H19   S    
Cu2   O6    S    
C20   H9    S    
C24   O6    A    
C11   S3    S    
C15   C17   S    
O11   H27   S    
C16   O3    A    
C32   N3    A    
S2    O12   D    
C3    C5    A    
C33   H31   S    
S3    O18   D    
C6    C7    A    
C13   H25   S    
C27   H2    S    
C26   C28   A    
C7    C25   S    
C13   C17   S    
C2    C30   S    
C28   C30   A    
C12   H24   S    
C34   H34   S    
C19   H8    S    
O16   C34   S    
S4    O20   D    
C1    O1    A    
S2    O13   D    
C25   O7    A    
C17   H4    S    
C10   H20   S    
S1    O11   S    
C12   S4    S    
C20   H13   S    
C19   H6    S    
Cu1   O5    S    
C26   H1    S    
C22   H11   S    
C20   C21   S    
O19   H35   S    
O22   H36   S    
C22   C23   S    
C1    C14   S    
C11   H23   S    
C2    N2    A    
C24   O5    A    
