data_mof_unit_47889.cif
_audit_creation_date              2012-12-11T14:36:10-0500
_audit_creation_method            fapswitch 2.2
_symmetry_space_group_name_H-M    P1
_symmetry_Int_Tables_number       1
_space_group_crystal_system       triclinic
_cell_length_a                    13.461924
_cell_length_b                    13.53653
_cell_length_c                    27.477784
_cell_angle_alpha                 90.863205
_cell_angle_beta                  90.18982
_cell_angle_gamma                 60.225489
_cell_volume                      4345.6509439

loop_
_atom_site_label
_atom_site_type_symbol
_atom_type_description
_atom_site_fract_x
_atom_site_fract_y
_atom_site_fract_z
_atom_type_partial_charge
C1    C     C_R   0.620319 0.101186 0.570202 0.537574
C2    C     C_1   0.631986 0.731351 0.616218 -0.008104
C3    C     C_3   0.627509 0.601835 0.770093 -0.110082
C4    C     C_3   0.682905 0.650072 0.805020 0.042813
C5    C     C_3   0.563915 0.718762 0.745138 -0.073040
C6    C     C_3   0.666253 0.679898 0.710331 0.048393
C7    C     C_3   0.619526 0.766607 0.780780 -0.080945
C8    C     C_3   0.721793 0.728077 0.745237 -0.106190
C9    C     C_1   0.690606 0.630315 0.857492 -0.054743
C10   C     C_1   0.651259 0.702899 0.658097 -0.052296
C11   C     C_3   0.087658 0.136780 0.737918 -0.138946
C12   C     C_R   0.599743 0.779575 0.568761 0.553413
C13   C     C_3   0.179284 0.062424 0.776000 -0.065487
C14   C     C_1   0.096570 0.201826 0.901792 -0.006861
C15   C     C_1   0.227075 0.139312 0.616898 -0.016901
C16   C     C_3   0.054684 0.244458 0.769784 -0.121645
C17   C     C_3   0.146715 0.169932 0.806990 0.017368
C18   C     C_3   0.144989 0.263168 0.742919 -0.147434
C19   C     C_3   0.177245 0.155811 0.711504 0.046512
C20   C     C_3   0.236657 0.189209 0.781117 -0.093768
C21   C     C_3   0.267382 0.083382 0.749186 0.320359
C22   C     C_1   0.124158 0.182977 0.859511 -0.051171
C23   C     C_R   0.277106 0.122124 0.569410 0.545112
C24   C     C_1   0.198520 0.148598 0.658969 -0.050402
C25   C     C_3   0.714935 0.222152 0.738579 -0.098926
C26   C     C_3   0.611053 0.287788 0.773276 -0.094554
C27   C     C_1   0.691317 0.208093 0.902970 -0.010371
C28   C     C_1   0.635821 0.133553 0.618301 -0.018030
C29   C     C_3   0.767344 0.121349 0.774226 -0.096194
C30   C     C_3   0.663288 0.186682 0.808107 0.053678
C31   C     C_3   0.703577 0.067287 0.748029 -0.104187
C32   C     C_3   0.651305 0.168300 0.713115 0.049648
C33   C     C_3   0.599727 0.132848 0.782660 -0.110801
C34   C     C_R   0.622761 0.100255 0.431658 0.540779
C35   C     C_3   0.547212 0.233714 0.746962 -0.106639
C36   C     C_1   0.674623 0.197202 0.860659 -0.055059
C37   C     C_1   0.644255 0.152923 0.660588 -0.063964
C38   C     C_R   0.749762 0.682372 0.364098 0.274273
C39   C     C_R   0.758565 0.675834 0.312267 0.020514
C40   C     C_R   0.766528 0.659229 0.209335 -0.025683
C41   C     C_R   0.852279 0.667493 0.234820 -0.126956
C42   C     C_R   0.848375 0.679477 0.286306 0.309110
C43   C     C_R   0.774361 0.640591 0.158787 -0.124131
C44   C     C_R   0.686895 0.633061 0.133948 0.003935
C45   C     C_R   0.603836 0.772719 0.431362 0.580454
C46   C     C_R   0.565403 0.690102 0.359533 -0.175313
C47   C     C_R   0.575735 0.674870 0.309835 0.007611
C48   C     C_R   0.669426 0.672327 0.285616 -0.025470
C49   C     C_R   0.487627 0.671944 0.283874 -0.119717
C50   C     C_R   0.489354 0.670132 0.233569 -0.119788
C51   C     C_R   0.581355 0.667007 0.208874 0.035246
C52   C     C_R   0.672451 0.666738 0.234660 0.052297
C53   C     C_R   0.586629 0.656587 0.158714 -0.088043
C54   C     C_R   0.644881 0.706452 0.385850 -0.017608
C55   C     C_R   0.239666 0.043101 0.354627 -0.131692
C56   C     C_R   0.279238 0.119306 0.430725 0.551213
C57   C     C_R   0.217372 0.055423 0.304643 0.015021
C58   C     C_R   0.184665 0.080509 0.202663 0.001894
C59   C     C_R   0.223093 0.974019 0.224600 -0.112180
C60   C     C_R   0.238623 0.961970 0.274949 -0.149343
C61   C     C_R   0.164774 0.097279 0.151752 0.238651
C62   C     C_R   0.110756 0.210135 0.134265 0.002699
C63   C     C_R   0.178392 0.244324 0.362672 -0.111477
C64   C     C_R   0.157636 0.257200 0.313109 0.017631
C65   C     C_R   0.178182 0.162499 0.283660 0.067521
C66   C     C_R   0.122563 0.362530 0.292305 -0.114930
C67   C     C_3   0.729719 0.563160 0.734544 -0.105104
C68   C     C_R   0.104384 0.375776 0.242641 -0.122909
C69   C     C_R   0.123056 0.283122 0.213271 0.000274
C70   C     C_R   0.161739 0.175096 0.233135 0.022452
C71   C     C_R   0.098150 0.299551 0.164552 -0.173813
C72   C     C_R   0.224627 0.136879 0.383216 -0.007008
C73   C     C_R   0.564056 0.240947 0.364327 -0.126698
C74   C     C_R   0.572144 0.260324 0.314867 0.026896
C75   C     C_R   0.583456 0.289219 0.214035 0.020363
C76   C     C_R   0.498347 0.376885 0.242802 -0.120056
C77   C     C_R   0.491501 0.361758 0.292763 -0.123863
C78   C     C_3   0.785518 0.610886 0.770327 -0.101720
C79   C     C_R   0.594154 0.303866 0.164242 -0.131186
C80   C     C_R   0.680771 0.214550 0.136556 -0.021744
C81   C     C_R   0.739126 0.058258 0.357707 -0.119013
C82   C     C_R   0.744720 0.073708 0.308313 -0.037150
C83   C     C_R   0.660249 0.173822 0.286429 0.048041
C84   C     C_R   0.830631 0.987050 0.280250 -0.100972
C85   C     C_R   0.831652 0.996246 0.229852 0.268786
C86   C     C_R   0.747112 0.095586 0.207602 0.020109
C87   C     C_R   0.663308 0.186238 0.235989 0.018893
C88   C     C_R   0.749813 0.108505 0.157764 -0.104590
C89   C     C_1   0.698266 0.605919 0.899841 -0.009300
C90   C     C_R   0.645160 0.137393 0.385203 -0.004825
C91   C     C_R   0.049096 0.236420 0.949775 0.559978
C92   C     C_R   0.711749 0.562609 0.948117 0.550797
C93   C     C_R   0.722112 0.225552 0.950957 0.542660
C94   C     C_R   0.050428 0.244289 0.087684 0.603751
C95   C     C_R   0.708073 0.574719 0.086669 0.549089
C96   C     C_R   0.718542 0.234630 0.089600 0.538149
Cr1   Cr    Cr6+3 0.417550 0.169090 0.500530 1.033843
Cr2   Cr    Cr6+3 0.669180 0.913420 0.499920 1.099727
Cr3   Cr    Cr6+3 0.413260 0.917540 0.499520 1.026353
Cr4   Cr    Cr6+3 0.909170 0.177380 0.020380 1.095501
Cr5   Cr    Cr6+3 0.912710 0.429210 0.018220 1.035172
Cr6   Cr    Cr6+3 0.657170 0.432570 0.019030 1.038876
H1    H     H_    0.876810 0.566512 0.781347 0.108420
H2    H     H_    0.298760 0.209392 0.798914 0.102565
H3    H     H_    0.129878 0.346056 0.728999 0.113052
H4    H     H_    0.966012 0.311940 0.778849 0.114754
H5    H     H_    0.572191 0.378581 0.784474 0.100654
H6    H     H_    0.762190 0.258828 0.720086 0.100653
H7    H     H_    0.456535 0.280761 0.735162 0.100029
H8    H     H_    0.552529 0.096213 0.801230 0.111306
H9    H     H_    0.742013 0.976373 0.737001 0.097267
H10   H     H_    0.858073 0.074912 0.786022 0.107693
H11   H     H_    0.851196 0.624649 0.139511 0.128292
H12   H     H_    0.774834 0.479657 0.715151 0.105263
H13   H     H_    0.919643 0.668112 0.213758 0.117660
H14   H     H_    0.517249 0.653822 0.139721 0.163778
H15   H     H_    0.419857 0.668984 0.214001 0.103280
H16   H     H_    0.415822 0.673883 0.302525 0.090096
H17   H     H_    0.488490 0.700604 0.376997 0.140380
H18   H     H_    0.276441 0.959248 0.370367 0.129856
H19   H     H_    0.238066 0.899749 0.203681 0.170049
H20   H     H_    0.760897 0.779812 0.734304 0.098081
H21   H     H_    0.267410 0.879331 0.290687 0.102197
H22   H     H_    0.060917 0.385592 0.151026 0.142242
H23   H     H_    0.075730 0.458137 0.226777 0.096451
H24   H     H_    0.111417 0.433508 0.314576 0.164384
H25   H     H_    0.166287 0.316740 0.384678 0.169479
H26   H     H_    0.539814 0.385850 0.147888 0.127915
H27   H     H_    0.491960 0.303316 0.385713 0.125244
H28   H     H_    0.436625 0.456590 0.226614 0.101509
H29   H     H_    0.423543 0.429372 0.314096 0.102102
H30   H     H_    0.814303 0.038678 0.136059 0.196401
H31   H     H_    0.574658 0.849870 0.800364 0.138856
H32   H     H_    0.896063 0.911618 0.297549 0.155090
H33   H     H_    0.802967 0.979004 0.373599 0.181518
H34   H     H_    0.472638 0.762188 0.734156 0.155945
H35   H     H_    0.588114 0.550421 0.781032 0.102329
H36   H     H_    0.195297 0.979201 0.789884 0.113052
H37   H     H_    0.025973 0.115979 0.720152 0.109735
O1    O     O_R   0.301710 0.195650 0.554160 -0.501831
O2    O     O_R   0.658900 0.818120 0.449760 -0.421700
O3    O     O_R   0.503220 0.801620 0.445520 -0.538966
O4    O     O_R   0.319370 0.022040 0.450020 -0.505248
O5    O     O_3   0.499990 0.000010 0.499990 -0.265627
O6    O     O_R   0.818720 0.150820 0.967160 -0.503902
O7    O     O_R   0.006410 0.181720 0.970200 -0.484381
O8    O     O_R   0.027890 0.334070 0.964920 -0.504792
O9    O     O_R   0.809600 0.521790 0.967960 -0.495671
O10   O     O_R   0.635520 0.542770 0.964420 -0.500947
O11   O     O_R   0.665950 0.325030 0.970100 -0.496167
O12   O     O_R   0.522390 0.158990 0.550460 -0.498117
O13   O     O_R   0.816620 0.158530 0.074540 -0.505072
O14   O     O_R   0.004460 0.188870 0.069750 -0.432548
O15   O     O_R   0.025800 0.341780 0.072300 -0.533048
O16   O     O_R   0.807650 0.528950 0.067500 -0.505416
O17   O     O_R   0.633420 0.550490 0.071810 -0.513661
O18   O     O_R   0.664000 0.332180 0.069640 -0.502035
O19   O     O_3   0.826350 0.346390 0.019210 -0.267668
O20   O     O_R   0.694390 0.003530 0.554040 -0.507716
O21   O     O_R   0.657700 0.819660 0.549320 -0.484250
O22   O     O_R   0.501930 0.803280 0.552920 -0.508194
O23   O     O_R   0.318170 0.023580 0.549580 -0.495294
O24   O     O_R   0.303010 0.193990 0.446760 -0.509442
O25   O     O_R   0.523600 0.157450 0.450900 -0.504578
O26   O     O_R   0.695690 0.001860 0.446640 -0.488702
S1    S     S_3+6 0.870118 0.643445 0.402762 0.046933
O27   O     O_2   0.851235 0.604394 0.451055 -0.291950
O28   O     O_2   0.975966 0.547782 0.379906 -0.308814
O29   O     O_3   0.888542 0.756450 0.411847 -0.487154
H38   H     H_    0.958678 0.727651 0.431781 0.349972
O30   O     O_3   0.918104 0.711324 0.311954 -0.501911
C97   C     C_3   0.023245 0.681457 0.289067 -0.113569
H39   H     H_    0.011018 0.737431 0.258130 0.141905
H40   H     H_    0.069387 0.591925 0.276836 0.092680
H41   H     H_    0.078567 0.693183 0.315810 0.140114
S2    S     S_3+6 0.215727 0.980605 0.109613 -0.011632
O31   O     O_2   0.329348 0.884825 0.125723 -0.312003
O32   O     O_2   0.130642 0.939614 0.106458 -0.323927
O33   O     O_3   0.233258 0.020691 0.054096 -0.511946
H42   H     H_    0.250457 0.955159 0.032268 0.365599
O34   O     O_3   0.913625 0.906878 0.202219 -0.591370
C98   C     C_3   0.016012 0.911096 0.204457 -0.127899
H43   H     H_    0.050033 0.898463 0.242188 0.086260
H44   H     H_    0.003849 0.992775 0.190007 0.162119
H45   H     H_    0.081278 0.840751 0.181551 0.178662
O35   O     O_3   0.379639 0.993079 0.740482 -0.592784
C99   C     C_3   0.441791 0.029486 0.711786 -0.125685
H46   H     H_    0.417459 0.120079 0.718254 0.105571
H47   H     H_    0.432109 0.014638 0.672695 0.141103
H48   H     H_    0.533921 0.977046 0.720546 0.132718

loop_
_geom_bond_atom_site_label_1
_geom_bond_atom_site_label_2
_ccdc_geom_bond_type
Cr4   O14   S    
C59   H19   S    
C5    H34   S    
C66   C68   A    
O30   C97   S    
C8    C78   S    
Cr5   O9    S    
C92   O9    A    
C50   H15   S    
C41   C42   A    
Cr3   O3    S    
C83   C87   A    
C74   C83   A    
C79   H26   S    
C2    C12   S    
Cr6   O19   S    
C91   O8    A    
C81   C82   A    
C7    C8    S    
C47   C49   A    
C85   C86   A    
Cr4   O13   S    
C13   H36   S    
C67   C78   S    
C56   O24   A    
C11   C19   S    
C20   C21   S    
C28   C37   T    
Cr3   O4    S    
C19   C21   S    
C67   H12   S    
C73   C90   A    
C95   O17   A    
C34   O25   A    
C77   H29   S    
C5    C6    S    
C86   C88   A    
Cr5   O16   S    
C65   C70   A    
C96   O13   A    
C17   C20   S    
C18   C19   S    
C73   C74   A    
C69   C71   A    
C11   H37   S    
C98   H43   S    
C99   H48   S    
C29   H10   S    
C12   O22   A    
Cr3   O22   S    
C56   O4    A    
C76   H28   S    
C44   C53   A    
C40   C43   A    
Cr5   O8    S    
C31   C32   S    
Cr4   O7    S    
C16   C17   S    
C56   C72   S    
C74   C77   A    
C62   C71   A    
C1    C28   S    
C31   C33   S    
C93   O6    A    
C3    H35   S    
C80   C96   S    
C34   O26   A    
C45   C54   S    
Cr1   O1    S    
C95   O16   A    
C55   C72   A    
C35   H7    S    
C53   H14   S    
C16   H4    S    
C47   C48   A    
C23   O23   A    
C58   C61   A    
C15   C23   S    
C96   O18   A    
C59   C60   A    
C43   C44   A    
S1    O28   D    
C93   O11   A    
C61   C62   A    
C61   S2    S    
C41   H13   S    
C4    C7    S    
Cr6   O18   S    
C97   H40   S    
C81   H33   S    
C39   C42   A    
C55   H18   S    
S2    O33   S    
C25   C29   S    
C38   C39   A    
C73   H27   S    
C51   C52   A    
O29   H38   S    
C71   H22   S    
C1    O20   A    
C84   C85   A    
C76   C77   A    
C9    C89   T    
C5    C7    S    
C86   C87   A    
C58   C70   A    
C57   C60   A    
C6    C8    S    
Cr1   O24   S    
C25   C26   S    
O34   C98   S    
C66   H24   S    
C51   C53   A    
C98   H45   S    
C64   C66   A    
C4    C9    S    
C60   H21   S    
C75   C76   A    
C32   C35   S    
Cr1   O5    S    
C4    C78   S    
C29   C30   S    
Cr3   O23   S    
C11   C16   S    
Cr3   O5    S    
C49   H16   S    
C38   C54   A    
Cr4   O6    S    
C94   O15   A    
Cr1   O25   S    
C84   H32   S    
C46   C54   A    
C50   C51   A    
Cr1   O12   S    
C13   C21   S    
C16   C18   S    
C46   C47   A    
C32   C37   S    
C12   O21   A    
C89   C92   S    
C23   O1    A    
O33   H42   S    
C45   O2    A    
C81   C90   A    
C75   C87   A    
C15   C24   T    
Cr6   O11   S    
Cr5   O19   S    
C26   C30   S    
C82   C84   A    
C55   C57   A    
Cr2   O2    S    
C45   O3    A    
C49   C50   A    
C27   C93   S    
C88   H30   S    
C3    C4    S    
C2    C10   T    
Cr6   O17   S    
C6    C67   S    
C97   H39   S    
C38   S1    S    
C34   C90   S    
C40   C41   A    
C85   O34   S    
C30   C33   S    
Cr2   O5    S    
C78   H1    S    
C68   C69   A    
C3    C67   S    
Cr2   O21   S    
C63   C64   A    
C3    C5    S    
C26   H5    S    
C6    C10   S    
C97   H41   S    
C7    H31   S    
C20   H2    S    
C30   C36   S    
C27   C36   T    
C21   O35   S    
C17   C22   S    
C13   C17   S    
C64   C65   A    
C14   C22   T    
C62   C94   S    
C19   C24   S    
C58   C59   A    
C18   H3    S    
C99   H46   S    
C80   C88   A    
C44   C95   S    
C40   C52   A    
C43   H11   S    
C11   C13   S    
C8    H20   S    
S1    O27   D    
Cr5   O15   S    
C25   C32   S    
C94   O14   A    
S2    O32   D    
C63   C72   A    
C33   C35   S    
C46   H17   S    
C1    O12   A    
C18   C20   S    
C69   C70   A    
C98   H44   S    
C14   C91   S    
C99   H47   S    
Cr2   O26   S    
C42   O30   S    
Cr6   O10   S    
S2    O31   D    
C79   C80   A    
Cr4   O19   S    
C26   C35   S    
C48   C52   A    
Cr2   O20   S    
S1    O29   S    
C29   C31   S    
C82   C83   A    
C92   O10   A    
C31   H9    S    
C33   H8    S    
O35   C99   S    
C75   C79   A    
C68   H23   S    
C91   O7    A    
C63   H25   S    
C25   H6    S    
C39   C48   A    
C57   C65   A    
