data_mof_unit_51709.cif
_audit_creation_date              2013-03-05T15:46:21-0500
_audit_creation_method            fapswitch 2.2
_symmetry_space_group_name_H-M    P1
_symmetry_Int_Tables_number       1
_space_group_crystal_system       triclinic
_cell_length_a                    10.167278
_cell_length_b                    10.598363
_cell_length_c                    10.892832
_cell_angle_alpha                 89.518082
_cell_angle_beta                  94.400954
_cell_angle_gamma                 80.912443
_cell_volume                      1155.37167744

loop_
_atom_site_label
_atom_site_type_symbol
_atom_site_description
_atom_site_fract_x
_atom_site_fract_y
_atom_site_fract_z
_atom_type_partial_charge
O1    O     O_R   0.568950 0.489660 0.307530 -0.580383
O2    O     O_R   0.348880 0.522640 0.340350 -0.575763
C1    C     C_R   0.444719 0.507263 0.268565 0.957590
O3    O     O_R   0.610060 0.300270 0.483590 -0.602803
O4    O     O_R   0.389990 0.333260 0.516410 -0.562457
C2    C     C_R   0.506607 0.260143 0.519804 0.920568
Zn1   Zn    Zn3+2 0.646940 0.477980 0.478090 1.065004
Zn2   Zn    Zn3+2 0.353060 0.522020 0.521910 1.089504
O5    O     O_R   0.651120 0.477360 0.659650 -0.622724
O6    O     O_R   0.431050 0.510340 0.692470 -0.575834
O7    O     O_R   0.610010 0.666740 0.483590 -0.615399
O8    O     O_R   0.389940 0.699730 0.516410 -0.609344
C3    C     C_R   0.553725 0.486136 0.732476 0.940243
C4    C     C_R   0.497089 0.741328 0.489323 0.897752
C5    C     C_R   0.765373 0.066136 0.518657 0.244917
C6    C     C_R   0.860046 0.999367 0.446799 -0.131582
H1    H     H_    0.961797 0.018546 0.453699 0.216348
C7    C     C_R   0.823022 0.909216 0.364269 -0.181300
H2    H     H_    0.893544 0.865600 0.301456 0.198752
C8    C     C_R   0.696466 0.873382 0.364587 0.201001
C9    C     C_R   0.606142 0.929664 0.449159 0.006458
C10   C     C_R   0.631891 0.041446 0.506715 -0.039073
C11   C     C_R   0.521454 0.123780 0.547911 -0.210861
C12   C     C_R   0.411140 0.073422 0.584241 0.330980
H3    H     H_    0.317193 0.908817 0.586277 0.222125
C13   C     C_R   0.398000 0.950438 0.551469 -0.228510
C14   C     C_R   0.494673 0.877748 0.484779 -0.147518
H4    H     H_    0.604922 0.414653 0.103486 0.221975
C15   C     C_2   0.412470 0.508087 0.139089 -0.266417
C16   C     C_2   0.504591 0.455431 0.066453 -0.192260
H5    H     H_    0.678136 0.465291 0.905804 0.173104
C17   C     C_2   0.576983 0.467281 0.864411 -0.375190
C18   C     C_2   0.474788 0.458322 0.935229 0.273420
H6    H     H_    0.313187 0.553175 0.104781 0.190320
H7    H     H_    0.894309 0.546673 0.601209 0.148502
N1    N     N_2   0.157290 0.551390 0.551110 -0.107064
C19   C     C_2   0.076845 0.476100 0.504598 0.397580
N2    N     N_2   0.842740 0.448550 0.448960 0.003528
C20   C     C_2   0.929277 0.498067 0.519920 -0.094716
N3    N     N_R   0.327092 0.138024 0.671535 0.240483
O9    O     O_R   0.210547 0.106535 0.686253 -0.312346
O10   O     O_R   0.381073 0.202697 0.756884 -0.376112
N4    N     N_R   0.130249 0.361391 0.444532 0.236035
O11   O     O_R   0.098356 0.253213 0.479083 -0.355689
O12   O     O_R   0.176266 0.368729 0.337123 -0.315772
N5    N     N_R   0.874030 0.417663 0.329566 0.332060
O13   O     O_R   0.828919 0.321245 0.277877 -0.333437
O14   O     O_R   0.916604 0.500932 0.260213 -0.350944
I1    I     I_    0.082846 0.725432 0.627583 -0.245625
I2    I     I_    0.838671 0.174353 0.665048 -0.147228
I3    I     I_    0.637980 0.764831 0.213106 -0.250236
I4    I     I_    0.265558 0.451644 0.876765 -0.101663

loop_
_geom_bond_atom_site_label_1
_geom_bond_atom_site_label_2
_geom_bond_distance
_ccdc_geom_bond_type
C19   N4    1.435376 S    
O4    Zn2   1.978623 S    
H7    C20   1.083500 S    
N4    O11   1.300067 A    
C15   C16   1.330693 D    
C4    C14   1.442516 S    
C3    C17   1.445449 S    
H5    C17   1.087786 S    
Zn2   O8    1.978928 S    
C11   C12   1.397528 A    
C17   C18   1.355234 D    
H4    C16   1.088462 S    
O2    C1    1.287019 A    
C9    C14   1.413725 A    
C19   C20   1.503956 S    
C6    C7    1.392440 A    
O1    Zn1   1.958275 S    
C9    C10   1.396571 A    
C18   I4    2.185493 S    
Zn1   O7    1.978624 S    
N4    O12   1.299151 A    
C13   C14   1.402543 A    
O4    C2    1.307769 A    
O3    Zn1   1.978928 S    
C2    C11   1.456622 S    
N3    O10   1.298690 A    
N1    C19   1.308341 D    
C12   N3    1.433191 S    
Zn1   N2    2.015821 S    
O8    C4    1.291164 A    
C8    I3    2.120691 S    
C7    C8    1.398191 A    
N2    C20   1.302041 D    
O7    C4    1.293089 A    
N5    O14   1.302513 A    
N2    N5    1.391956 S    
O3    C2    1.282565 A    
C5    C6    1.396333 A    
Zn1   O5    1.974828 S    
C8    C9    1.419110 A    
Zn2   O6    1.958275 S    
C7    H2    1.082520 S    
Zn2   N1    2.015703 S    
C5    I2    2.128848 S    
C1    C15   1.422893 S    
O5    C3    1.308142 A    
N5    O13   1.299887 A    
N3    O9    1.301675 A    
C16   C18   1.437291 S    
H3    C13   1.082973 S    
C10   C11   1.413508 A    
C15   H6    1.083373 S    
C5    C10   1.418771 A    
O2    Zn2   1.974828 S    
N1    I1    2.085850 S    
C12   C13   1.378302 A    
C6    H1    1.082578 S    
O1    C1    1.285417 A    
O6    C3    1.274760 A    
