data_mof_unit_61833.cif
_audit_creation_date              2012-12-10T17:19:20-0500
_audit_creation_method            fapswitch 2.2
_symmetry_space_group_name_H-M    P1
_symmetry_Int_Tables_number       1
_space_group_crystal_system       triclinic
_cell_length_a                    18.894342
_cell_length_b                    18.730782
_cell_length_c                    18.996891
_cell_angle_alpha                 109.684164
_cell_angle_beta                  109.791648
_cell_angle_gamma                 109.23057
_cell_volume                      5156.56685188

loop_
_atom_site_label
_atom_site_type_symbol
_atom_type_description
_atom_site_fract_x
_atom_site_fract_y
_atom_site_fract_z
_atom_type_partial_charge
C1    C     C_R   0.380177 0.380528 0.498774 0.880022
C2    C     C_R   0.310560 0.312586 0.496236 -0.183367
C3    C     C_R   0.304074 0.573610 0.328357 -0.139478
C4    C     C_R   0.619701 0.499639 0.619063 0.881386
C5    C     C_R   0.241045 0.572890 0.262835 -0.166014
C6    C     C_R   0.184049 0.497094 0.180961 -0.078196
C7    C     C_R   0.191153 0.420728 0.164061 -0.028770
C8    C     C_R   0.255688 0.423031 0.230535 -0.153220
C9    C     C_R   0.312211 0.498930 0.312418 -0.026224
C10   C     C_R   0.745095 0.770335 0.575703 -0.058456
C11   C     C_R   0.814510 0.829723 0.576751 -0.098683
C12   C     C_3   0.806394 0.491400 0.805820 -0.097138
C13   C     C_R   0.813495 0.814118 0.498345 -0.163141
C14   C     C_R   0.744042 0.738563 0.418726 -0.072261
C15   C     C_R   0.678720 0.674976 0.418824 -0.090090
C16   C     C_R   0.617037 0.619732 0.498920 0.890511
C17   C     C_R   0.681230 0.689267 0.498002 -0.161451
C18   C     C_R   0.996189 0.379963 0.877789 0.860337
C19   C     C_R   0.877748 0.497034 0.876086 0.844263
C20   C     C_R   0.995857 0.619277 0.114090 0.823699
C21   C     C_R   0.116756 0.499169 0.115880 0.813160
C22   C     C_R   0.000450 0.880967 0.381989 0.888507
C23   C     C_3   0.848672 0.558593 0.780097 -0.379786
C24   C     C_R   0.118368 0.121135 0.502547 0.851189
C25   C     C_R   0.001323 0.120463 0.617664 0.849124
C26   C     C_R   0.881311 0.880538 0.498883 0.892461
C27   C     C_R   0.072550 0.328956 0.808852 -0.116960
C28   C     C_R   0.380252 0.499939 0.380302 0.831129
C29   C     C_R   0.075522 0.266367 0.746603 -0.151450
C30   C     C_R   0.000016 0.186437 0.683215 -0.036341
C31   C     C_R   0.922330 0.167762 0.682923 -0.189561
C32   C     C_R   0.919543 0.226590 0.748767 -0.051145
C33   C     C_R   0.995227 0.310384 0.811202 -0.066441
C34   C     C_3   0.754141 0.525390 0.843895 -0.331723
C35   C     C_R   0.007734 0.766141 0.181505 -0.076348
C36   C     C_R   0.009969 0.830327 0.248942 -0.098701
C37   C     C_R   0.001929 0.815373 0.314975 -0.156095
C38   C     C_R   0.993407 0.737143 0.314684 -0.016328
C39   C     C_R   0.990207 0.674241 0.246756 -0.191941
C40   C     C_3   0.668982 0.397999 0.656525 -0.298652
C41   C     C_R   0.996588 0.687510 0.180663 -0.101305
C42   C     C_3   0.745120 0.394326 0.721966 -0.192391
C43   C     C_3   0.779905 0.546237 0.698436 -0.221447
C44   C     C_3   0.687558 0.536476 0.776792 -0.197116
C45   C     C_R   0.240627 0.324080 0.498896 -0.092380
C46   C     C_3   0.687451 0.496529 0.686465 -0.173960
C47   C     C_2   0.641911 0.338356 0.562547 0.997751
C48   C     C_2   0.804306 0.627911 0.691171 0.926553
C49   C     C_2   0.232679 0.399266 0.495004 0.920975
C50   C     C_2   0.104550 0.273922 0.508356 0.909430
C51   C     C_2   0.383014 0.218624 0.489464 0.912487
C52   C     C_2   0.134950 0.338674 0.078075 0.856158
C53   C     C_2   0.736194 0.799467 0.654065 0.910113
C54   C     C_2   0.886936 0.909448 0.660647 0.898701
C55   C     C_2   0.737674 0.726741 0.334717 0.920532
C56   C     C_R   0.177414 0.262584 0.503563 -0.090426
C57   C     C_2   0.605821 0.595289 0.335070 0.920312
C58   C     C_2   0.836727 0.194404 0.748737 0.925721
C59   C     C_2   0.017571 0.781798 0.112757 0.925405
C60   C     C_2   0.704354 0.319268 0.738148 0.925748
C61   C     C_2   0.021507 0.913485 0.250634 0.916967
C62   C     C_2   0.986178 0.716661 0.382246 0.892072
C63   C     C_2   0.798152 0.365961 0.683129 0.814841
C64   C     C_2   0.716233 0.635215 0.814538 0.883842
C65   C     C_2   0.596272 0.492583 0.765987 0.932245
C66   C     C_2   0.718984 0.479560 0.887716 0.916863
C67   C     C_R   0.184361 0.189984 0.503996 -0.119109
C68   C     C_R   0.251372 0.177902 0.498598 -0.177069
C69   C     C_R   0.314088 0.237386 0.493925 -0.040305
Cu1   Cu    Cu3+1 0.500370 0.438230 0.438520 1.097830
Cu2   Cu    Cu3+1 0.499630 0.561770 0.561480 1.082558
Cu3   Cu    Cu3+1 0.935490 0.438190 0.997300 1.123402
Cu4   Cu    Cu3+1 0.059110 0.561720 0.997220 1.050169
Cu5   Cu    Cu3+1 0.937870 0.999900 0.437760 1.074909
Cu6   Cu    Cu3+1 0.062130 0.999920 0.562070 1.058609
H1    H     H_    0.235845 0.631388 0.276373 0.148399
H2    H     H_    0.347289 0.632946 0.391093 0.161977
H3    H     H_    0.084923 0.207887 0.010630 0.358164
H4    H     H_    0.610349 0.367614 0.659434 0.255560
H5    H     H_    0.262427 0.365478 0.218443 0.193059
H6    H     H_    0.733715 0.783189 0.752915 0.346953
H7    H     H_    0.958881 0.040995 0.730562 0.343660
H8    H     H_    0.664342 0.701653 0.214358 0.353869
H9    H     H_    0.568805 0.491408 0.223967 0.347336
H10   H     H_    0.131395 0.391518 0.856391 0.169994
H11   H     H_    0.136009 0.280863 0.746687 0.169478
H12   H     H_    0.571949 0.215068 0.460560 0.340896
H13   H     H_    0.864667 0.104548 0.633619 0.197168
H14   H     H_    0.705774 0.130937 0.677853 0.360162
H15   H     H_    0.969989 0.738592 0.985370 0.355222
H16   H     H_    0.596737 0.216264 0.709238 0.350255
H17   H     H_    0.092470 0.045183 0.315889 0.346594
H18   H     H_    0.005141 0.650438 0.444851 0.355107
H19   H     H_    0.983086 0.613800 0.245305 0.192219
H20   H     H_    0.798738 0.269546 0.593982 0.357969
H21   H     H_    0.783671 0.503036 0.645032 0.192109
H22   H     H_    0.901491 0.554331 0.769030 0.228855
H23   H     H_    0.804511 0.592039 0.900225 0.199601
H24   H     H_    0.682973 0.729313 0.841216 0.342566
H25   H     H_    0.468100 0.403715 0.689206 0.344364
H26   H     H_    0.628978 0.374871 0.876815 0.350870
H27   H     H_    0.889481 0.755849 0.744124 0.381680
H28   H     H_    0.882313 0.625981 0.835336 0.246499
H29   H     H_    0.227698 0.466763 0.431877 0.342348
H30   H     H_    0.035935 0.277845 0.569628 0.344892
H31   H     H_    0.254263 0.120620 0.497464 0.201481
H32   H     H_    0.415206 0.127034 0.445218 0.365073
O1    O     O_R   0.410130 0.357660 0.448070 -0.569387
O2    O     O_R   0.053050 0.909790 0.462730 -0.570152
O3    O     O_R   0.037720 0.090080 0.447430 -0.573876
O4    O     O_R   0.409500 0.461990 0.551910 -0.567162
O5    O     O_R   0.142660 0.090100 0.552410 -0.589922
O6    O     O_R   0.946950 0.090030 0.537090 -0.577615
O7    O     O_R   0.051890 0.090040 0.642060 -0.580799
O8    O     O_R   0.857350 0.909730 0.447410 -0.583908
O9    O     O_R   0.962280 0.909740 0.552390 -0.550545
O10   O     O_R   0.590970 0.447820 0.538740 -0.547336
O11   O     O_R   0.590340 0.552140 0.642570 -0.552209
O12   O     O_R   0.049990 0.461930 0.907530 -0.581535
O13   O     O_R   0.590500 0.538010 0.448090 -0.557378
O14   O     O_R   0.589870 0.642340 0.551930 -0.580338
O15   O     O_R   0.409660 0.447860 0.357430 -0.578902
O16   O     O_R   0.409030 0.552180 0.461260 -0.594971
O17   O     O_R   0.945590 0.357610 0.907590 -0.519602
O18   O     O_2   0.676577 0.365572 0.526022 -0.575704
O19   O     O_R   0.583093 0.248940 0.521160 -0.683220
O20   O     O_2   0.765071 0.621288 0.621268 -0.592888
O21   O     O_R   0.877085 0.708327 0.759899 -0.692539
O22   O     O_2   0.225595 0.448229 0.550508 -0.549183
O23   O     O_R   0.854450 0.447820 0.906640 -0.557330
O24   O     O_R   0.233523 0.413786 0.427703 -0.762751
O25   O     O_2   0.059772 0.286659 0.455640 -0.542233
O26   O     O_R   0.087071 0.269397 0.573042 -0.783500
O27   O     O_2   0.457863 0.277918 0.529327 -0.560045
O28   O     O_R   0.362624 0.132032 0.442321 -0.732478
O29   O     O_2   0.100002 0.340441 0.012028 -0.611246
O30   O     O_R   0.123835 0.258914 0.072398 -0.732560
O31   O     O_2   0.727695 0.863831 0.678562 -0.564756
O32   O     O_R   0.739345 0.755614 0.700631 -0.710783
O33   O     O_2   0.925191 0.902232 0.721903 -0.569774
O34   O     O_R   0.958850 0.552130 0.906580 -0.568667
O35   O     O_R   0.909676 0.992284 0.670101 -0.779241
O36   O     O_2   0.799045 0.732960 0.323761 -0.559888
O37   O     O_R   0.660977 0.708451 0.268196 -0.733789
O38   O     O_2   0.530636 0.575869 0.315144 -0.593046
O39   O     O_R   0.623559 0.543359 0.278897 -0.720286
O40   O     O_2   0.835655 0.193920 0.812544 -0.517037
O41   O     O_R   0.758566 0.155004 0.671793 -0.720565
O42   O     O_2   0.079451 0.848615 0.132543 -0.546677
O43   O     O_R   0.956122 0.720166 0.025638 -0.753545
O44   O     O_2   0.750412 0.300107 0.781758 -0.570458
O45   O     O_R   0.944620 0.537990 0.086990 -0.564948
O46   O     O_R   0.614101 0.264713 0.695207 -0.691060
O47   O     O_2   0.970868 0.911677 0.188527 -0.534989
O48   O     O_R   0.090784 0.993470 0.322984 -0.765523
O49   O     O_2   0.954577 0.746641 0.422312 -0.555105
O50   O     O_R   0.013874 0.660253 0.398384 -0.754095
O51   O     O_2   0.876673 0.412074 0.717558 -0.616290
O52   O     O_R   0.757280 0.281955 0.611784 -0.696137
O53   O     O_2   0.792207 0.690507 0.848731 -0.557634
O54   O     O_R   0.655702 0.663304 0.812712 -0.703766
O55   O     O_2   0.587048 0.519350 0.828829 -0.529419
O56   O     O_R   0.049020 0.642300 0.086930 -0.587006
O57   O     O_R   0.523051 0.425128 0.685971 -0.755780
O58   O     O_2   0.755058 0.517518 0.966907 -0.546324
O59   O     O_R   0.644982 0.396625 0.839247 -0.731327
O60   O     O_R   0.035760 0.447780 0.087940 -0.565636
O61   O     O_R   0.140150 0.552090 0.087880 -0.581569
O62   O     O_R   0.948110 0.909780 0.357760 -0.564464

loop_
_geom_bond_atom_site_label_1
_geom_bond_atom_site_label_2
_ccdc_geom_bond_type
C40   C47   S    
H6    O32   S    
C13   C26   S    
Cu4   O12   S    
C57   O38   D    
H14   O41   S    
C11   C13   A    
C35   C36   A    
C24   O5    A    
C32   C58   S    
H15   O43   S    
C61   O47   D    
C34   C66   S    
C20   C41   S    
C28   O16   A    
C7    C8    A    
C39   C41   A    
C4    C46   S    
C44   C64   S    
C40   C46   S    
C49   O24   S    
C12   C23   S    
Cu6   O5    S    
C29   C30   A    
C21   O61   A    
H20   O52   S    
Cu2   O16   S    
C36   C37   A    
C7    C52   S    
H16   O46   S    
H27   O21   S    
C16   O13   A    
H8    O37   S    
C51   O27   D    
C58   O41   S    
C27   C29   A    
C10   C17   A    
C23   C43   S    
C12   C19   S    
C35   C59   S    
C1    C2    S    
Cu1   O10   S    
C27   H10   S    
C10   C53   S    
C26   O8    A    
Cu5   O62   S    
H32   O28   S    
C24   C67   S    
H24   O54   S    
C51   O28   S    
C23   H28   S    
C45   C56   A    
Cu1   O13   S    
C8    C9    A    
Cu3   O45   S    
H29   O24   S    
Cu2   O4    S    
C65   O55   D    
C12   C42   S    
Cu1   Cu2   S    
C55   O37   S    
C63   O52   S    
C2    C69   A    
C52   O30   S    
C43   C48   S    
C66   O58   D    
H7    O35   S    
C19   O23   A    
C40   C42   S    
C14   C55   S    
C50   C56   S    
C19   O34   A    
C13   C14   A    
Cu3   O17   S    
C15   C57   S    
C4    O11   A    
C44   C65   S    
C68   H31   S    
Cu4   O61   S    
C61   O48   S    
C43   C46   S    
C44   C46   S    
C47   O18   D    
C59   O42   D    
C2    C45   A    
C38   C39   A    
C54   O33   D    
Cu6   O2    S    
C55   O36   D    
Cu5   Cu6   S    
C66   O59   S    
C67   C68   A    
C24   O3    A    
C42   C60   S    
C58   O40   D    
C16   C17   S    
Cu4   O34   S    
C20   O56   A    
C49   O22   D    
C27   C33   A    
C53   O31   D    
C60   O44   D    
C16   O14   A    
C39   H19   S    
C37   C38   A    
C3    C9    A    
C25   O6    A    
C48   O21   S    
Cu1   O15   S    
C31   C32   A    
C45   C49   S    
C30   C31   A    
C22   O2    A    
C64   O53   D    
C43   H21   S    
C62   O50   S    
C34   C44   S    
H25   O57   S    
Cu6   O7    S    
C6    C21   S    
H18   O50   S    
C29   H11   S    
C11   C54   S    
C50   O25   D    
C60   O46   S    
C54   O35   S    
C52   O29   D    
Cu3   O60   S    
C4    O10   A    
C12   C34   S    
C36   C61   S    
C3    H2    S    
H3    O30   S    
C47   O19   S    
H30   O26   S    
C59   O43   S    
C25   C30   S    
C15   C17   A    
C31   H13   S    
Cu2   O11   S    
C23   H22   S    
C53   O32   S    
C68   C69   A    
Cu3   Cu4   S    
C3    C5    A    
C50   O26   S    
C40   H4    S    
Cu5   O3    S    
Cu3   O23   S    
C6    C7    A    
H9    O39   S    
C56   C67   A    
C21   O60   A    
C32   C33   A    
C5    H1    S    
Cu4   O56   S    
Cu1   O1    S    
C25   O7    A    
C1    O4    A    
C48   O20   D    
C22   C37   S    
C64   O54   S    
C5    C6    A    
Cu5   O8    S    
C42   C63   S    
C65   O57   S    
C34   H23   S    
C62   O49   D    
H17   O48   S    
C28   O15   A    
Cu5   O6    S    
H26   O59   S    
C35   C41   A    
C18   C33   S    
C26   O9    A    
C22   O62   A    
C10   C11   A    
C1    O1    A    
Cu2   O14   S    
C20   O45   A    
C8    H5    S    
C14   C15   A    
Cu6   O9    S    
C51   C69   S    
C63   O51   D    
C57   O39   S    
C18   O12   A    
H12   O19   S    
C9    C28   S    
C18   O17   A    
C38   C62   S    
