data_mof_unit_27639.cif
_audit_creation_date              2012-12-11T17:25:05-0500
_audit_creation_method            fapswitch 2.2
_symmetry_space_group_name_H-M    P1
_symmetry_Int_Tables_number       1
_space_group_crystal_system       triclinic
_cell_length_a                    6.955281
_cell_length_b                    20.541046
_cell_length_c                    24.502089
_cell_angle_alpha                 90.071008
_cell_angle_beta                  90.486698
_cell_angle_gamma                 89.470478
_cell_volume                      3500.30461029

loop_
_atom_site_label
_atom_site_type_symbol
_atom_type_description
_atom_site_fract_x
_atom_site_fract_y
_atom_site_fract_z
_atom_type_partial_charge
O1    O     O_R   0.507280 0.423750 0.460310 -0.536043
O2    O     O_R   0.171030 0.555650 0.437630 -0.536631
O3    O     O_R   0.004080 0.576250 0.539690 -0.536338
C1    C     C_R   0.339001 0.575655 0.421792 0.724159
O4    O     O_R   0.177330 0.422980 0.453960 -0.537876
O5    O     O_R   0.010420 0.442640 0.556140 -0.535089
C2    C     C_R   0.346186 0.399122 0.443251 0.694681
O6    O     O_R   0.500930 0.557360 0.443860 -0.534997
O7    O     O_3   0.340310 0.506600 0.533500 -0.366781
V1    V     V_3+5 0.064140 0.498780 0.493780 1.425663
O8    O     O_R   0.680890 0.444350 0.562370 -0.537503
C3    C     C_R   0.850622 0.424400 0.578142 0.725402
O9    O     O_R   0.674590 0.577020 0.546040 -0.537763
C4    C     C_R   0.842741 0.600861 0.556770 0.694207
V2    V     V_3+5 0.564550 0.501220 0.506220 1.425603
O10   O     O_3   0.838250 0.493400 0.466500 -0.366602
C5    C     C_R   0.975895 0.838435 0.910947 -0.046753
C6    C     C_R   0.847589 0.661432 0.589072 -0.042447
C7    C     C_R   0.039839 0.722792 0.905432 -0.159297
C8    C     C_R   0.030742 0.780001 0.935790 -0.160102
C9    C     C_R   0.930568 0.839404 0.854884 -0.215650
C10   C     C_R   0.941934 0.781695 0.822565 0.087646
C11   C     C_R   0.997427 0.723128 0.849320 0.137233
C12   C     C_R   0.902929 0.780020 0.764844 0.058120
C13   C     C_R   0.920354 0.719818 0.735199 0.057605
C14   C     C_R   0.975485 0.663327 0.764300 -0.186471
C15   C     C_R   0.012637 0.665133 0.820019 -0.199275
C16   C     C_R   0.847633 0.836501 0.735754 -0.186712
C17   C     C_R   0.810342 0.834689 0.680045 -0.201137
C18   C     C_R   0.825656 0.776704 0.650738 0.139408
C19   C     C_R   0.881391 0.718148 0.677474 0.086772
C20   C     C_R   0.783086 0.777038 0.594638 -0.161527
C21   C     C_R   0.792341 0.719846 0.564266 -0.167671
C22   C     C_R   0.893039 0.660462 0.645131 -0.214604
H1    H     H_    0.055077 0.620382 0.840431 0.124524
H2    H     H_    0.932226 0.613836 0.662160 0.094154
H3    H     H_    0.755010 0.721046 0.521250 0.106695
H4    H     H_    0.767714 0.879429 0.659645 0.123429
H5    H     H_    0.082899 0.678115 0.925821 0.117834
H6    H     H_    0.067928 0.778801 0.978819 0.121617
H7    H     H_    0.891757 0.886051 0.837830 0.093797
H8    H     H_    0.991964 0.616435 0.745185 0.123951
H9    H     H_    0.830999 0.883383 0.754875 0.123741
H10   H     H_    0.739779 0.821702 0.574269 0.113370
H11   H     H_    0.618942 0.206344 0.793323 0.111577
C23   C     C_R   0.729952 0.269766 0.731379 -0.155453
H12   H     H_    0.588005 0.284604 0.717431 0.111004
C24   C     C_R   0.894338 0.294948 0.706412 0.136607
C25   C     C_R   0.076592 0.274786 0.725314 -0.155877
H13   H     H_    0.205253 0.293564 0.706607 0.111628
C26   C     C_R   0.094242 0.230141 0.768550 -0.155452
C27   C     C_R   0.929856 0.204959 0.793517 0.136602
C28   C     C_R   0.747602 0.225121 0.774615 -0.155875
C29   C     C_1   0.876455 0.341010 0.661415 -0.060526
C30   C     C_1   0.947742 0.158898 0.838515 -0.060733
C31   C     C_1   0.960947 0.120685 0.876285 -0.191386
C32   C     C_1   0.863262 0.379225 0.623646 -0.192033
H14   H     H_    0.678159 0.729873 0.314826 0.117467
C33   C     C_R   0.582241 0.782536 0.243548 -0.146053
H15   H     H_    0.717723 0.807570 0.239450 0.135654
C34   C     C_R   0.431842 0.794499 0.206128 0.084800
C35   C     C_R   0.256520 0.761142 0.212817 -0.030815
C36   C     C_R   0.234525 0.716932 0.256309 -0.196025
H16   H     H_    0.099521 0.691655 0.261150 0.121381
C37   C     C_R   0.385661 0.705114 0.293468 0.125660
C38   C     C_R   0.559559 0.738238 0.286675 -0.162695
C39   C     C_1   0.458618 0.840862 0.161456 -0.020218
C40   C     C_1   0.363227 0.659108 0.338397 -0.049879
C41   C     C_1   0.348603 0.620914 0.376153 -0.193923
C42   C     C_1   0.475171 0.879167 0.123864 -0.163151
C43   C     C_R   0.472829 0.161536 0.089129 -0.041871
C44   C     C_R   0.352153 0.338536 0.410955 -0.043044
C45   C     C_R   0.535856 0.276844 0.094991 -0.160466
C46   C     C_R   0.526580 0.219742 0.064535 -0.166979
C47   C     C_R   0.428923 0.160689 0.145070 -0.214641
C48   C     C_R   0.440805 0.218264 0.177516 0.086622
C49   C     C_R   0.494986 0.276605 0.150989 0.138269
C50   C     C_R   0.403705 0.220004 0.235158 0.058075
C51   C     C_R   0.421463 0.280055 0.264936 0.057402
C52   C     C_R   0.475142 0.336328 0.236049 -0.186070
C53   C     C_R   0.510573 0.334456 0.180415 -0.199388
C54   C     C_R   0.350117 0.163725 0.264051 -0.186740
C55   C     C_R   0.314744 0.165593 0.319689 -0.201227
C56   C     C_R   0.330259 0.223449 0.349111 0.139395
C57   C     C_R   0.384326 0.281798 0.322577 0.086708
C58   C     C_R   0.289427 0.223207 0.405111 -0.161479
C59   C     C_R   0.298583 0.280317 0.435559 -0.167191
C60   C     C_R   0.396040 0.339386 0.355013 -0.214486
H17   H     H_    0.552026 0.379030 0.160172 0.125493
H18   H     H_    0.433748 0.385882 0.338114 0.094850
H19   H     H_    0.262346 0.279220 0.478472 0.107611
H20   H     H_    0.273384 0.121012 0.339936 0.123161
H21   H     H_    0.578004 0.321338 0.074784 0.115126
H22   H     H_    0.562828 0.220837 0.021624 0.107894
H23   H     H_    0.391021 0.114205 0.161957 0.094131
H24   H     H_    0.491892 0.383084 0.255280 0.124733
H25   H     H_    0.333456 0.116962 0.244825 0.123566
H26   H     H_    0.247384 0.178705 0.425324 0.113634
O11   O     O_R   0.323320 0.942780 0.056240 -0.533943
O12   O     O_R   0.647300 0.077050 0.046060 -0.538816
O13   O     O_R   0.813840 0.057330 0.943840 -0.536160
C61   C     C_R   0.478541 0.100960 0.056817 0.691220
O14   O     O_R   0.653250 0.944380 0.062400 -0.532005
O15   O     O_R   0.819830 0.923720 0.960300 -0.535208
C62   C     C_R   0.485225 0.924462 0.078284 0.723769
O16   O     O_R   0.317330 0.076390 0.039790 -0.537136
O17   O     O_3   0.483830 0.993470 0.966560 -0.368583
V3    V     V_3+5 0.760140 0.001210 0.006210 1.439724
O18   O     O_R   0.149290 0.922840 0.953850 -0.538433
C63   C     C_R   0.981041 0.899028 0.943210 0.700151
O19   O     O_R   0.143340 0.055500 0.937510 -0.538447
C64   C     C_R   0.973614 0.075514 0.921791 0.721867
V4    V     V_3+5 0.259690 0.998600 0.993650 1.433101
O20   O     O_3   0.986130 0.006520 0.033440 -0.365483
H27   H     H_    0.236189 0.215304 0.782498 0.110970
C65   C     C_1   0.097558 0.771449 0.175425 0.278907
N1    N     N_1   0.970369 0.779731 0.145391 -0.363209

loop_
_geom_bond_atom_site_label_1
_geom_bond_atom_site_label_2
_ccdc_geom_bond_type
C13   C19   A    
O15   C63   A    
C30   C31   T    
C36   C37   A    
C59   H19   S    
C45   C46   A    
C4    C6    S    
C7    C11   A    
C7    C8    A    
C45   H21   S    
C1    O6    A    
C5    C63   S    
C47   H23   S    
C43   C47   A    
O13   C64   A    
C24   C29   S    
C55   H20   S    
C14   C15   A    
C35   C36   A    
C16   C17   A    
C56   C58   A    
C33   C38   A    
O5    C3    A    
C18   C19   A    
C8    H6    S    
V2    O10   S    
C5    C8    A    
C65   N1    T    
V3    O20   S    
C25   H13   S    
C46   H22   S    
O17   V4    S    
O8    V2    S    
H14   C38   S    
O19   C64   A    
C40   C41   T    
C25   C26   A    
C17   H4    S    
O17   V3    S    
O14   V3    S    
O1    V2    S    
C11   C15   A    
C52   H24   S    
O7    V1    S    
C27   C30   S    
O18   V4    S    
C53   H17   S    
O13   V3    S    
H11   C28   S    
C33   H15   S    
O1    C2    A    
O9    C4    A    
C1    C41   S    
C44   C60   A    
C48   C49   A    
O11   C62   A    
C23   C24   A    
O12   V3    S    
C33   C34   A    
O16   V4    S    
C26   C27   A    
C12   C13   A    
O14   C62   A    
C2    C44   S    
O4    C2    A    
C50   C51   A    
C15   H1    S    
C13   C14   A    
C21   H3    S    
C51   C52   A    
O2    C1    A    
C47   C48   A    
C35   C65   S    
C17   C18   A    
C50   C54   A    
C55   C56   A    
C49   C53   A    
C37   C40   S    
O12   C61   A    
C20   H10   S    
C19   C22   A    
O19   V4    S    
C56   C57   A    
C6    C22   A    
O3    C4    A    
C7    H5    S    
C9    H7    S    
C3    C32   S    
C24   C25   A    
C43   C61   S    
C60   H18   S    
C37   C38   A    
O6    V2    S    
O9    V2    S    
C54   H25   S    
C10   C12   A    
O2    V1    S    
O15   V3    S    
C44   C59   A    
C27   C28   A    
C14   H8    S    
V4    O20   S    
C57   C60   A    
C23   H12   S    
C58   C59   A    
C12   C16   A    
C48   C50   A    
C52   C53   A    
C42   C62   S    
O11   V4    S    
C43   C46   A    
O8    C3    A    
C16   H9    S    
C39   C42   T    
C20   C21   A    
O7    V2    S    
O4    V1    S    
O3    V1    S    
V1    O10   S    
O18   C63   A    
C18   C20   A    
C23   C28   A    
C51   C57   A    
C61   O16   A    
C22   H2    S    
C34   C39   S    
C34   C35   A    
C58   H26   S    
C6    C21   A    
C26   H27   S    
O5    V1    S    
C36   H16   S    
C54   C55   A    
C45   C49   A    
C10   C11   A    
C9    C10   A    
C31   C64   S    
C29   C32   T    
C5    C9    A    
