data_mof_unit_51075.cif
_audit_creation_date              2012-12-10T19:24:03-0500
_audit_creation_method            fapswitch 2.2
_symmetry_space_group_name_H-M    P1
_symmetry_Int_Tables_number       1
_space_group_crystal_system       triclinic
_cell_length_a                    10.536218
_cell_length_b                    10.511117
_cell_length_c                    9.77111
_cell_angle_alpha                 89.650252
_cell_angle_beta                  89.83098
_cell_angle_gamma                 88.897712
_cell_volume                      1081.90047219

loop_
_atom_site_label
_atom_site_type_symbol
_atom_type_description
_atom_site_fract_x
_atom_site_fract_y
_atom_site_fract_z
_atom_type_partial_charge
C1    C     C_R   0.501956 0.257735 0.500364 0.970115
C2    C     C_R   0.498044 0.742265 0.499635 0.970110
C3    C     C_3   0.415128 0.960496 0.595203 -0.116316
C4    C     C_3   0.584871 0.039504 0.404796 -0.116327
C5    C     C_3   0.434323 0.407214 0.049466 -0.070035
C6    C     C_3   0.565677 0.592785 0.950534 -0.070046
C7    C     C_3   0.548377 0.395032 0.951868 -0.069215
C8    C     C_3   0.451623 0.604968 0.048132 -0.069225
C9    C     C_3   0.385846 0.512209 0.951805 -0.068972
C10   C     C_3   0.614154 0.487791 0.048195 -0.068983
C11   C     C_R   0.257904 0.498570 0.500113 0.975171
C12   C     C_R   0.742096 0.501430 0.499887 0.975156
C13   C     C_3   0.041728 0.427901 0.603882 -0.017562
C14   C     C_3   0.958272 0.572099 0.396118 -0.017564
C15   C     C_3   0.960548 0.381016 0.485153 0.028863
C16   C     C_3   0.039452 0.618984 0.514847 0.028871
C17   C     C_3   0.876717 0.500639 0.499715 -0.032392
C18   C     C_3   0.123283 0.499361 0.500285 -0.032380
C19   C     C_3   0.956588 0.548248 0.620121 -0.366296
C20   C     C_3   0.043411 0.451752 0.379879 -0.366290
C21   C     C_3   0.534876 0.039056 0.626483 -0.253405
C22   C     C_3   0.465122 0.960943 0.373516 -0.253408
C23   C     C_3   0.613294 0.954333 0.529429 0.150919
C24   C     C_3   0.386705 0.045667 0.470571 0.150928
C25   C     C_3   0.496666 0.877055 0.498904 -0.026249
C26   C     C_3   0.503333 0.122945 0.501096 -0.026255
H1    H     H_    0.918593 0.587513 0.717580 0.154565
H2    H     H_    0.081407 0.412487 0.282420 0.154565
H3    H     H_    0.565998 0.073665 0.727906 0.158830
H4    H     H_    0.434001 0.926334 0.272094 0.158831
H5    H     H_    0.345191 0.925960 0.671325 0.188642
H6    H     H_    0.654808 0.074040 0.328675 0.188649
H7    H     H_    0.589159 0.306614 0.906575 0.123730
H8    H     H_    0.410841 0.693385 0.093425 0.123733
H9    H     H_    0.378950 0.329114 0.095954 0.119235
H10   H     H_    0.621050 0.670886 0.904046 0.119236
H11   H     H_    0.289584 0.522475 0.906669 0.122930
H12   H     H_    0.710416 0.477524 0.093331 0.122921
N1    N     N_3   0.499910 0.500030 0.863290 -0.079139
N2    N     N_3   0.500090 0.499970 0.136710 -0.079140
O1    O     O_R   0.500010 0.313960 0.616610 -0.611179
O2    O     O_R   0.499990 0.686040 0.383390 -0.611190
O3    O     O_R   0.500060 0.313950 0.383350 -0.640169
O4    O     O_R   0.499940 0.686050 0.616650 -0.640170
O5    O     O_R   0.313930 0.499970 0.616610 -0.612234
O6    O     O_R   0.686070 0.500030 0.383390 -0.612253
O7    O     O_R   0.313980 0.499960 0.383350 -0.637627
O8    O     O_R   0.686020 0.500040 0.616650 -0.637624
Zn1   Zn    Zn3+2 0.499970 0.500010 0.655740 0.970791
Zn2   Zn    Zn3+2 0.500030 0.499990 0.344260 0.970781
C27   C     C_2   0.918609 0.246710 0.469511 0.363267
H13   H     H_    0.988673 0.171119 0.454796 0.097268
O9    O     O_2   0.806302 0.221555 0.474038 -0.633717
C28   C     C_2   0.081392 0.753289 0.530489 0.363301
H14   H     H_    0.011329 0.828881 0.545213 0.097268
O10   O     O_2   0.193698 0.778446 0.525952 -0.633722
C29   C     C_2   0.089809 0.347877 0.720793 0.390303
H15   H     H_    0.064723 0.373080 0.825012 0.044438
O11   O     O_2   0.157555 0.254642 0.699346 -0.575798
C30   C     C_2   0.910189 0.652121 0.279207 0.390342
H16   H     H_    0.935226 0.626879 0.174985 0.044425
O12   O     O_2   0.842488 0.745387 0.300656 -0.575811
N3    N     N_3   0.737479 0.898356 0.560637 -0.421311
H17   H     H_    0.798114 0.973010 0.582396 0.211008
H18   H     H_    0.728484 0.845264 0.650809 0.161557
N4    N     N_3   0.262519 0.101642 0.439363 -0.421312
H19   H     H_    0.201892 0.026989 0.417579 0.211003
H20   H     H_    0.271519 0.154755 0.349206 0.161560

loop_
_geom_bond_atom_site_label_1
_geom_bond_atom_site_label_2
_ccdc_geom_bond_type
O4    Zn1   S    
C7    C10   S    
N4    H20   S    
C21   C26   S    
N3    H18   S    
C11   C18   S    
C11   O7    A    
C12   O8    A    
C13   C18   S    
C30   O12   D    
C24   C26   S    
C29   O11   D    
C13   C29   S    
C9    N1    S    
C10   N2    S    
C1    O3    A    
C2    O4    A    
C8    C9    S    
C22   C25   S    
C12   C17   S    
C15   C27   S    
C19   H1    S    
C18   C20   S    
C24   N4    S    
C23   N3    S    
N4    H19   S    
C7    H7    S    
C14   C17   S    
C3    C24   S    
O1    Zn1   S    
O7    Zn2   S    
C15   C20   S    
C28   O10   D    
C13   C19   S    
C27   H13   S    
C14   C20   S    
C3    C25   S    
C12   O6    A    
C5    C7    S    
C4    C23   S    
C6    C8    S    
C20   H2    S    
C21   H3    S    
C30   H16   S    
C27   O9    D    
C5    C9    S    
C4    C22   S    
O5    Zn1   S    
C9    H11   S    
C8    H8    S    
C3    H5    S    
C4    H6    S    
O2    Zn2   S    
C1    O1    A    
O8    Zn1   S    
N1    Zn1   S    
C13   C15   S    
C1    C26   S    
C14   C16   S    
C3    C21   S    
C15   C17   S    
C28   H14   S    
C22   H4    S    
C6    C10   S    
C4    C26   S    
O3    Zn2   S    
C14   C30   S    
O6    Zn2   S    
C10   H12   S    
C21   C23   S    
C29   H15   S    
C2    O2    A    
C16   C19   S    
N2    Zn2   S    
C5    H9    S    
C17   C19   S    
C6    H10   S    
C2    C25   S    
C22   C24   S    
C23   C25   S    
C16   C28   S    
C11   O5    A    
N3    H17   S    
C16   C18   S    
C5    N2    S    
C7    N1    S    
C6    N1    S    
C8    N2    S    
