data_mof_unit_38077.cif
_audit_creation_date              2012-12-10T16:57:51-0500
_audit_creation_method            fapswitch 2.2
_symmetry_space_group_name_H-M    P1
_symmetry_Int_Tables_number       1
_space_group_crystal_system       triclinic
_cell_length_a                    10.705341
_cell_length_b                    10.869889
_cell_length_c                    9.803606
_cell_angle_alpha                 89.030862
_cell_angle_beta                  91.165753
_cell_angle_gamma                 93.663387
_cell_volume                      1138.09904187

loop_
_atom_site_label
_atom_site_type_symbol
_atom_type_description
_atom_site_fract_x
_atom_site_fract_y
_atom_site_fract_z
_atom_type_partial_charge
C1    C     C_R   0.509413 0.266328 0.501125 0.855217
C2    C     C_3   0.952996 0.468695 0.377987 -0.298519
C3    C     C_3   0.031464 0.390633 0.476097 0.406802
C4    C     C_3   0.122471 0.502537 0.502920 -0.238899
C5    C     C_2   0.555310 0.936576 0.397796 -0.154822
C6    C     C_2   0.503003 0.867600 0.498826 -0.295075
C7    C     C_2   0.555474 0.071892 0.395342 -0.114447
C8    C     C_2   0.529826 0.135429 0.505947 -0.291244
C9    C     C_2   0.446310 0.410240 0.919693 0.499249
C10   C     C_2   0.433695 0.416693 0.075952 0.366931
C11   C     C_R   0.259580 0.501103 0.499835 0.916254
C12   C     C_R   0.501997 0.734672 0.499133 0.817809
C13   C     C_R   0.740039 0.501533 0.500900 0.880536
C14   C     C_3   0.045114 0.538156 0.626807 0.227041
C15   C     C_3   0.955004 0.424344 0.598441 0.278333
C16   C     C_3   0.876294 0.502909 0.501847 -0.250074
C17   C     C_3   0.965240 0.616691 0.528954 0.358519
C18   C     C_3   0.044243 0.582548 0.405867 -0.227161
Cu1   Cu    Cu3+1 0.500030 0.500020 0.638630 1.051475
Cu2   Cu    Cu3+1 0.499970 0.499980 0.361370 1.018795
H1    H     H_    0.529144 0.091115 0.604773 0.143239
H2    H     H_    0.536281 0.575958 0.894973 0.143587
H3    H     H_    0.561995 0.559420 0.106236 0.150727
H4    H     H_    0.083558 0.648298 0.327598 0.180954
H5    H     H_    0.913309 0.442634 0.276259 0.191397
H6    H     H_    0.595219 0.892791 0.311392 0.167800
H7    H     H_    0.460347 0.907239 0.585618 0.146906
H8    H     H_    0.576809 0.119354 0.299835 0.205457
N1    N     N_2   0.498620 0.498660 0.846910 -0.312129
N2    N     N_2   0.498590 0.498630 0.153040 -0.358099
O1    O     O_R   0.500020 0.321960 0.617040 -0.555835
O2    O     O_R   0.499980 0.321920 0.382900 -0.533254
O3    O     O_R   0.316870 0.499990 0.617050 -0.495349
O4    O     O_R   0.316830 0.499950 0.382910 -0.517410
O5    O     O_R   0.500020 0.678080 0.617100 -0.584980
O6    O     O_R   0.499980 0.678040 0.382960 -0.579809
O7    O     O_R   0.683170 0.500050 0.617090 -0.569701
O8    O     O_R   0.683130 0.500010 0.382950 -0.591659
S1    S     S_3+6 0.895952 0.313136 0.721310 0.039798
O9    O     O_2   0.837224 0.377967 0.835435 -0.245085
O10   O     O_2   0.799309 0.226271 0.654733 -0.386973
O11   O     O_3   0.013217 0.232565 0.785411 -0.431328
H9    H     H_    0.029637 0.172358 0.714270 0.352754
O12   O     O_3   0.383632 0.314884 0.847511 -0.507104
C19   C     C_3   0.433772 0.196906 0.864723 0.156586
H10   H     H_    0.418756 0.149212 0.767141 0.127546
H11   H     H_    0.374046 0.136092 0.930780 0.219005
C20   C     C_3   0.573655 0.195513 0.906355 -0.377041
H12   H     H_    0.630238 0.244585 0.827112 0.293551
H13   H     H_    0.593292 0.242656 0.004651 0.216392
C21   C     C_3   0.614329 0.064358 0.923393 -0.847306
H14   H     H_    0.555179 0.012094 0.999142 0.260731
H15   H     H_    0.712724 0.067982 0.961594 0.273515
H16   H     H_    0.607701 0.016000 0.824423 0.254682
S2    S     S_3+6 0.330547 0.292244 0.144036 0.042386
O13   O     O_2   0.224347 0.265267 0.044170 -0.209733
O14   O     O_2   0.404797 0.180111 0.157640 -0.407123
O15   O     O_3   0.262186 0.304904 0.293340 -0.463121
H17   H     H_    0.272637 0.225877 0.342746 0.366513
S3    S     S_3+6 0.109004 0.566695 0.795438 0.034404
O16   O     O_2   0.169287 0.453539 0.846493 -0.162353
O17   O     O_2   0.205755 0.673132 0.791439 -0.339157
O18   O     O_3   0.995857 0.596983 0.903662 -0.537988
H18   H     H_    0.038076 0.603030 0.994377 0.372491
O19   O     O_3   0.917962 0.735565 0.526413 -0.621924
C22   C     C_3   0.930939 0.795505 0.652305 0.065847
H19   H     H_    0.933751 0.896013 0.630079 0.163462
H20   H     H_    0.020482 0.780485 0.705670 0.206684
C23   C     C_3   0.817292 0.763992 0.741321 -0.295974
H21   H     H_    0.731237 0.788264 0.684539 0.216545
H22   H     H_    0.809113 0.663827 0.765310 0.270996
C24   C     C_3   0.827293 0.835948 0.873751 -0.869906
H23   H     H_    0.909360 0.809911 0.936157 0.288828
H24   H     H_    0.741310 0.816097 0.933819 0.248509
H25   H     H_    0.838300 0.936246 0.850516 0.266299
O20   O     O_3   0.070434 0.270419 0.458144 -0.599563
C25   C     C_3   0.983476 0.202422 0.374127 0.086915
H26   H     H_    0.985644 0.240629 0.268084 0.190803
H27   H     H_    0.886936 0.204353 0.413878 0.167760
C26   C     C_3   0.019484 0.068773 0.369821 -0.319422
H28   H     H_    0.109512 0.064548 0.316242 0.239625
H29   H     H_    0.032619 0.033073 0.475477 0.216558
C27   C     C_3   0.919389 0.987031 0.296018 -0.854935
H30   H     H_    0.830193 0.984470 0.352123 0.260682
H31   H     H_    0.950337 0.891686 0.290733 0.280143
H32   H     H_    0.903550 0.022292 0.190448 0.257464

loop_
_geom_bond_atom_site_label_1
_geom_bond_atom_site_label_2
_ccdc_geom_bond_type
C22   H20   S    
S2    O13   D    
H2    N1    S    
C2    C18   S    
C1    C8    S    
Cu1   Cu2   S    
Cu1   O1    S    
C7    C8    D    
S1    O10   D    
Cu2   N2    S    
C25   H26   S    
S3    O18   S    
C18   H4    S    
C26   C27   S    
C6    C12   S    
C5    C6    D    
C25   C26   S    
C22   C23   S    
C15   C16   S    
C1    O1    A    
S3    O17   D    
C19   H11   S    
C23   H22   S    
Cu1   O7    S    
C20   C21   S    
C27   H30   S    
C16   C17   S    
C12   O6    A    
C2    C16   S    
C9    C10   S    
C13   O7    A    
C9    N1    D    
Cu2   O4    S    
C20   H13   S    
C22   H19   S    
C14   C17   S    
C24   H25   S    
C8    H1    S    
S1    O11   S    
C25   H27   S    
C21   H14   S    
H3    N2    S    
C11   O3    A    
O20   C25   S    
C24   H24   S    
Cu1   O3    S    
S1    O9    D    
C5    C7    S    
C24   H23   S    
O15   H17   S    
C19   H10   S    
C1    O2    A    
C7    H8    S    
O18   H18   S    
S3    O16   D    
C12   O5    A    
C23   C24   S    
C3    O20   S    
Cu2   O8    S    
C10   N2    D    
C6    H7    S    
C17   C18   S    
C4    C11   S    
C10   S2    S    
C15   S1    S    
C13   O8    A    
C26   H29   S    
C20   H12   S    
C27   H31   S    
S2    O14   D    
S2    O15   S    
O11   H9    S    
C3    C4    S    
Cu1   N1    S    
C3    C15   S    
O12   C19   S    
Cu2   O2    S    
C19   C20   S    
C9    O12   S    
C11   O4    A    
C26   H28   S    
C14   S3    S    
C17   O19   S    
C21   H16   S    
C2    C3    S    
C4    C18   S    
Cu1   O5    S    
C2    H5    S    
C4    C14   S    
C23   H21   S    
C5    H6    S    
Cu2   O6    S    
C27   H32   S    
O19   C22   S    
C13   C16   S    
C14   C15   S    
C21   H15   S    
