data_mof_unit_14004.cif
_audit_creation_date              2012-12-11T14:15:30-0500
_audit_creation_method            fapswitch 2.2
_symmetry_space_group_name_H-M    P1
_symmetry_Int_Tables_number       1
_space_group_crystal_system       triclinic
_cell_length_a                    11.150807
_cell_length_b                    12.753037
_cell_length_c                    23.47527
_cell_angle_alpha                 90.4692
_cell_angle_beta                  97.10293
_cell_angle_gamma                 68.37595
_cell_volume                      3077.04781347

loop_
_atom_site_label
_atom_site_type_symbol
_atom_type_description
_atom_site_fract_x
_atom_site_fract_y
_atom_site_fract_z
_atom_type_partial_charge
C1    C     C_R   0.149682 0.616893 0.429021 0.555001
C2    C     C_R   0.675765 0.552723 0.309702 -0.174782
C3    C     C_R   0.684665 0.740723 0.318877 0.260871
C4    C     C_R   0.694450 0.744665 0.259146 0.065547
C5    C     C_R   0.689678 0.651675 0.226377 -0.043871
C6    C     C_R   0.689014 0.654218 0.167587 -0.132694
C7    C     C_R   0.692002 0.842100 0.169801 -0.139275
C8    C     C_R   0.709133 0.836031 0.230298 0.262592
C9    C     C_1   0.236230 0.162107 0.123076 0.009991
C10   C     C_2   0.181856 0.231933 0.226820 -0.109005
C11   C     C_2   0.156102 0.164478 0.263065 -0.092199
C12   C     C_R   0.747793 0.604845 0.404138 0.586254
C13   C     C_1   0.132646 0.198221 0.320788 -0.014712
C14   C     C_1   0.211127 0.196687 0.169887 -0.031530
C15   C     C_1   0.115979 0.231629 0.368527 0.021116
C16   C     C_1   0.167911 0.749512 0.123666 0.002005
C17   C     C_2   0.143391 0.688700 0.228076 -0.116410
C18   C     C_2   0.237091 0.677443 0.272021 -0.111057
C19   C     C_1   0.218530 0.653566 0.329660 -0.020271
C20   C     C_1   0.155799 0.720450 0.170786 -0.042281
C21   C     C_1   0.194343 0.635614 0.376537 0.025709
C22   C     C_1   0.627585 0.759912 0.865335 0.034450
C23   C     C_R   0.101134 0.282116 0.423423 0.552166
C24   C     C_2   0.686170 0.734112 0.759196 -0.044399
C25   C     C_2   0.650049 0.661056 0.726850 0.246448
C26   C     C_1   0.674435 0.649076 0.667685 -0.050635
C27   C     C_1   0.659513 0.748276 0.817845 0.035059
C28   C     C_1   0.701735 0.632035 0.619633 0.002368
C29   C     C_R   0.191586 0.194166 0.858124 0.043676
C30   C     C_R   0.101994 0.244874 0.644918 -0.004268
C31   C     C_R   0.991437 0.197807 0.717816 0.255000
C32   C     C_R   0.004906 0.209458 0.660195 -0.001712
C33   C     C_R   0.183379 0.272277 0.687335 -0.130866
C34   C     C_R   0.154457 0.618177 0.588975 0.582971
C35   C     C_R   0.172822 0.260073 0.744651 -0.026137
C36   C     C_R   0.081803 0.216465 0.760815 0.023570
C37   C     C_R   0.092144 0.184097 0.818511 -0.176331
C38   C     C_R   0.263361 0.258369 0.843491 0.254698
C39   C     C_R   0.254836 0.289214 0.785967 -0.113752
C40   C     C_R   0.179292 0.798713 0.838935 0.015569
C41   C     C_R   0.216588 0.645508 0.642464 -0.017559
C42   C     C_R   0.327268 0.576814 0.738323 0.250059
C43   C     C_R   0.301663 0.557460 0.680136 -0.186157
C44   C     C_R   0.170164 0.756549 0.661294 0.248410
C45   C     C_R   0.750358 0.601838 0.565955 0.558512
C46   C     C_R   0.173375 0.771576 0.720411 -0.042577
C47   C     C_R   0.256741 0.682633 0.758945 0.050562
C48   C     C_R   0.265307 0.700442 0.817606 -0.121314
C49   C     C_R   0.082863 0.879811 0.800879 0.212557
C50   C     C_R   0.086231 0.869112 0.741796 -0.090908
C51   C     C_R   0.265875 0.109950 0.069442 0.548387
C52   C     C_R   0.601526 0.774456 0.080916 0.549605
C53   C     C_R   0.189642 0.787621 0.069748 0.555010
C54   C     C_R   0.239209 0.118704 0.909121 0.573049
C55   C     C_R   0.574521 0.776538 0.918613 0.533968
C56   C     C_R   0.099161 0.281664 0.586283 0.557596
C57   C     C_R   0.196087 0.817994 0.900462 0.581405
C58   C     C_R   0.672696 0.754206 0.138822 -0.026251
C59   C     C_R   0.691313 0.638173 0.344291 -0.001702
C60   C     C_R   0.675298 0.559385 0.251432 -0.159901
Cr1   Cr    Cr6+3 0.189770 0.415650 0.511620 1.049360
Cr2   Cr    Cr6+3 0.930400 0.667320 0.496770 1.153191
Cr3   Cr    Cr6+3 0.879870 0.417010 0.491650 1.050791
Cr4   Cr    Cr6+3 0.149500 0.973980 0.985330 1.059863
Cr5   Cr    Cr6+3 0.457000 0.976510 0.994660 1.063033
Cr6   Cr    Cr6+3 0.411170 0.724270 0.995270 1.044010
H1    H     H_    0.681952 0.583097 0.143617 0.147317
H2    H     H_    0.054202 0.677742 0.235274 0.144277
H3    H     H_    0.731506 0.786276 0.741241 0.093099
H4    H     H_    0.034081 0.139567 0.831666 0.186419
H5    H     H_    0.317897 0.329341 0.773087 0.125355
H6    H     H_    0.935715 0.195590 0.627272 0.178714
H7    H     H_    0.253357 0.306529 0.675840 0.135992
H8    H     H_    0.336425 0.635889 0.846919 0.209644
H9    H     H_    0.686828 0.917665 0.147180 0.125381
H10   H     H_    0.014533 0.933940 0.712958 0.207320
H11   H     H_    0.342413 0.472538 0.665156 0.121618
H12   H     H_    0.667482 0.490181 0.226053 0.133149
H13   H     H_    0.674078 0.475579 0.327917 0.164788
H14   H     H_    0.155280 0.082812 0.249961 0.149209
H15   H     H_    0.183475 0.313253 0.240143 0.136228
H16   H     H_    0.325881 0.689459 0.265189 0.149536
O1    O     O_R   0.196340 0.303200 0.448500 -0.493264
O2    O     O_R   0.811960 0.658090 0.547150 -0.482340
O3    O     O_R   0.757930 0.506140 0.547110 -0.505651
O4    O     O_R   0.988670 0.321620 0.556040 -0.504522
O5    O     O_3   0.000020 0.499990 0.500010 -0.285946
O6    O     O_R   0.113660 0.883270 0.047820 -0.503991
O7    O     O_R   0.186930 0.068530 0.043990 -0.499767
O8    O     O_R   0.377770 0.089040 0.054220 -0.497640
O9    O     O_R   0.562800 0.872960 0.056970 -0.498324
O10   O     O_R   0.555390 0.700940 0.062700 -0.514073
O11   O     O_R   0.295020 0.731920 0.049950 -0.485890
O12   O     O_R   0.199310 0.519670 0.454880 -0.500802
O13   O     O_R   0.094290 0.884230 0.921550 -0.432680
O14   O     O_R   0.168980 0.069410 0.926940 -0.521629
O15   O     O_R   0.358400 0.089990 0.927950 -0.447889
O16   O     O_R   0.544850 0.873850 0.939920 -0.497525
O17   O     O_R   0.536020 0.701900 0.936430 -0.503625
O18   O     O_R   0.277070 0.732810 0.932890 -0.517730
O19   O     O_3   0.339220 0.891590 0.991750 -0.287480
O20   O     O_R   0.045660 0.691380 0.441680 -0.462138
O21   O     O_R   0.811930 0.659460 0.430950 -0.439717
O22   O     O_R   0.757900 0.507620 0.421760 -0.527543
O23   O     O_R   0.988630 0.322990 0.439840 -0.493236
O24   O     O_R   0.196380 0.301720 0.573850 -0.508278
O25   O     O_R   0.199350 0.518300 0.571080 -0.521819
O26   O     O_R   0.045700 0.689900 0.567030 -0.435404
O27   O     O_3   0.597338 0.592566 0.751204 -0.651220
H17   H     H_    0.586576 0.538967 0.721997 0.336989
O28   O     O_3   0.347511 0.282447 0.885161 -0.665858
H18   H     H_    0.389752 0.327784 0.867365 0.343937
O29   O     O_3   0.887139 0.172199 0.729696 -0.717595
H19   H     H_    0.862556 0.203241 0.767170 0.328222
O30   O     O_3   0.985130 0.967143 0.821949 -0.685182
H20   H     H_    0.913529 0.001673 0.790381 0.346328
O31   O     O_3   0.411137 0.491394 0.776173 -0.701050
H21   H     H_    0.456751 0.425103 0.754073 0.318401
S1    S     S_3+6 0.117686 0.874818 0.611843 0.014402
O32   O     O_2   0.971557 0.922950 0.600743 -0.282167
O33   O     O_2   0.165274 0.963326 0.637010 -0.303936
O34   O     O_3   0.178576 0.836000 0.549537 -0.502095
H22   H     H_    0.140750 0.904964 0.524090 0.372885
O35   O     O_3   0.740941 0.917085 0.260874 -0.608990
H23   H     H_    0.749141 0.972595 0.233777 0.321520
S2    S     S_3+6 0.640518 0.864250 0.360084 0.067939
O36   O     O_2   0.759812 0.889623 0.380462 -0.218265
O37   O     O_2   0.542917 0.962885 0.324100 -0.243284
O38   O     O_3   0.572977 0.844548 0.417339 -0.531527
H24   H     H_    0.558745 0.913657 0.439450 0.369533

loop_
_geom_bond_atom_site_label_1
_geom_bond_atom_site_label_2
_ccdc_geom_bond_type
C1    C21   S    
S2    O36   D    
C6    C58   A    
C35   C39   A    
C35   C36   A    
C9    C51   S    
C24   C27   S    
Cr5   O19   S    
C4    C8    A    
C3    S2    S    
C7    C8    A    
C32   H6    S    
C60   H12   S    
C23   O1    A    
C34   O25   A    
C36   C37   A    
C19   C21   T    
Cr5   O16   S    
C12   O22   A    
C51   O8    A    
C5    C6    A    
C2    C60   A    
Cr2   O26   S    
C29   C54   S    
C40   C49   A    
C23   O23   A    
C17   C20   S    
C40   C48   A    
C18   C19   S    
Cr6   O18   S    
C16   C53   S    
C2    H13   S    
Cr1   O5    S    
C33   C35   A    
O29   H19   S    
C12   C59   S    
O28   H18   S    
C1    O12   A    
C29   C38   A    
C54   O15   A    
Cr3   O23   S    
C7    C58   A    
C54   O14   A    
C30   C33   A    
C25   O27   S    
C15   C23   S    
C37   H4    S    
Cr3   O3    S    
C41   C43   A    
Cr6   O19   S    
Cr4   O19   S    
C34   C41   S    
Cr4   O7    S    
C44   C46   A    
C24   H3    S    
S1    O33   D    
Cr5   O8    S    
C28   C45   S    
C53   O11   A    
C48   H8    S    
C24   C25   D    
Cr4   O14   S    
C12   O21   A    
Cr1   O1    S    
Cr1   O12   S    
C8    O35   S    
Cr6   O10   S    
S2    O38   S    
C25   C26   S    
C57   O18   A    
C30   C56   S    
Cr6   O17   S    
C45   O3    A    
C9    C14   T    
C50   H10   S    
C56   O4    A    
C47   C48   A    
C16   C20   T    
C17   C18   D    
Cr1   O24   S    
C56   O24   A    
C52   C58   S    
Cr6   O11   S    
C33   H7    S    
C6    H1    S    
C49   O30   S    
C22   C27   T    
C13   C15   T    
Cr3   O4    S    
C10   C14   S    
C41   C44   A    
C52   O10   A    
C45   O2    A    
C42   C43   A    
C29   C37   A    
C3    C4    A    
O38   H24   S    
S1    O34   S    
Cr5   O9    S    
Cr2   O2    S    
C46   C47   A    
C17   H2    S    
S2    O37   D    
C40   C57   S    
C5    C60   A    
Cr3   O5    S    
C2    C59   A    
C31   C32   A    
Cr4   O13   S    
C4    C5    A    
Cr2   O21   S    
C7    H9    S    
S1    O32   D    
C42   O31   S    
C22   C55   S    
C11   H14   S    
C43   H11   S    
Cr2   O5    S    
C46   C50   A    
C10   H15   S    
C26   C28   T    
C44   S1    S    
C34   O26   A    
O34   H22   S    
Cr5   O15   S    
O27   H17   S    
C51   O7    A    
C30   C32   A    
C11   C13   S    
C38   C39   A    
C55   O16   A    
C18   H16   S    
Cr4   O6    S    
C53   O6    A    
C42   C47   A    
Cr1   O25   S    
C10   C11   D    
C49   C50   A    
C57   O13   A    
C55   O17   A    
C39   H5    S    
C31   C36   A    
C52   O9    A    
Cr2   O20   S    
C38   O28   S    
O31   H21   S    
C1    O20   A    
C31   O29   S    
O30   H20   S    
O35   H23   S    
Cr3   O22   S    
C3    C59   A    
