data_mof_unit_47987.cif
_audit_creation_date              2012-12-11T14:51:41-0500
_audit_creation_method            fapswitch 2.2
_symmetry_space_group_name_H-M    P1
_symmetry_Int_Tables_number       1
_space_group_crystal_system       triclinic
_cell_length_a                    6.94159
_cell_length_b                    16.684269
_cell_length_c                    16.958864
_cell_angle_alpha                 101.351661
_cell_angle_beta                  90.572664
_cell_angle_gamma                 90.257655
_cell_volume                      1925.53633181

loop_
_atom_site_label
_atom_site_type_symbol
_atom_type_description
_atom_site_fract_x
_atom_site_fract_y
_atom_site_fract_z
_atom_type_partial_charge
O1    O     O_R   0.506340 0.439070 0.579550 -0.543526
O2    O     O_R   0.170010 0.404890 0.412100 -0.540979
O3    O     O_R   0.005010 0.560930 0.420450 -0.539827
C1    C     C_R   0.339283 0.381138 0.383812 0.707411
O4    O     O_R   0.176280 0.429360 0.578400 -0.537877
O5    O     O_R   0.011320 0.585570 0.587940 -0.539470
C2    C     C_R   0.344941 0.412522 0.604184 0.702256
O6    O     O_R   0.500030 0.414430 0.412060 -0.525934
O7    O     O_3   0.340950 0.551220 0.502940 -0.371193
V1    V     V_3+5 0.064020 0.490500 0.499460 1.413385
O8    O     O_R   0.681910 0.595110 0.587900 -0.542307
C3    C     C_R   0.851716 0.618328 0.616631 0.685182
O9    O     O_R   0.675640 0.570640 0.421600 -0.543462
C4    C     C_R   0.842216 0.586372 0.394704 0.694360
V2    V     V_3+5 0.564670 0.509500 0.500540 1.408938
O10   O     O_3   0.837610 0.448780 0.497060 -0.359234
C5    C     C_R   0.928321 0.860484 0.166705 -0.069717
C6    C     C_R   0.837314 0.639378 0.333285 -0.069551
C7    C     C_R   0.645942 0.697515 0.236284 -0.197942
C8    C     C_R   0.666287 0.642500 0.288181 -0.164030
C9    C     C_R   0.990297 0.692015 0.323721 -0.243608
C10   C     C_R   0.969795 0.748350 0.271882 0.160451
C11   C     C_R   0.795841 0.751463 0.228047 0.158414
C12   C     C_R   0.775359 0.807805 0.176205 -0.231108
C13   C     C_R   0.099318 0.857358 0.211826 -0.164092
C14   C     C_R   0.119682 0.802307 0.263674 -0.200407
H1    H     H_    0.643575 0.808758 0.141560 0.126798
H2    H     H_    0.219964 0.897230 0.206317 0.125837
H3    H     H_    0.511859 0.698325 0.203165 0.124162
H4    H     H_    0.253758 0.801495 0.296796 0.121095
H5    H     H_    0.545628 0.602652 0.293737 0.126787
H6    H     H_    0.122125 0.691048 0.358333 0.121758
C15   C     C_3   0.810645 0.818116 0.730338 -0.182110
C16   C     C_3   0.980814 0.767798 0.687507 -0.128088
H7    H     H_    0.061036 0.782120 0.635639 0.107785
H8    H     H_    0.752205 0.874794 0.714478 0.107989
C17   C     C_3   0.865831 0.688371 0.687369 -0.040646
C18   C     C_3   0.694824 0.737852 0.729084 -0.170078
C19   C     C_3   0.787780 0.732401 0.810434 0.243196
C20   C     C_3   0.955726 0.681349 0.769457 -0.138475
C21   C     C_3   0.070361 0.761829 0.770457 -0.152861
C22   C     C_3   0.900375 0.811626 0.812591 -0.018443
H9    H     H_    0.540153 0.727367 0.712922 0.111955
H10   H     H_    0.012623 0.624731 0.786004 0.102664
H11   H     H_    0.224620 0.772071 0.787512 0.110802
C23   C     C_3   0.546551 0.266606 0.288590 0.269773
C24   C     C_3   0.445382 0.182701 0.275851 -0.199347
H12   H     H_    0.501659 0.128494 0.297278 0.114617
C25   C     C_3   0.410138 0.189105 0.186920 -0.044104
C26   C     C_3   0.515020 0.272762 0.199883 -0.225646
C27   C     C_3   0.320800 0.317228 0.224276 -0.198317
C28   C     C_3   0.219626 0.233328 0.211554 0.270685
C29   C     C_3   0.251180 0.227178 0.300258 -0.226398
C30   C     C_3   0.356041 0.310833 0.313197 -0.044149
H13   H     H_    0.623310 0.291897 0.159534 0.120663
H14   H     H_    0.264523 0.371442 0.202863 0.113501
H15   H     H_    0.142907 0.208060 0.340625 0.123870
C31   C     C_R   0.424486 0.135020 0.830464 -0.083964
C32   C     C_R   0.346650 0.358038 0.664294 -0.138471
C33   C     C_R   0.171269 0.308704 0.769386 -0.168011
C34   C     C_R   0.189898 0.362510 0.716777 -0.175140
C35   C     C_R   0.489186 0.297427 0.665733 0.137234
C36   C     C_R   0.470138 0.241528 0.719325 0.152739
C37   C     C_R   0.308305 0.247961 0.771200 0.050069
C38   C     C_R   0.285708 0.194416 0.825438 -0.238582
C39   C     C_R   0.581915 0.127434 0.778344 -0.251220
C40   C     C_R   0.606338 0.179044 0.723201 0.206637
H16   H     H_    0.164294 0.201125 0.865903 0.132544
H17   H     H_    0.689947 0.081265 0.781013 0.125941
H18   H     H_    0.047610 0.314345 0.808586 0.128723
H19   H     H_    0.078969 0.408003 0.716760 0.127686
O11   O     O_R   0.266070 0.085680 0.087850 -0.525498
O12   O     O_R   0.590090 0.070660 0.921580 -0.542056
O13   O     O_R   0.754780 0.914400 0.912080 -0.540421
C41   C     C_R   0.422191 0.085547 0.894298 0.715814
O14   O     O_R   0.596110 0.095130 0.087880 -0.542947
O15   O     O_R   0.760850 0.939050 0.079570 -0.539145
C42   C     C_R   0.426852 0.118858 0.116216 0.708026
O16   O     O_R   0.260010 0.061030 0.920360 -0.538685
O17   O     O_3   0.425070 0.948840 0.997010 -0.373563
V3    V     V_3+5 0.702100 0.009490 0.000550 1.416166
O18   O     O_R   0.090200 0.929250 0.078500 -0.543991
C43   C     C_R   0.923547 0.913525 0.105321 0.704465
O19   O     O_R   0.084180 0.904770 0.912200 -0.545355
C44   C     C_R   0.914366 0.881565 0.883468 0.701227
V4    V     V_3+5 0.201420 0.990350 0.999580 1.420553
O20   O     O_3   0.928580 0.051150 0.002990 -0.358853
N1    N     N_3   0.683161 0.713193 0.878430 -0.679539
H20   H     H_    0.618596 0.655876 0.859229 0.220252
H21   H     H_    0.571396 0.755363 0.891282 0.227241
N2    N     N_3   0.727534 0.283940 0.332956 -0.644146
H22   H     H_    0.818963 0.234883 0.312965 0.207784
H23   H     H_    0.789403 0.335476 0.316693 0.225883
N3    N     N_3   0.038547 0.215997 0.167264 -0.645164
H24   H     H_    0.947112 0.265029 0.187346 0.206432
H25   H     H_    0.976804 0.164432 0.183520 0.225288
N4    N     N_3   0.771954 0.167437 0.672522 -0.618098
H26   H     H_    0.767164 0.107834 0.638729 0.224226
H27   H     H_    0.895150 0.172939 0.709212 0.231222
N5    N     N_3   0.648575 0.290630 0.611616 -0.607773
H28   H     H_    0.596301 0.283606 0.552597 0.237762
H29   H     H_    0.732800 0.343676 0.625919 0.245297

loop_
_geom_bond_atom_site_label_1
_geom_bond_atom_site_label_2
_ccdc_geom_bond_type
C6    C9    A    
C21   C22   S    
C4    C6    S    
O2    C1    A    
C7    C8    A    
C12   H1    S    
C1    O6    A    
N4    H26   S    
C24   C25   S    
C29   C30   S    
C13   H2    S    
C17   C18   S    
C15   C22   S    
O14   C42   A    
C27   H14   S    
C17   C20   S    
O5    C3    A    
C18   C19   S    
C39   H17   S    
O15   C43   A    
V2    O10   S    
C16   C17   S    
C15   H8    S    
C25   C42   S    
C16   H7    S    
O12   V3    S    
C3    C17   S    
O11   C42   A    
O8    V2    S    
C31   C39   A    
O17   V4    S    
C11   C12   A    
C28   N3    S    
O1    V2    S    
O15   V3    S    
O7    V1    S    
C20   H10   S    
C24   C29   S    
C25   C28   S    
C39   C40   A    
O9    C4    A    
O12   C41   A    
C16   C21   S    
C19   N1    S    
C2    C32   S    
N4    H27   S    
C31   C41   S    
C26   C27   S    
C19   C22   S    
C9    H6    S    
C36   C40   A    
C32   C34   A    
C5    C12   A    
C27   C28   S    
O19   C44   A    
C19   C20   S    
O4    C2    A    
C29   H15   S    
V4    O20   S    
C23   N2    S    
C13   C14   A    
O18   V4    S    
O18   C43   A    
C33   C34   A    
C5    C43   S    
C7    C11   A    
C35   C36   A    
N2    H23   S    
C31   C38   A    
C24   H12   S    
C33   H18   S    
C38   H16   S    
C23   C30   S    
N5    H29   S    
C15   C16   S    
C22   C44   S    
N3    H25   S    
V3    O20   S    
O3    C4    A    
C35   N5    S    
C20   C21   S    
N1    H21   S    
C14   H4    S    
O6    V2    S    
O9    V2    S    
O13   V3    S    
O2    V1    S    
N2    H22   S    
C28   C29   S    
C23   C24   S    
C32   C35   A    
C1    C30   S    
O1    C2    A    
C26   H13   S    
O19   V4    S    
O17   V3    S    
O14   V3    S    
O5    V1    S    
O11   V4    S    
O8    C3    A    
C23   C26   S    
C15   C18   S    
C33   C37   A    
C27   C30   S    
C5    C13   A    
C37   C38   A    
O7    V2    S    
C18   H9    S    
O3    V1    S    
V1    O10   S    
C34   H19   S    
N5    H28   S    
C6    C8    A    
O13   C44   A    
N3    H24   S    
C40   N4    S    
C36   C37   A    
O4    V1    S    
N1    H20   S    
C25   C26   S    
C10   C14   A    
C21   H11   S    
C10   C11   A    
C9    C10   A    
C41   O16   A    
O16   V4    S    
C8    H5    S    
C7    H3    S    
