data_mof_unit_14389.cif
_audit_creation_date              2012-12-10T16:44:46-0500
_audit_creation_method            fapswitch 2.2
_symmetry_space_group_name_H-M    P1
_symmetry_Int_Tables_number       1
_space_group_crystal_system       triclinic
_cell_length_a                    15.014119
_cell_length_b                    8.7716
_cell_length_c                    7.550757
_cell_angle_alpha                 102.726334
_cell_angle_beta                  95.753899
_cell_angle_gamma                 93.56084
_cell_volume                      961.463383625

loop_
_atom_site_label
_atom_site_type_symbol
_atom_type_description
_atom_site_fract_x
_atom_site_fract_y
_atom_site_fract_z
_atom_type_partial_charge
C1    C     C_R   0.496670 0.201031 0.454760 0.847912
C2    C     C_R   0.503431 0.798991 0.545214 0.876606
C3    C     C_R   0.025458 0.213228 0.365175 0.199554
C4    C     C_R   0.973631 0.790601 0.625546 0.137781
C5    C     C_2   0.484151 0.034944 0.432346 -0.062119
C6    C     C_2   0.516137 0.965083 0.567446 -0.054604
C7    C     C_R   0.329318 0.496489 0.499241 0.760897
C8    C     C_R   0.670564 0.502279 0.500388 0.830534
C9    C     C_R   0.818915 0.648002 0.538735 0.116214
C10   C     C_R   0.179176 0.352439 0.451162 0.127392
C11   C     C_R   0.767187 0.504508 0.500521 -0.080029
C12   C     C_R   0.232554 0.495221 0.497915 -0.132532
C13   C     C_R   0.805819 0.362812 0.463945 0.093194
C14   C     C_R   0.194628 0.637977 0.535484 0.118788
C15   C     C_R   0.896629 0.362086 0.437011 0.054877
C16   C     C_R   0.103120 0.640563 0.558307 0.045215
C17   C     C_R   0.952778 0.504338 0.496990 -0.054802
C18   C     C_R   0.046586 0.498999 0.497458 -0.078858
C19   C     C_R   0.914634 0.651134 0.553827 0.011830
C20   C     C_R   0.084187 0.352227 0.438548 0.043961
C21   C     C_R   0.932066 0.222251 0.353659 0.177895
C22   C     C_R   0.067333 0.781366 0.638417 0.219023
Cu1   Cu    Cu3+1 0.510010 0.517380 0.684380 1.035135
Cu2   Cu    Cu3+1 0.489990 0.482620 0.315620 1.034249
N1    N     N_2   0.474890 0.456420 0.038520 -0.006100
N2    N     N_2   0.525110 0.543580 0.961480 -0.004121
O1    O     O_R   0.506510 0.286130 0.619770 -0.609909
O2    O     O_R   0.493490 0.713870 0.380230 -0.604684
O3    O     O_R   0.489600 0.256770 0.308360 -0.552713
O4    O     O_R   0.510400 0.743230 0.691640 -0.549484
O5    O     O_R   0.378710 0.514640 0.655720 -0.563903
O6    O     O_R   0.621290 0.485360 0.344280 -0.564397
O7    O     O_R   0.361800 0.485290 0.344300 -0.573884
O8    O     O_R   0.638200 0.514710 0.655700 -0.570983
N3    N     N_3   0.770039 0.784731 0.560421 -0.576213
H1    H     H_    0.789529 0.855525 0.474233 0.287150
H2    H     H_    0.774028 0.841286 0.698246 0.278449
N4    N     N_3   0.222696 0.209961 0.411699 -0.520847
H3    H     H_    0.266656 0.203453 0.525426 0.244992
H4    H     H_    0.259405 0.209859 0.301057 0.255886
N5    N     N_3   0.755546 0.221953 0.477206 -0.548850
H5    H     H_    0.696498 0.203239 0.386379 0.225991
H6    H     H_    0.738763 0.237842 0.610485 0.225877
N6    N     N_3   0.246331 0.777920 0.524006 -0.535424
H7    H     H_    0.304801 0.795370 0.616330 0.225525
H8    H     H_    0.263974 0.761963 0.391384 0.227992
I1    I     I_    0.844343 0.032630 0.176035 -0.268788
I2    I     I_    0.155084 0.974116 0.811936 -0.223832
I3    I     I_    0.068713 0.981587 0.269282 -0.227655
I4    I     I_    0.931904 0.023200 0.721322 -0.291668
N7    N     N_3   0.430431 0.952614 0.265916 -0.553939
H9    H     H_    0.470110 0.885590 0.178630 0.277678
H10   H     H_    0.377379 0.883425 0.295016 0.232017
N8    N     N_3   0.570231 0.047412 0.733415 -0.548553
H11   H     H_    0.530771 0.114533 0.821133 0.275932
H12   H     H_    0.623132 0.116588 0.703646 0.232181
I5    I     I_    0.371121 0.292920 0.900967 -0.197808
I6    I     I_    0.629318 0.706493 0.100156 -0.164028

loop_
_geom_bond_atom_site_label_1
_geom_bond_atom_site_label_2
_ccdc_geom_bond_type
C22   I2    S    
Cu1   Cu2   S    
Cu2   O6    S    
C15   C17   A    
C14   C16   A    
Cu1   O1    S    
C4    C22   A    
N5    H5    S    
Cu2   O7    S    
C13   C15   A    
C10   N4    S    
C2    O4    A    
Cu1   O8    S    
C16   C22   A    
C13   N5    S    
C17   C18   A    
C3    I3    S    
C3    C20   A    
C16   C18   A    
C8    O8    A    
C21   I1    S    
N6    H7    S    
N4    H4    S    
N5    H6    S    
C2    C6    S    
C15   C21   A    
C10   C12   A    
C6    N8    S    
C8    C11   S    
C1    C5    S    
C1    O3    A    
N3    H2    S    
C12   C14   A    
C18   C20   A    
C9    C11   A    
C5    C6    D    
N8    H12   S    
C7    C12   S    
C3    C21   A    
C7    O5    A    
C7    O7    A    
C9    N3    S    
N7    H9    S    
C8    O6    A    
Cu1   O4    S    
N1    I5    S    
C11   C13   A    
N4    H3    S    
Cu2   N1    S    
C14   N6    S    
C9    C19   A    
Cu1   N2    S    
C10   C20   A    
C1    O1    A    
Cu2   O3    S    
C5    N7    S    
C2    O2    A    
N6    H8    S    
C17   C19   A    
N1    N2    D    
N8    H11   S    
C4    C19   A    
N2    I6    S    
Cu2   O2    S    
C4    I4    S    
N7    H10   S    
N3    H1    S    
Cu1   O5    S    
