data_mof_unit_63415.cif
_audit_creation_date              2012-12-10T18:42:47-0500
_audit_creation_method            fapswitch 2.2
_symmetry_space_group_name_H-M    P1
_symmetry_Int_Tables_number       1
_space_group_crystal_system       triclinic
_cell_length_a                    45.039953
_cell_length_b                    31.843411
_cell_length_c                    31.860833
_cell_angle_alpha                 89.997107
_cell_angle_beta                  134.978611
_cell_angle_gamma                 90.001344
_cell_volume                      32323.747383

loop_
_atom_site_label
_atom_site_type_symbol
_atom_type_description
_atom_site_fract_x
_atom_site_fract_y
_atom_site_fract_z
_atom_type_partial_charge
Br1   Br    Br    0.214177 0.082264 0.265400 -0.536806
Br2   Br    Br    0.544558 0.414134 0.830333 -0.517868
Br3   Br    Br    0.902923 0.001906 0.688793 -0.490553
Br4   Br    Br    0.402989 0.504085 0.688859 -0.490741
Br5   Br    Br    0.453605 0.415512 0.239062 -0.459031
Br6   Br    Br    0.447051 0.580521 0.232502 -0.457979
Br7   Br    Br    0.945208 0.920740 0.230671 -0.457191
Br8   Br    Br    0.955568 0.085554 0.241007 -0.459751
Br9   Br    Br    0.904336 0.006036 0.119239 -0.388687
Br10  Br    Br    0.404219 0.496192 0.119126 -0.388663
Br11  Br    Br    0.786185 0.007513 0.689544 -0.493986
Br12  Br    Br    0.214189 0.914529 0.259821 -0.535647
Br13  Br    Br    0.286185 0.510105 0.689778 -0.494137
Br14  Br    Br    0.714184 0.585361 0.260010 -0.535815
Br15  Br    Br    0.714183 0.417612 0.265214 -0.536600
Br16  Br    Br    0.214435 0.003253 0.117713 -0.516255
Br17  Br    Br    0.714435 0.496979 0.117703 -0.516359
Br18  Br    Br    0.049748 0.082969 0.835515 -0.515587
Br19  Br    Br    0.046477 0.915164 0.832252 -0.518400
Br20  Br    Br    0.551598 0.581825 0.837364 -0.516287
C1    C     C_R   0.581359 0.000001 0.581330 0.904849
C2    C     C_3   0.998863 0.208846 0.499052 0.020207
C3    C     C_R   0.581353 0.499999 0.081413 0.897111
C4    C     C_3   0.020377 0.034220 0.784316 0.234154
C5    C     C_3   0.019027 0.965024 0.782972 0.234063
C6    C     C_3   0.521140 0.533748 0.785078 0.234194
C7    C     C_3   0.518236 0.464600 0.782181 0.234013
C8    C     C_3   0.481325 0.535299 0.717587 0.066980
C9    C     C_3   0.478431 0.466395 0.714702 0.066599
C10   C     C_3   0.980537 0.034875 0.716801 0.066786
C11   C     C_3   0.979192 0.965924 0.715462 0.066742
C12   C     C_1   0.499877 0.500001 0.625719 -0.185045
C13   C     C_3   0.460538 0.236213 0.448916 0.151664
C14   C     C_1   0.999877 0.000003 0.625719 -0.185003
C15   C     C_1   0.999827 0.000005 0.874107 -0.105358
C16   C     C_1   0.499827 0.500005 0.874106 -0.105372
C17   C     C_3   0.539522 0.498338 0.775797 0.065853
C18   C     C_3   0.039550 0.999234 0.775825 0.065835
C19   C     C_3   0.499788 0.500008 0.708605 -0.086904
C20   C     C_3   0.999788 0.000010 0.708606 -0.086900
C21   C     C_3   0.999715 0.000013 0.791116 -0.082027
C22   C     C_3   0.499714 0.500015 0.791115 -0.082007
C23   C     C_3   0.528215 0.235991 0.501278 -0.222070
C24   C     C_3   0.460982 0.763787 0.447989 0.151428
C25   C     C_3   0.529156 0.764014 0.503250 -0.222465
C26   C     C_3   0.029814 0.735987 0.504644 -0.222361
C27   C     C_3   0.029171 0.264014 0.503299 -0.222210
C28   C     C_3   0.959800 0.000792 0.723744 0.231862
C29   C     C_3   0.459827 0.501691 0.723770 0.231860
C30   C     C_1   0.499834 0.500004 0.663142 -0.031648
C31   C     C_1   0.999834 0.000006 0.663142 -0.031624
C32   C     C_1   0.999754 0.000009 0.836566 0.140257
C33   C     C_1   0.499754 0.500011 0.836565 0.140259
C34   C     C_3   0.018456 0.964146 0.254695 0.073217
C35   C     C_3   0.961335 0.736215 0.447342 0.151376
C36   C     C_3   0.022800 0.033297 0.259025 0.072873
C37   C     C_3   0.522023 0.466196 0.258255 0.072850
C38   C     C_3   0.519274 0.535428 0.255507 0.073250
C39   C     C_3   0.482216 0.464843 0.246197 0.222584
C40   C     C_3   0.479485 0.533617 0.243466 0.222163
C41   C     C_3   0.978718 0.966880 0.242704 0.222112
C42   C     C_3   0.983034 0.035573 0.247007 0.222632
C43   C     C_1   0.500181 0.500004 0.374458 -0.145357
C44   C     C_1   0.000181 0.000000 0.374458 -0.145389
C45   C     C_1   0.000190 0.999995 0.126035 -0.155201
C46   C     C_3   0.960981 0.263788 0.447938 0.151658
C47   C     C_1   0.500189 0.500000 0.126034 -0.155207
C48   C     C_3   0.540857 0.501614 0.304663 0.128205
C49   C     C_3   0.040812 0.997455 0.304618 0.128223
C50   C     C_3   0.500826 0.500023 0.292198 -0.108777
C51   C     C_3   0.000827 0.999974 0.292199 -0.108778
C52   C     C_3   0.000751 0.999969 0.209532 -0.115134
C53   C     C_3   0.500748 0.500022 0.209530 -0.115116
C54   C     C_1   0.499756 0.125840 0.499757 -0.183240
C55   C     C_1   0.499757 0.874159 0.499764 -0.183384
C56   C     C_1   0.999762 0.625841 0.499759 -0.183348
C57   C     C_3   0.490114 0.263733 0.451568 0.174980
C58   C     C_1   0.999750 0.374159 0.499756 -0.183286
C59   C     C_3   0.961214 0.002460 0.197442 0.248265
C60   C     C_3   0.461165 0.498448 0.197395 0.248263
C61   C     C_1   0.500414 0.500010 0.337226 0.079641
C62   C     C_1   0.000415 0.999993 0.337226 0.079627
C63   C     C_1   0.000391 0.999986 0.163701 0.026224
C64   C     C_1   0.500388 0.500007 0.163698 0.026220
C65   C     C_1   0.499894 0.374148 0.499974 -0.175671
C66   C     C_1   0.499894 0.625851 0.499969 -0.176185
C67   C     C_1   0.999897 0.874149 0.499962 -0.176307
C68   C     C_3   0.491492 0.736274 0.452633 0.176660
C69   C     C_1   0.999891 0.125851 0.499965 -0.175540
C70   C     C_3   0.507715 0.236269 0.546627 0.181165
C71   C     C_3   0.506342 0.763721 0.545520 0.181297
C72   C     C_3   0.005353 0.736275 0.544669 0.181264
C73   C     C_3   0.006276 0.263721 0.545461 0.181097
C74   C     C_3   0.498812 0.208841 0.498995 0.021103
C75   C     C_3   0.498812 0.791158 0.498974 0.021142
C76   C     C_3   0.998818 0.708842 0.498937 0.021079
C77   C     C_3   0.998795 0.291158 0.498954 0.021191
C78   C     C_3   0.283267 0.074032 0.243974 -0.363178
C79   C     C_3   0.992492 0.763730 0.453415 0.177143
C80   C     C_3   0.250489 0.104818 0.194672 -0.736861
C81   C     C_3   0.283258 0.928781 0.239120 -0.362853
C82   C     C_3   0.250470 0.899184 0.187789 -0.737017
C83   C     C_3   0.783255 0.571324 0.239278 -0.363208
C84   C     C_3   0.750467 0.600967 0.188016 -0.736104
C85   C     C_3   0.783270 0.426062 0.243804 -0.362891
C86   C     C_3   0.750493 0.395318 0.194430 -0.737578
C87   C     C_3   0.282901 0.997205 0.366872 -0.346692
C88   C     C_3   0.249930 0.996055 0.368671 -0.763597
C89   C     C_3   0.782900 0.502594 0.366875 -0.346691
C90   C     C_3   0.991522 0.236275 0.452651 0.175052
C91   C     C_3   0.749928 0.503662 0.368676 -0.763615
C92   C     C_3   0.460968 0.574368 0.677854 -0.361640
C93   C     C_3   0.444719 0.605278 0.694426 -0.741995
C94   C     C_3   0.454870 0.429169 0.671781 -0.360086
C95   C     C_3   0.436081 0.399745 0.685827 -0.744497
C96   C     C_3   0.959307 0.073478 0.676198 -0.361542
C97   C     C_3   0.942368 0.104013 0.692082 -0.741858
C98   C     C_3   0.956474 0.928178 0.673382 -0.360213
C99   C     C_3   0.938352 0.898336 0.688094 -0.744473
C100  C     C_3   0.583579 0.496482 0.800572 -0.370232
C101  C     C_1   0.499414 0.163338 0.499453 -0.064629
C102  C     C_3   0.618350 0.495033 0.868248 -0.710851
C103  C     C_3   0.083637 0.998371 0.800631 -0.370163
C104  C     C_3   0.118433 0.997697 0.868331 -0.710926
C105  C     C_3   0.035674 0.923595 0.252480 -0.342402
C106  C     C_3   0.052750 0.893001 0.302241 -0.816719
C107  C     C_3   0.044957 0.071362 0.261718 -0.342286
C108  C     C_3   0.065735 0.099587 0.315159 -0.814298
C109  C     C_3   0.543297 0.427628 0.260074 -0.342483
C110  C     C_3   0.563418 0.398934 0.312864 -0.814106
C111  C     C_3   0.537422 0.575567 0.254207 -0.342351
C112  C     C_R   0.081359 0.500001 0.581330 0.904897
C113  C     C_1   0.499416 0.836661 0.499455 -0.064776
C114  C     C_3   0.555202 0.605762 0.304662 -0.816666
C115  C     C_3   0.584667 0.503353 0.368283 -0.363749
C116  C     C_3   0.619768 0.504749 0.370774 -0.851062
C117  C     C_3   0.084569 0.994708 0.368189 -0.363766
C118  C     C_3   0.119630 0.992498 0.370641 -0.851042
C119  C     C_3   0.483341 0.282697 0.401154 -0.388137
C120  C     C_3   0.478290 0.249120 0.362353 -0.835303
C121  C     C_3   0.486269 0.717320 0.403553 -0.389514
C122  C     C_3   0.482409 0.750904 0.365789 -0.838848
C123  C     C_3   0.988385 0.782689 0.405333 -0.390302
C124  C     C_1   0.999423 0.663338 0.499439 -0.064685
C125  C     C_3   0.985387 0.749110 0.368342 -0.839212
C126  C     C_3   0.986350 0.217320 0.403616 -0.388043
C127  C     C_3   0.982531 0.250902 0.365888 -0.835632
C128  C     C_3   0.419147 0.215437 0.394274 -0.401548
C129  C     C_3   0.385029 0.247079 0.348909 -0.847296
C130  C     C_3   0.420084 0.784561 0.392387 -0.401679
C131  C     C_3   0.386392 0.752916 0.346248 -0.846418
C132  C     C_3   0.920825 0.715444 0.391091 -0.401700
C133  C     C_3   0.887460 0.747092 0.344428 -0.846256
C134  C     C_3   0.920102 0.284566 0.392305 -0.401772
C135  C     C_1   0.999404 0.336662 0.499441 -0.064744
C136  C     C_3   0.886420 0.252926 0.346135 -0.846771
C137  C     C_3   0.437871 0.284607 0.495224 -0.394068
C138  C     C_3   0.411999 0.252959 0.494298 -0.858404
C139  C     C_3   0.435895 0.715379 0.491030 -0.393826
C140  C     C_3   0.409155 0.747022 0.488311 -0.857894
C141  C     C_3   0.934522 0.784614 0.487999 -0.393693
C142  C     C_3   0.907182 0.752967 0.483989 -0.858061
C143  C     C_3   0.935807 0.215380 0.490859 -0.393974
C144  C     C_3   0.909039 0.247023 0.488079 -0.857823
C145  C     C_3   0.520490 0.217386 0.601706 -0.397813
C146  C     C_1   0.499565 0.336653 0.499700 -0.061988
C147  C     C_3   0.530504 0.251033 0.644275 -0.845093
C148  C     C_3   0.517612 0.782590 0.599524 -0.396975
C149  C     C_3   0.526463 0.748933 0.641261 -0.846694
C150  C     C_3   0.015534 0.717400 0.597857 -0.397250
C151  C     C_3   0.023550 0.751053 0.638972 -0.846055
C152  C     C_3   0.017493 0.282591 0.599426 -0.397168
C153  C     C_3   0.026305 0.248933 0.641133 -0.846020
C154  C     C_3   0.717266 0.931870 0.667618 -0.379809
C155  C     C_3   0.750132 0.900879 0.684500 -0.798965
C156  C     C_3   0.717256 0.075003 0.678724 -0.380440
C157  C     C_1   0.499567 0.663346 0.499689 -0.062276
C158  C     C_3   0.750117 0.108092 0.700570 -0.800047
C159  C     C_3   0.217268 0.433228 0.665806 -0.379781
C160  C     C_3   0.250136 0.402679 0.681862 -0.798400
C161  C     C_3   0.217254 0.576009 0.680747 -0.380506
C162  C     C_3   0.250113 0.609383 0.703484 -0.800596
C163  C     C_3   0.781651 0.925323 0.820269 -0.375979
C164  C     C_3   0.747246 0.896766 0.803033 -0.844037
C165  C     C_3   0.781655 0.067817 0.831335 -0.375548
C166  C     C_3   0.747253 0.093382 0.818309 -0.838047
C167  C     C_3   0.281653 0.424309 0.818249 -0.375555
C168  C     C_1   0.999571 0.836653 0.499671 -0.062266
C169  C     C_3   0.247247 0.395301 0.800238 -0.843999
C170  C     C_3   0.281654 0.566454 0.833135 -0.376096
C171  C     C_3   0.247253 0.591435 0.820789 -0.837841
C172  C     C_1   0.999557 0.163347 0.499677 -0.061980
C173  C     C_3   0.763580 0.964189 0.780541 0.144089
C174  C     C_3   0.763579 0.032769 0.785864 0.142358
C175  C     C_3   0.263581 0.463744 0.779571 0.143834
C176  C     C_3   0.469450 0.263825 0.496917 0.149829
C177  C     C_3   0.263578 0.532156 0.786733 0.142623
C178  C     C_3   0.736270 0.967136 0.713276 0.121893
C179  C     C_3   0.736268 0.036039 0.718623 0.122536
C180  C     C_3   0.236270 0.467764 0.712400 0.121760
C181  C     C_3   0.236267 0.536498 0.719594 0.122678
C182  C     C_1   0.625794 0.000017 0.625654 -0.184038
C183  C     C_1   0.125794 0.500020 0.625653 -0.184017
C184  C     C_1   0.874197 0.000000 0.874238 -0.143406
C185  C     C_1   0.374197 0.500000 0.874237 -0.143383
C186  C     C_R   0.500008 0.081375 0.500014 0.905650
C187  C     C_3   0.468507 0.736166 0.494891 0.149526
C188  C     C_R   0.500008 0.918625 0.500016 0.905675
C189  C     C_R   0.000009 0.581375 0.500015 0.905660
C190  C     C_R   0.000007 0.418625 0.500015 0.905721
C191  C     C_3   0.735600 0.996933 0.775126 -0.221508
C192  C     C_3   0.235601 0.495869 0.775027 -0.221478
C193  C     C_3   0.708728 0.000064 0.708014 -0.016387
C194  C     C_3   0.208728 0.500081 0.708014 -0.016406
C195  C     C_3   0.791268 0.000004 0.791257 -0.044810
C196  C     C_3   0.291268 0.500003 0.791255 -0.044791
C197  C     C_3   0.764109 0.003114 0.724137 0.226082
C198  C     C_3   0.967856 0.763831 0.493419 0.149467
C199  C     C_3   0.264109 0.504185 0.724232 0.226082
C200  C     C_1   0.663268 0.000036 0.662919 -0.042210
C201  C     C_1   0.163268 0.500044 0.662918 -0.042197
C202  C     C_1   0.836728 0.000001 0.836746 -0.001990
C203  C     C_1   0.336728 0.500000 0.836744 -0.001962
C204  C     C_3   0.236076 0.033931 0.257266 0.232852
C205  C     C_3   0.236077 0.964761 0.254961 0.232764
C206  C     C_3   0.736076 0.535194 0.255037 0.232799
C207  C     C_3   0.736078 0.466018 0.257188 0.232811
C208  C     C_3   0.263838 0.035139 0.245218 0.070097
C209  C     C_3   0.968457 0.236167 0.494800 0.149629
C210  C     C_3   0.263838 0.966213 0.242919 0.069660
C211  C     C_3   0.763836 0.533837 0.242993 0.069720
C212  C     C_3   0.763839 0.464906 0.245136 0.070045
C213  C     C_1   0.374217 0.000001 0.374330 -0.187443
C214  C     C_1   0.874217 0.499999 0.374330 -0.187454
C215  C     C_1   0.125777 0.000003 0.125814 -0.112971
C216  C     C_1   0.625777 0.499995 0.125813 -0.112968
C217  C     C_R   0.418638 1.000000 0.418674 0.903637
C218  C     C_R   0.918638 0.500000 0.418674 0.903634
C219  C     C_3   0.263704 0.998681 0.303598 0.066925
C220  C     C_3   0.498879 0.291153 0.499101 0.020201
C221  C     C_3   0.763704 0.501223 0.303598 0.066926
C222  C     C_3   0.291244 0.000008 0.291406 -0.089534
C223  C     C_3   0.791244 0.499992 0.291404 -0.089528
C224  C     C_3   0.208660 0.000015 0.208699 -0.078402
C225  C     C_3   0.708660 0.499984 0.208696 -0.078401
C226  C     C_3   0.236206 0.001348 0.196363 0.234914
C227  C     C_3   0.736206 0.498747 0.196358 0.234924
C228  C     C_1   0.336752 0.000003 0.336917 -0.032990
C229  C     C_1   0.836752 0.499997 0.336915 -0.032992
C230  C     C_1   0.163247 0.000009 0.163270 0.137490
C231  C     C_3   0.498881 0.708846 0.499073 0.020112
C232  C     C_1   0.663247 0.499989 0.163268 0.137495
C233  C     C_R   0.499944 0.499999 0.581363 0.901065
C234  C     C_R   0.999944 0.000000 0.581363 0.901111
C235  C     C_R   0.499982 0.418611 0.500023 0.907403
C236  C     C_R   0.499982 0.581388 0.500023 0.906953
C237  C     C_R   0.999983 0.918612 0.500024 0.906814
C238  C     C_R   0.999981 0.081388 0.500022 0.907552
C239  C     C_R   0.500050 0.500000 0.418746 0.902138
C240  C     C_R   0.000050 0.000002 0.418746 0.902097
C241  C     C_R   0.000032 0.999999 0.081457 0.898681
C242  C     C_3   0.998885 0.791154 0.499036 0.020059
C243  C     C_R   0.500031 0.499999 0.081457 0.898687
C244  C     C_3   0.537070 0.263956 0.548977 -0.222077
C245  C     C_3   0.536633 0.736039 0.549857 -0.222327
C246  C     C_3   0.036293 0.763959 0.550432 -0.222355
C247  C     C_3   0.036599 0.236039 0.549867 -0.222018
C248  C     C_R   0.918625 0.000000 0.918680 0.908611
C249  C     C_R   0.418625 0.500000 0.918680 0.908593
C250  C     C_R   0.999922 0.000001 0.918623 0.905693
C251  C     C_R   0.499922 0.500001 0.918623 0.905667
C252  C     C_R   0.081353 0.000000 0.081413 0.897115
H1    H     H_    0.552166 0.223621 0.503130 0.159407
H2    H     H_    0.067389 0.223709 0.591316 0.160366
H3    H     H_    0.086047 0.966553 0.390129 0.205784
H4    H     H_    0.505446 0.227264 0.389754 0.255403
H5    H     H_    0.448922 0.231133 0.337824 0.261702
H6    H     H_    0.476657 0.264383 0.329432 0.264104
H7    H     H_    0.455371 0.303445 0.373585 0.213952
H8    H     H_    0.511025 0.302381 0.420908 0.215091
H9    H     H_    0.452885 0.768885 0.340064 0.262348
H10   H     H_    0.509533 0.772765 0.394124 0.255557
H11   H     H_    0.481889 0.735650 0.333940 0.262140
H12   H     H_    0.514218 0.697641 0.424553 0.213789
H13   H     H_    0.230588 0.089938 0.150479 0.291301
H14   H     H_    0.458306 0.696568 0.375000 0.213759
H15   H     H_    0.012471 0.727247 0.397325 0.255821
H16   H     H_    0.955776 0.731131 0.341777 0.262548
H17   H     H_    0.985665 0.764369 0.337288 0.261421
H18   H     H_    0.960447 0.803443 0.376095 0.213703
H19   H     H_    0.016501 0.802367 0.427213 0.213491
H20   H     H_    0.953004 0.268885 0.340123 0.261872
H21   H     H_    0.009656 0.272762 0.394253 0.255122
H22   H     H_    0.982047 0.235646 0.334074 0.264021
H23   H     H_    0.014306 0.197639 0.424657 0.214867
H24   H     H_    0.230255 0.116521 0.200179 0.289507
H25   H     H_    0.958387 0.196569 0.375030 0.214270
H26   H     H_    0.377042 0.267034 0.368235 0.263589
H27   H     H_    0.395028 0.267231 0.332404 0.265000
H28   H     H_    0.356262 0.229937 0.310508 0.255871
H29   H     H_    0.425076 0.194787 0.372783 0.211661
H30   H     H_    0.407816 0.194989 0.408771 0.206154
H31   H     H_    0.397326 0.732768 0.331048 0.264938
H32   H     H_    0.377447 0.732957 0.364316 0.263685
H33   H     H_    0.357982 0.770055 0.307192 0.256111
H34   H     H_    0.407845 0.805003 0.405562 0.206270
H35   H     H_    0.266632 0.132154 0.196403 0.233742
H36   H     H_    0.426975 0.805217 0.372087 0.211696
H37   H     H_    0.877830 0.767046 0.361577 0.263641
H38   H     H_    0.899054 0.767245 0.330177 0.265086
H39   H     H_    0.859331 0.729956 0.304932 0.256018
H40   H     H_    0.928405 0.694793 0.371662 0.211850
H41   H     H_    0.907944 0.694998 0.403303 0.206159
H42   H     H_    0.897383 0.232776 0.330979 0.265220
H43   H     H_    0.877439 0.232970 0.364156 0.263607
H44   H     H_    0.858026 0.270069 0.307059 0.255746
H45   H     H_    0.907834 0.305011 0.405435 0.206064
H46   H     H_    0.303331 0.090346 0.287415 0.214647
H47   H     H_    0.927028 0.305221 0.372047 0.211818
H48   H     H_    0.393025 0.232963 0.454178 0.264257
H49   H     H_    0.432478 0.232846 0.534362 0.261931
H50   H     H_    0.390207 0.270095 0.493640 0.256485
H51   H     H_    0.455062 0.305280 0.534544 0.209296
H52   H     H_    0.416485 0.305030 0.455455 0.209585
H53   H     H_    0.428928 0.767133 0.528379 0.261682
H54   H     H_    0.390938 0.767019 0.448291 0.264382
H55   H     H_    0.386633 0.729881 0.486140 0.256919
H56   H     H_    0.415173 0.694957 0.451179 0.209867
H57   H     H_    0.303536 0.063748 0.237786 0.219060
H58   H     H_    0.452294 0.694702 0.530150 0.209281
H59   H     H_    0.889528 0.732972 0.444074 0.264366
H60   H     H_    0.926432 0.732854 0.524032 0.261707
H61   H     H_    0.884148 0.770105 0.480727 0.256804
H62   H     H_    0.950337 0.805287 0.526946 0.209372
H63   H     H_    0.914294 0.805038 0.448121 0.209891
H64   H     H_    0.928786 0.267129 0.528152 0.261782
H65   H     H_    0.890854 0.267026 0.448068 0.264230
H66   H     H_    0.886487 0.229883 0.485845 0.256895
H67   H     H_    0.915108 0.194961 0.451004 0.209841
H68   H     H_    0.230221 0.885803 0.192439 0.289621
H69   H     H_    0.952176 0.194701 0.529969 0.209292
H70   H     H_    0.554824 0.272917 0.656543 0.258599
H71   H     H_    0.501920 0.268982 0.624076 0.262323
H72   H     H_    0.542618 0.235839 0.685309 0.257565
H73   H     H_    0.495121 0.196637 0.588137 0.207354
H74   H     H_    0.548889 0.197717 0.625273 0.212915
H75   H     H_    0.497599 0.730990 0.619767 0.261924
H76   H     H_    0.551187 0.727044 0.654794 0.258857
H77   H     H_    0.537554 0.764116 0.681683 0.257452
H78   H     H_    0.546164 0.802256 0.624256 0.213105
H79   H     H_    0.230584 0.915660 0.144648 0.290952
H80   H     H_    0.491843 0.803339 0.584655 0.207156
H81   H     H_    0.048551 0.772941 0.653414 0.258837
H82   H     H_    0.994509 0.768999 0.616566 0.261970
H83   H     H_    0.033890 0.735866 0.678916 0.257516
H84   H     H_    0.989497 0.696652 0.582062 0.207134
H85   H     H_    0.044173 0.697733 0.623401 0.213150
H86   H     H_    0.997432 0.230987 0.619593 0.261949
H87   H     H_    0.051046 0.227047 0.654716 0.258835
H88   H     H_    0.037354 0.264117 0.681530 0.257577
H89   H     H_    0.046050 0.302257 0.624198 0.213201
H90   H     H_    0.266605 0.872860 0.187732 0.234028
H91   H     H_    0.991710 0.303338 0.584511 0.207230
H92   H     H_    0.776507 0.917459 0.695345 0.296330
H93   H     H_    0.762493 0.881543 0.722966 0.249358
H94   H     H_    0.735425 0.879398 0.646632 0.248274
H95   H     H_    0.693437 0.914692 0.662555 0.200832
H96   H     H_    0.701029 0.946257 0.624092 0.226786
H97   H     H_    0.762486 0.123153 0.741715 0.249869
H98   H     H_    0.776486 0.094111 0.709027 0.295735
H99   H     H_    0.735402 0.132900 0.666298 0.247961
H100  H     H_    0.701016 0.065009 0.633304 0.226326
H101  H     H_    0.303533 0.940804 0.233685 0.219202
H102  H     H_    0.693429 0.089075 0.676093 0.200859
H103  H     H_    0.276511 0.419671 0.693160 0.296355
H104  H     H_    0.262497 0.382647 0.719799 0.249338
H105  H     H_    0.235430 0.381829 0.643426 0.248436
H106  H     H_    0.193439 0.415551 0.660274 0.200913
H107  H     H_    0.201031 0.448344 0.622676 0.226875
H108  H     H_    0.262483 0.623664 0.745024 0.249908
H109  H     H_    0.276481 0.595889 0.711569 0.295720
H110  H     H_    0.235396 0.634709 0.669885 0.247776
H111  H     H_    0.201013 0.566803 0.635070 0.226182
H112  H     H_    0.553871 0.776389 0.506727 0.158866
H113  H     H_    0.303312 0.910933 0.281415 0.214663
H114  H     H_    0.193426 0.589506 0.678487 0.200848
H115  H     H_    0.727647 0.913913 0.806617 0.259997
H116  H     H_    0.726948 0.885050 0.757042 0.258778
H117  H     H_    0.761776 0.869360 0.833453 0.256408
H118  H     H_    0.801710 0.907706 0.817953 0.212798
H119  H     H_    0.801811 0.935720 0.866897 0.216112
H120  H     H_    0.726951 0.108931 0.774433 0.257946
H121  H     H_    0.727658 0.072859 0.818976 0.259998
H122  H     H_    0.761787 0.118000 0.852768 0.258194
H123  H     H_    0.801817 0.053448 0.876040 0.218132
H124  H     H_    0.730579 0.584546 0.144837 0.291221
H125  H     H_    0.801711 0.088679 0.832002 0.213020
H126  H     H_    0.227648 0.411819 0.804274 0.259943
H127  H     H_    0.226949 0.384281 0.753942 0.258746
H128  H     H_    0.261778 0.367478 0.829916 0.256553
H129  H     H_    0.301711 0.407300 0.815467 0.212900
H130  H     H_    0.301812 0.433991 0.865146 0.216396
H131  H     H_    0.226950 0.607613 0.777339 0.258006
H132  H     H_    0.227658 0.570375 0.820898 0.260064
H133  H     H_    0.261786 0.615508 0.855902 0.258059
H134  H     H_    0.301817 0.551430 0.877446 0.217932
H135  H     H_    0.730220 0.614290 0.192699 0.289542
H136  H     H_    0.301710 0.587830 0.834369 0.212886
H137  H     H_    0.766601 0.627328 0.188016 0.234012
H138  H     H_    0.803310 0.589118 0.281614 0.214649
H139  H     H_    0.803530 0.559363 0.233815 0.219249
H140  H     H_    0.730254 0.383557 0.199902 0.289608
H141  H     H_    0.730596 0.410256 0.150272 0.291018
H142  H     H_    0.766637 0.368015 0.196103 0.233734
H143  H     H_    0.803541 0.436410 0.237644 0.218977
H144  H     H_    0.055061 0.723613 0.509289 0.159045
H145  H     H_    0.803332 0.409691 0.287208 0.214663
H146  H     H_    0.229884 0.024451 0.347761 0.287942
H147  H     H_    0.229849 0.967808 0.345821 0.288173
H148  H     H_    0.265902 0.995002 0.415583 0.234983
H149  H     H_    0.303039 0.968840 0.389529 0.217067
H150  H     H_    0.303055 0.025326 0.391424 0.217293
H151  H     H_    0.729850 0.531918 0.345895 0.288112
H152  H     H_    0.729881 0.475270 0.347696 0.288006
H153  H     H_    0.765900 0.504637 0.415591 0.234973
H154  H     H_    0.803054 0.474461 0.391363 0.217325
H155  H     H_    0.053913 0.276389 0.506834 0.159020
H156  H     H_    0.803039 0.530951 0.389597 0.217037
H157  H     H_    0.420308 0.590598 0.689957 0.291321
H158  H     H_    0.470567 0.616752 0.740463 0.288619
H159  H     H_    0.430534 0.632742 0.664137 0.233643
H160  H     H_    0.484474 0.590491 0.681253 0.214974
H161  H     H_    0.434416 0.564310 0.631085 0.219260
H162  H     H_    0.460870 0.386157 0.730825 0.288619
H163  H     H_    0.412976 0.416428 0.682643 0.290743
H164  H     H_    0.419654 0.373557 0.653308 0.233902
H165  H     H_    0.429258 0.441415 0.625943 0.219429
H166  H     H_    0.722957 0.994416 0.794863 0.163215
H167  H     H_    0.476943 0.411121 0.673760 0.214758
H168  H     H_    0.918292 0.088786 0.687947 0.291336
H169  H     H_    0.967951 0.116063 0.737857 0.288556
H170  H     H_    0.927569 0.131152 0.661183 0.233761
H171  H     H_    0.982444 0.090127 0.679230 0.214939
H172  H     H_    0.932987 0.062827 0.629661 0.219369
H173  H     H_    0.963442 0.885306 0.733388 0.288665
H174  H     H_    0.914880 0.914494 0.684548 0.290743
H175  H     H_    0.922515 0.871788 0.656164 0.233816
H176  H     H_    0.930592 0.939846 0.627276 0.219332
H177  H     H_    0.222957 0.492483 0.794685 0.163229
H178  H     H_    0.978946 0.910632 0.675757 0.214867
H179  H     H_    0.617738 0.523436 0.887678 0.291419
H180  H     H_    0.615342 0.466812 0.885329 0.291022
H181  H     H_    0.649274 0.493711 0.883141 0.236479
H182  H     H_    0.585846 0.468097 0.782699 0.219401
H183  H     H_    0.588214 0.524564 0.785044 0.219709
H184  H     H_    0.117176 0.026070 0.887130 0.291683
H185  H     H_    0.116066 0.969407 0.886039 0.290751
H186  H     H_    0.149379 0.997085 0.883245 0.236481
H187  H     H_    0.086541 0.970049 0.783388 0.219440
H188  H     H_    0.568230 0.276284 0.589664 0.160330
H189  H     H_    0.087641 0.026554 0.784477 0.219684
H190  H     H_    0.081688 0.905424 0.345839 0.251860
H191  H     H_    0.029165 0.886692 0.303453 0.288552
H192  H     H_    0.060713 0.862823 0.294675 0.250700
H193  H     H_    0.009895 0.908003 0.209160 0.230823
H194  H     H_    0.060813 0.931423 0.254786 0.203069
H195  H     H_    0.043129 0.108814 0.317348 0.288447
H196  H     H_    0.092892 0.083641 0.356980 0.251715
H197  H     H_    0.077411 0.128522 0.311284 0.251414
H198  H     H_    0.068913 0.060435 0.262844 0.203346
H199  H     H_    0.567436 0.723708 0.591281 0.160276
H200  H     H_    0.021329 0.090055 0.220543 0.231394
H201  H     H_    0.590934 0.414251 0.355042 0.251750
H202  H     H_    0.540605 0.390235 0.314846 0.288447
H203  H     H_    0.574426 0.369735 0.308328 0.251428
H204  H     H_    0.519245 0.409484 0.218478 0.231344
H205  H     H_    0.567499 0.437997 0.261443 0.203393
H206  H     H_    0.531771 0.612616 0.306029 0.288579
H207  H     H_    0.583847 0.592675 0.347967 0.251817
H208  H     H_    0.563857 0.635746 0.297779 0.250724
H209  H     H_    0.562372 0.567156 0.256325 0.203049
H210  H     H_    0.066816 0.776287 0.592355 0.160335
H211  H     H_    0.512008 0.591748 0.211250 0.230885
H212  H     H_    0.619251 0.476413 0.350128 0.263885
H213  H     H_    0.617008 0.532958 0.347889 0.263699
H214  H     H_    0.650540 0.505969 0.417821 0.250186
H215  H     H_    0.586793 0.531470 0.390863 0.205835
H216  H     H_    0.589014 0.475491 0.393083 0.206161
H217  H     H_    0.116224 0.964355 0.347120 0.263781
H218  H     H_    0.119765 0.020833 0.350637 0.263790
H219  H     H_    0.150365 0.990574 0.417654 0.250193
H220  H     H_    0.089557 0.022465 0.393622 0.206186
O1    O     O_R   0.561630 0.000000 0.596420 -0.615085
O2    O     O_R   0.965230 1.000000 0.403640 -0.594864
O3    O     O_R   0.000030 0.965220 0.061700 -0.615922
O4    O     O_R   0.000030 0.034780 0.061700 -0.614127
O5    O     O_R   0.500030 0.465220 0.061700 -0.614331
O6    O     O_R   0.500030 0.534780 0.061700 -0.615723
O7    O     O_R   0.938380 0.965210 0.938430 -0.616127
O8    O     O_R   0.938380 0.034790 0.938430 -0.613751
O9    O     O_R   0.438380 0.465210 0.938430 -0.615977
O10   O     O_R   0.438380 0.534790 0.938430 -0.613853
O11   O     O_R   0.999950 0.965200 0.938400 -0.605333
O12   O     O_R   0.061630 0.500000 0.596420 -0.615054
O13   O     O_R   0.999950 0.034800 0.938400 -0.604599
O14   O     O_R   0.499950 0.465200 0.938400 -0.605322
O15   O     O_R   0.499950 0.534800 0.938400 -0.604605
O16   O     O_R   0.061600 0.965210 0.061670 -0.605790
O17   O     O_R   0.061600 0.034790 0.061670 -0.605783
O18   O     O_R   0.561600 0.465210 0.061670 -0.605818
O19   O     O_R   0.561600 0.534790 0.061670 -0.605765
O20   O     O_R   0.561580 1.000000 0.526800 -0.616047
O21   O     O_R   0.061580 0.500000 0.526800 -0.616068
O22   O     O_R   0.500020 0.061610 0.534810 -0.617922
O23   O     O_R   0.465210 0.438380 0.465220 -0.614420
O24   O     O_R   0.500020 0.938390 0.534810 -0.617837
O25   O     O_R   0.000020 0.561610 0.534810 -0.617914
O26   O     O_R   0.000020 0.438390 0.534810 -0.617777
O27   O     O_R   0.499970 0.061600 0.465200 -0.615089
O28   O     O_R   0.499970 0.938400 0.465200 -0.615459
O29   O     O_R   0.999970 0.561600 0.465200 -0.615294
O30   O     O_R   0.999970 0.438400 0.465200 -0.615383
O31   O     O_R   0.438410 1.000000 0.473200 -0.617190
O32   O     O_R   0.938410 0.500000 0.473200 -0.617191
O33   O     O_R   0.438360 1.000000 0.403580 -0.615512
O34   O     O_R   0.465210 0.561620 0.465220 -0.614303
O35   O     O_R   0.938360 0.500000 0.403580 -0.615537
O36   O     O_R   0.534760 0.500000 0.596460 -0.616781
O37   O     O_R   0.034760 0.000000 0.596460 -0.616766
O38   O     O_R   0.465190 0.500000 0.526830 -0.617238
O39   O     O_R   0.965190 1.000000 0.526830 -0.617236
O40   O     O_R   0.534770 0.438380 0.534860 -0.616659
O41   O     O_R   0.534770 0.561620 0.534860 -0.616885
O42   O     O_R   0.034770 0.938380 0.534860 -0.616938
O43   O     O_R   0.034770 0.061620 0.534860 -0.616618
O44   O     O_R   0.965210 0.938380 0.465220 -0.614375
O45   O     O_R   0.965210 0.061620 0.465220 -0.614360
O46   O     O_R   0.534790 0.500000 0.473270 -0.626645
O47   O     O_R   0.034790 1.000000 0.473270 -0.626648
O48   O     O_R   0.465230 0.500000 0.403640 -0.594863
Zn1   Zn    Zn3+2 0.500030 0.000000 0.546480 0.971507
Zn2   Zn    Zn3+2 0.999990 0.046460 0.000050 1.021128
Zn3   Zn    Zn3+2 0.499990 0.453540 0.000050 1.019301
Zn4   Zn    Zn3+2 0.499990 0.546460 0.000050 1.019984
Zn5   Zn    Zn3+2 0.000030 0.500000 0.546480 0.971561
Zn6   Zn    Zn3+2 0.499960 1.000000 0.453520 0.976830
Zn7   Zn    Zn3+2 0.999960 0.500000 0.453520 0.976713
Zn8   Zn    Zn3+2 0.546440 0.500000 0.546540 0.972517
Zn9   Zn    Zn3+2 0.046440 0.000000 0.546540 0.972540
Zn10  Zn    Zn3+2 0.453540 0.500000 0.453560 0.999367
Zn11  Zn    Zn3+2 0.953540 0.000000 0.453560 0.999360
Zn12  Zn    Zn3+2 0.999990 0.953540 0.000050 1.018107

loop_
_geom_bond_atom_site_label_1
_geom_bond_atom_site_label_2
_ccdc_geom_bond_type
C53   C60   S    
C137  C138  S    
C136  H42   S    
C155  H94   S    
C196  C199  S    
O20   Zn6   S    
C94   C95   S    
C164  H116  S    
O18   Zn3   S    
C140  H53   S    
C46   C77   S    
C83   H139  S    
C92   H160  S    
C220  C244  S    
C52   C59   S    
C86   H140  S    
C23   C244  S    
C85   H145  S    
C58   C135  T    
C118  H218  S    
C153  H86   S    
C38   C40   S    
C129  H26   S    
Br3   C28   S    
C75   C113  S    
C149  H76   S    
C108  H197  S    
C213  C217  S    
C16   C33   T    
C72   C150  S    
C36   C52   S    
C12   C233  S    
C82   H90   S    
C86   H141  S    
C159  H107  S    
C106  H191  S    
C18   C103  S    
C188  O28   A    
C147  H71   S    
C235  O40   A    
C51   C62   S    
C81   H101  S    
C41   C51   S    
C25   C245  S    
C97   H169  S    
C152  H89   S    
C108  H196  S    
C4    C21   S    
C145  H74   S    
C106  H190  S    
C204  C208  S    
C133  H37   S    
C35   C198  S    
C184  C248  S    
C110  H203  S    
C98   H178  S    
C34   C105  S    
C161  C181  S    
C141  H62   S    
C131  H33   S    
C111  H211  S    
C171  H132  S    
C181  C199  S    
C5    C21   S    
C238  O43   A    
Br10  C60   S    
C91   H152  S    
C185  C203  T    
C24   C130  S    
Br15  C207  S    
C93   H158  S    
C163  C164  S    
C76   C124  S    
O2    Zn11  S    
C42   C59   S    
C38   C111  S    
C248  O7    A    
C46   C90   S    
C175  C196  S    
C163  H119  S    
C56   C124  T    
C239  O48   A    
C153  H88   S    
C225  C232  S    
C99   H175  S    
C140  H55   S    
C11   C28   S    
C136  H44   S    
C70   C145  S    
C205  C219  S    
O27   Zn6   S    
C36   C42   S    
C107  H200  S    
C156  C179  S    
C206  C225  S    
C126  C127  S    
C79   C123  S    
C112  C183  S    
C211  C227  S    
C205  C210  S    
C158  H98   S    
C39   C60   S    
C47   C243  S    
C119  C120  S    
C139  C187  S    
C34   C41   S    
C129  H28   S    
C161  H111  S    
Br4   C29   S    
C95   H164  S    
O26   Zn5   S    
C144  H65   S    
C115  H215  S    
C122  H10   S    
C170  H136  S    
C3    O18   A    
O19   Zn4   S    
O38   Zn10  S    
C88   H147  S    
C181  C194  S    
C37   C39   S    
C54   C101  T    
C26   C76   S    
C165  H123  S    
C17   C19   S    
C152  H91   S    
O29   Zn7   S    
C132  H41   S    
C71   C245  S    
C116  H214  S    
C151  H81   S    
C170  C177  S    
Br8   C42   S    
C5    C11   S    
C110  H201  S    
C73   C152  S    
O8    Zn2   S    
C170  C171  S    
C7    C9    S    
C212  C223  S    
C111  H209  S    
O10   Zn4   S    
C13   C74   S    
C67   C237  S    
C103  C104  S    
C121  H12   S    
O41   Zn8   S    
C9    C29   S    
C205  C224  S    
C143  H69   S    
C14   C31   T    
C251  O15   A    
O12   Zn5   S    
Br18  C4    S    
C10   C28   S    
C89   C91   S    
C22   C33   S    
C138  H49   S    
C208  C226  S    
C159  C180  S    
C66   C236  S    
C160  H103  S    
C72   C76   S    
C23   C74   S    
C89   H154  S    
Br9   C59   S    
C182  C200  T    
C125  H16   S    
C154  C155  S    
C166  H120  S    
C239  O46   A    
C128  H30   S    
C99   H173  S    
C13   C176  S    
C57   C220  S    
C180  C194  S    
C87   C88   S    
C107  H198  S    
C189  O25   A    
C81   C210  S    
C138  H48   S    
C70   C244  S    
C231  C245  S    
C192  H177  S    
C218  O32   A    
C249  O10   A    
C145  C147  S    
C162  H110  S    
C85   H143  S    
C216  C232  T    
C166  H121  S    
C173  C195  S    
C238  O45   A    
C83   C211  S    
C95   H162  S    
C85   C212  S    
C114  H207  S    
C102  H180  S    
O17   Zn2   S    
C217  O33   A    
C170  H134  S    
C248  O8    A    
C137  H51   S    
C24   C187  S    
C222  C228  S    
C92   H161  S    
C11   C98   S    
C188  O24   A    
C43   C239  S    
C5    C18   S    
C8    C29   S    
C165  H125  S    
C156  H100  S    
C12   C30   T    
C243  O5    A    
O28   Zn6   S    
C154  H95   S    
C189  O29   A    
C96   H172  S    
C112  O21   A    
C177  C196  S    
C84   H135  S    
O14   Zn3   S    
C131  H31   S    
C37   C48   S    
C25   C75   S    
C167  H130  S    
C73   C77   S    
C169  H126  S    
C83   C84   S    
C6    C22   S    
C109  C110  S    
C123  H19   S    
C143  H67   S    
C40   C60   S    
C139  H58   S    
C140  H54   S    
C161  H114  S    
C155  H93   S    
C48   C115  S    
C45   C241  S    
C69   C238  S    
C35   C76   S    
C210  C226  S    
C71   C187  S    
C134  H47   S    
C127  H22   S    
C150  H84   S    
C20   C31   S    
C160  H105  S    
C27   C77   S    
C89   H156  S    
C14   C234  S    
C164  H117  S    
C186  O22   A    
C87   H150  S    
C72   C246  S    
C175  C192  S    
C58   C190  S    
O45   Zn11  S    
C7    C22   S    
C13   C57   S    
C118  H219  S    
C41   C59   S    
C149  H75   S    
C69   C172  T    
C224  C226  S    
C42   C51   S    
C105  H193  S    
C71   C75   S    
C150  H85   S    
C133  H39   S    
C70   C176  S    
C132  C133  S    
O31   Zn1   S    
C3    O19   A    
C36   C49   S    
C35   C79   S    
C246  H210  S    
C162  H108  S    
C130  C131  S    
C151  H83   S    
C215  C230  T    
C90   C126  S    
C88   H146  S    
C148  H78   S    
C26   C79   S    
C81   C82   S    
C223  C229  S    
C241  O4    A    
C68   C121  S    
C179  C197  S    
C145  H73   S    
C165  C174  S    
C80   H24   S    
C111  C114  S    
O1    Zn1   S    
C142  H59   S    
C141  C142  S    
C252  O16   A    
C115  C116  S    
C250  O13   A    
C10   C96   S    
C161  C162  S    
C8    C92   S    
C46   C209  S    
O22   Zn1   S    
C171  H131  S    
Br14  C206  S    
C144  H64   S    
C120  H5    S    
C91   H151  S    
Br17  C227  S    
C73   C209  S    
C173  C178  S    
O44   Zn11  S    
C11   C20   S    
C93   H157  S    
C155  H92   S    
C214  C218  S    
Br7   C41   S    
C80   H35   S    
C2    C247  S    
C134  H45   S    
C191  H166  S    
C142  H60   S    
C2    C90   S    
C44   C62   T    
C234  O39   A    
Br2   C7    S    
C241  O3    A    
C186  O27   A    
Br11  C197  S    
C169  H128  S    
C134  C136  S    
O24   Zn1   S    
C142  H61   S    
C179  C193  S    
C141  C198  S    
O48   Zn10  S    
C119  H7    S    
C214  C229  T    
C193  C200  S    
C70   C74   S    
C127  H20   S    
C102  H181  S    
C218  O35   A    
C65   C235  S    
C119  H8    S    
C244  H188  S    
C25   C68   S    
C237  O44   A    
C158  H99   S    
C46   C134  S    
C118  H217  S    
C153  H87   S    
C8    C19   S    
C143  C209  S    
C215  C252  S    
O43   Zn9   S    
O42   Zn9   S    
C87   C219  S    
O11   Zn12  S    
C66   C157  T    
C95   H163  S    
C144  H66   S    
C117  H220  S    
C190  O26   A    
C207  C221  S    
C194  C201  S    
C120  H6    S    
C122  H11   S    
C207  C225  S    
C55   C188  S    
C123  H18   S    
C149  H77   S    
C139  C140  S    
C89   C221  S    
C26   C246  S    
C72   C198  S    
C88   H148  S    
O6    Zn4   S    
C125  H17   S    
C147  H72   S    
C148  H80   S    
C68   C231  S    
C38   C48   S    
C192  C194  S    
C78   C80   S    
O13   Zn2   S    
C225  C227  S    
C108  H195  S    
C105  C106  S    
C178  C197  S    
O15   Zn4   S    
C15   C250  S    
C107  C108  S    
C137  H52   S    
C195  C202  S    
C174  C195  S    
C100  H183  S    
C133  H38   S    
C103  H189  S    
C250  O11   A    
C110  H202  S    
C141  H63   S    
C184  C202  T    
C1    C182  S    
C57   C119  S    
Br20  C6    S    
C104  H186  S    
C126  H23   S    
C55   C113  T    
C6    C17   S    
C23   H1    S    
C85   C86   S    
C78   H46   S    
C93   H159  S    
O16   Zn12  S    
C116  H212  S    
C196  C203  S    
O33   Zn6   S    
C190  O30   A    
C177  C192  S    
C129  H27   S    
C18   C20   S    
C210  C222  S    
C165  C166  S    
C138  H50   S    
C34   C49   S    
O3    Zn12  S    
C160  H104  S    
C163  C173  S    
C234  O37   A    
C117  H3    S    
C96   C97   S    
C146  C220  S    
C77   C135  S    
C125  H15   S    
C235  O23   A    
C52   C63   S    
C39   C50   S    
C159  C160  S    
O40   Zn8   S    
C74   C101  S    
C236  O41   A    
C237  O42   A    
C150  C151  S    
C136  H43   S    
C15   C32   T    
C180  C199  S    
C240  O2    A    
O32   Zn5   S    
C178  C193  S    
C84   H124  S    
C56   C189  S    
C249  O9    A    
C9    C94   S    
C247  H2    S    
O9    Zn3   S    
C137  C176  S    
C83   H138  S    
C143  C144  S    
C158  H97   S    
C26   H144  S    
C166  H122  S    
C35   C132  S    
C245  H199  S    
C224  C230  S    
C43   C61   T    
Br1   C204  S    
C65   C146  T    
C37   C109  S    
C13   C128  S    
O47   Zn9   S    
C82   H79   S    
C114  H208  S    
C115  H216  S    
C195  C197  S    
C122  H9    S    
C45   C63   T    
O34   Zn10  S    
C37   C53   S    
C206  C211  S    
C157  C231  S    
C168  C242  S    
C1    O1    A    
C132  H40   S    
C183  C201  T    
C252  O17   A    
C36   C107  S    
C49   C51   S    
C159  H106  S    
C98   C99   S    
C147  H70   S    
C174  C191  S    
C21   C28   S    
O23   Zn10  S    
O25   Zn5   S    
C4    C18   S    
C177  C181  S    
C154  H96   S    
C94   H165  S    
C116  H213  S    
C102  H179  S    
C53   C64   S    
C151  H82   S    
C130  H34   S    
C104  H185  S    
C217  O31   A    
C25   H112  S    
C207  C212  S    
C47   C64   T    
C1    O20   A    
C167  H129  S    
O35   Zn7   S    
C92   C93   S    
C204  C219  S    
C100  C102  S    
C78   C208  S    
C49   C117  S    
C185  C249  S    
C154  C178  S    
Br5   C39   S    
Br6   C40   S    
C71   C148  S    
C128  C129  S    
C79   C242  S    
C204  C224  S    
C206  C221  S    
C127  H21   S    
O7    Zn12  S    
C80   H13   S    
O5    Zn3   S    
C221  C223  S    
C81   H113  S    
C73   C247  S    
C211  C223  S    
C87   H149  S    
C163  H118  S    
C27   H155  S    
C128  H29   S    
C99   H174  S    
C40   C50   S    
C105  H194  S    
C9    C19   S    
C97   H168  S    
C10   C20   S    
O37   Zn9   S    
Br13  C199  S    
C82   H68   S    
O30   Zn7   S    
O39   Zn11  S    
C3    C216  S    
C109  H205  S    
C191  C193  S    
C109  H204  S    
C233  O38   A    
C198  C242  S    
C162  H109  S    
C130  H36   S    
C164  H115  S    
C233  O36   A    
C2    C172  S    
C240  O47   A    
C121  H14   S    
C152  C153  S    
O21   Zn7   S    
C175  C180  S    
C54   C186  S    
C126  H25   S    
O46   Zn8   S    
C123  C125  S    
C104  H184  S    
C148  C149  S    
C156  H102  S    
C21   C32   S    
C167  C175  S    
C98   H176  S    
C208  C222  S    
C112  O12   A    
C106  H192  S    
C114  H206  S    
C242  C246  S    
C100  H182  S    
C213  C228  T    
C67   C168  T    
C251  O14   A    
C103  H187  S    
C84   H137  S    
C23   C57   S    
C27   C90   S    
C117  C118  S    
O4    Zn2   S    
C78   H57   S    
C6    C8    S    
C97   H170  S    
C212  C227  S    
C120  H4    S    
C24   C75   S    
C86   H142  S    
C121  C122  S    
O36   Zn8   S    
C27   C247  S    
Br12  C205  S    
C17   C100  S    
C187  C231  S    
C7    C17   S    
C243  O6    A    
C156  C158  S    
C139  H56   S    
C16   C251  S    
C219  C222  S    
Br19  C5    S    
C96   H171  S    
C4    C10   S    
Br16  C226  S    
C167  C169  S    
C173  C191  S    
C2    C209  S    
C22   C29   S    
C174  C179  S    
C44   C240  S    
C19   C30   S    
C34   C52   S    
C176  C220  S    
C48   C50   S    
C171  H133  S    
C131  H32   S    
C50   C61   S    
C24   C68   S    
C236  O34   A    
C169  H127  S    
C94   H167  S    
C38   C53   S    
C91   H153  S    
