data_mof_unit_13202.cif
_audit_creation_date              2013-03-05T15:54:22-0500
_audit_creation_method            fapswitch 2.2
_symmetry_space_group_name_H-M    P1
_symmetry_Int_Tables_number       1
_space_group_crystal_system       triclinic
_cell_length_a                    15.155311
_cell_length_b                    15.037889
_cell_length_c                    14.894693
_cell_angle_alpha                 109.620472
_cell_angle_beta                  109.172933
_cell_angle_gamma                 109.921873
_cell_volume                      2603.27555213

loop_
_atom_site_label
_atom_site_type_symbol
_atom_site_description
_atom_site_fract_x
_atom_site_fract_y
_atom_site_fract_z
_atom_type_partial_charge
C1    C     C_R   0.944176 0.759001 0.035449 -0.072319
H1    H     H_    0.895871 0.773828 0.070261 0.105809
N1    N     N_R   0.995640 0.706130 0.053910 -0.040995
C2    C     C_R   0.795701 0.196398 0.701938 -0.110408
H2    H     H_    0.831046 0.168248 0.655058 0.181539
N2    N     N_R   0.848310 0.293860 0.791110 -0.056169
C3    C     C_R   0.097328 0.589726 0.792506 -0.219043
H3    H     H_    0.165068 0.669981 0.829160 0.183623
N3    N     N_R   0.054010 0.556790 0.847890 -0.064130
C4    C     C_R   0.684704 0.407204 0.946159 0.359436
N4    N     N_R   0.789940 0.443190 0.997130 -0.088212
C5    C     C_R   0.000954 0.409049 0.697417 0.378736
N5    N     N_R   0.997630 0.443170 0.791110 -0.096035
C6    C     C_R   0.775399 0.590013 0.047565 -0.177591
H4    H     H_    0.795895 0.670745 0.103304 0.121424
N6    N     N_R   0.846320 0.556810 0.053910 -0.054987
C7    C     C_R   0.705580 0.192236 0.792166 0.011724
H5    H     H_    0.659985 0.158824 0.826534 0.156543
N7    N     N_R   0.791080 0.293860 0.847890 -0.065644
C8    C     C_R   0.042778 0.767706 0.951420 -0.008678
N8    N     N_R   0.052880 0.706130 0.997130 -0.039740
C9    C     C_R   0.967374 0.794421 0.967457 -0.059007
C10   C     C_R   0.705483 0.131053 0.699409 -0.003476
C11   C     C_R   0.066228 0.499871 0.697421 -0.079368
C12   C     C_R   0.672734 0.498725 0.972882 -0.165265
C13   C     C_R   0.061373 0.591479 0.314603 -0.110556
H6    H     H_    0.113895 0.674593 0.378086 0.120073
N9    N     N_R   0.002370 0.556830 0.208890 -0.038911
C14   C     C_R   0.211227 0.409131 0.909893 -0.088153
H7    H     H_    0.186122 0.324139 0.861594 0.130967
N10   N     N_R   0.153680 0.443190 0.946090 -0.045352
C15   C     C_R   0.313646 0.757201 0.221503 -0.012465
H8    H     H_    0.374213 0.760002 0.198166 0.086726
N11   N     N_R   0.208920 0.706140 0.152110 -0.045649
C16   C     C_R   0.905362 0.197907 0.996364 -0.175501
H9    H     H_    0.842524 0.169818 0.016276 0.121797
N12   N     N_R   0.947120 0.293870 0.002870 -0.050164
C17   C     C_R   0.998239 0.196505 0.907106 -0.111705
H10   H     H_    0.023654 0.167575 0.848914 0.117686
N13   N     N_R   0.004360 0.293870 0.946090 -0.046038
C18   C     C_R   0.226284 0.779238 0.315301 -0.045418
N14   N     N_R   0.151690 0.706140 0.208890 -0.045961
C19   C     C_R   0.971388 0.408928 0.224143 -0.088346
H11   H     H_    0.940357 0.324416 0.203538 0.104968
N15   N     N_R   0.945990 0.443210 0.152110 -0.048842
C20   C     C_R   0.299536 0.592053 0.997554 -0.164412
H12   H     H_    0.352811 0.676449 0.024821 0.126272
N16   N     N_R   0.210060 0.556810 0.002870 -0.045674
Ni1   Ni    Ni4+2 0.999010 0.630300 0.130220 0.277855
Ni2   Ni    Ni4+2 0.000990 0.369700 0.869780 0.250978
Ni3   Ni    Ni4+2 0.130280 0.630280 0.000000 0.274042
Ni4   Ni    Ni4+2 0.869720 0.369720 0.000000 0.246995
C21   C     C_R   0.045603 0.501871 0.327366 0.034413
C22   C     C_R   0.302378 0.501410 0.940034 -0.013062
C23   C     C_R   0.327621 0.802011 0.325620 -0.045039
C24   C     C_R   0.935820 0.135179 0.937521 0.064803
C25   C     C_3   0.472072 0.404486 0.845986 -0.346266
H13   H     H_    0.450732 0.326279 0.845103 0.229316
H14   H     H_    0.486661 0.399887 0.776493 0.181567
C26   C     C_3   0.372560 0.416179 0.830555 -0.437783
H15   H     H_    0.351207 0.441511 0.768095 0.179568
H16   H     H_    0.302380 0.334985 0.797810 0.176529
H17   H     H_    0.558827 0.418699 0.055792 0.198071
H18   H     H_    0.392089 0.395240 0.012819 0.174341
C27   C     C_3   0.556807 0.491014 0.052874 -0.389218
C28   C     C_3   0.582153 0.609779 0.966076 -0.374738
C29   C     C_3   0.573176 0.500654 0.958867 0.368093
H19   H     H_    0.655525 0.683782 0.040898 0.148715
H20   H     H_    0.585424 0.613412 0.893744 0.166337
C30   C     C_3   0.399350 0.503441 0.942570 0.383413
C31   C     C_3   0.448058 0.479800 0.035304 -0.405013
C32   C     C_3   0.484256 0.616003 0.969082 -0.409412
H21   H     H_    0.448711 0.639296 0.908874 0.163163
H22   H     H_    0.512434 0.680929 0.052837 0.159858
H23   H     H_    0.623001 0.565103 0.133659 0.169800
H24   H     H_    0.459480 0.537561 0.114124 0.164056
C33   C     C_R   0.624299 0.977676 0.513407 0.065711
C34   C     C_R   0.628120 0.017343 0.615028 0.092414
C35   C     C_R   0.540053 0.955161 0.622482 -0.144798
H25   H     H_    0.542528 0.977201 0.700622 0.133978
C36   C     C_R   0.441140 0.874870 0.526100 -0.194786
H26   H     H_    0.370909 0.834059 0.532115 0.104951
C37   C     C_R   0.431735 0.859184 0.424262 0.105078
C38   C     C_R   0.526450 0.900660 0.419125 -0.022403
C39   C     C_3   0.554804 0.950262 0.353261 0.175694
C40   C     C_3   0.662784 0.035076 0.456708 -0.508703
H27   H     H_    0.561384 0.896489 0.286244 0.062693
H28   H     H_    0.731397 0.028182 0.450075 0.207858
H29   H     H_    0.675827 0.119417 0.488694 0.248359
C41   C     C_R   0.145476 0.607579 0.531334 0.121374
C42   C     C_R   0.095759 0.508761 0.433200 0.042910
C43   C     C_R   0.082565 0.414651 0.440254 -0.193740
H30   H     H_    0.054220 0.338677 0.368762 0.139453
C44   C     C_R   0.090983 0.414449 0.536722 -0.136685
H31   H     H_    0.072784 0.339043 0.537482 0.194787
C45   C     C_R   0.108444 0.507075 0.623095 0.039242
C46   C     C_R   0.151845 0.606598 0.625188 0.163155
C47   C     C_3   0.131777 0.700080 0.660439 -0.493872
C48   C     C_3   0.124304 0.701101 0.557700 -0.484167
H32   H     H_    0.053499 0.676864 0.659797 0.199286
H33   H     H_    0.203543 0.774828 0.736839 0.212842
H34   H     H_    0.041587 0.678171 0.499016 0.214942
H35   H     H_    0.191550 0.776789 0.575255 0.193129
C49   C     C_R   0.880049 0.905227 0.985966 0.141798
C50   C     C_R   0.922459 0.854515 0.929733 0.052773
C51   C     C_R   0.922953 0.866933 0.840416 -0.206057
H36   H     H_    0.939787 0.817369 0.784416 0.121488
C52   C     C_R   0.914336 0.953810 0.831815 -0.186311
H37   H     H_    0.930000 0.973232 0.772964 0.137770
C53   C     C_R   0.900182 0.022787 0.909686 0.035215
C54   C     C_R   0.868310 0.988074 0.975522 0.149964
C55   C     C_3   0.902814 0.051433 0.094839 -0.501048
C56   C     C_3   0.915473 0.960156 0.106130 -0.474925
H38   H     H_    0.981248 0.129971 0.142527 0.205111
H39   H     H_    0.835971 0.057598 0.106677 0.202787
H40   H     H_    0.000985 0.985953 0.159809 0.219698
H41   H     H_    0.855638 0.914227 0.124482 0.189924
C57   C     C_2   0.207083 0.851676 0.392325 0.482090
H42   H     H_    0.273307 0.917618 0.473720 0.052325
O1    O     O_2   0.116782 0.840284 0.363678 -0.581875
N17   N     N_R   0.489234 0.997287 0.317875 0.263333
O2    O     O_R   0.470718 0.058909 0.385865 -0.369140
O3    O     O_R   0.449599 0.978093 0.217224 -0.347208
N18   N     N_R   0.603720 0.297215 0.902660 0.193698
O4    O     O_R   0.608787 0.254289 0.965519 -0.432216
O5    O     O_R   0.537517 0.234374 0.796972 -0.450412
N19   N     N_R   0.968995 0.298565 0.628333 0.196463
O6    O     O_R   0.893053 0.244862 0.525848 -0.438574
O7    O     O_R   0.012892 0.250031 0.668202 -0.476157
C58   C     C_2   0.125890 0.828250 0.930691 0.487553
H43   H     H_    0.110448 0.866049 0.881712 0.008004
O8    O     O_2   0.216960 0.842731 0.975272 -0.549261

loop_
_geom_bond_atom_site_label_1
_geom_bond_atom_site_label_2
_geom_bond_distance
_ccdc_geom_bond_type
C28   H19   1.107582 S    
H17   C27   1.113092 S    
C18   N14   1.343356 A    
C48   H35   1.112248 S    
C16   H9    1.081126 S    
C12   C29   1.465607 S    
C55   H38   1.112522 S    
C36   H26   1.082560 S    
N1    Ni1   1.861944 S    
C3    H3    1.074037 S    
C5    N19   1.424759 S    
C33   C34   1.400989 A    
N2    N7    1.396185 A    
C13   H6    1.060091 S    
C7    C10   1.378185 A    
C16   N12   1.317508 A    
N12   N13   1.396309 A    
C4    N18   1.427039 S    
C11   C45   1.464648 S    
C39   C40   1.510124 S    
C31   H24   1.114418 S    
C40   H28   1.111700 S    
C25   H14   1.112527 S    
C28   H20   1.113071 S    
C14   C22   1.379641 A    
C3    C11   1.376991 A    
C52   H37   1.082305 S    
C26   H16   1.110979 S    
C1    H1    1.066504 S    
N4    N6    1.387327 A    
H18   C31   1.113980 S    
N3    N5    1.387327 A    
C53   C54   1.396594 A    
C55   C56   1.504137 S    
N4    Ni4   1.895389 S    
C57   H42   1.084249 S    
N7    Ni4   1.849053 S    
C19   C21   1.389996 A    
N16   Ni3   1.895389 S    
C18   C23   1.396698 A    
C54   C55   1.500832 S    
C28   C32   1.532149 S    
N11   N14   1.396184 A    
C27   C29   1.543735 S    
N3    Ni3   1.848865 S    
C21   C42   1.457061 S    
C39   N17   1.466472 S    
C30   C31   1.555015 S    
C18   C57   1.477655 S    
C15   C23   1.374450 A    
C41   C42   1.402609 A    
C56   H40   1.112541 S    
C28   C29   1.562980 S    
C1    C9    1.378922 A    
C6    C12   1.387386 A    
C25   C29   1.559138 S    
C24   C53   1.442362 S    
C49   C50   1.398170 A    
C36   C37   1.404129 A    
C46   C47   1.498314 S    
C49   C56   1.499240 S    
C39   H27   1.112886 S    
C20   N16   1.317172 A    
N9    N15   1.387328 A    
N6    Ni1   1.885242 S    
C2    N2    1.322351 A    
C42   C43   1.405225 A    
C35   C36   1.398155 A    
N12   Ni4   1.894844 S    
C34   C35   1.408761 A    
C32   H21   1.113250 S    
C25   C26   1.529175 S    
C33   C38   1.371843 A    
C27   C31   1.520167 S    
N2    Ni2   1.884439 S    
C35   H25   1.081506 S    
C26   H15   1.113379 S    
C1    N1    1.320843 A    
C15   N11   1.317553 A    
C58   O8    1.220399 D    
C19   H11   1.080013 S    
N19   O7    1.300135 A    
C14   H7    1.080356 S    
N9    Ni1   1.861413 S    
C37   C38   1.396216 A    
C22   C30   1.447205 S    
C26   C30   1.546650 S    
C45   C46   1.399225 A    
C20   C22   1.368871 A    
C43   C44   1.401297 A    
C7    H5    1.077238 S    
N11   Ni3   1.849051 S    
C38   C39   1.501111 S    
C44   C45   1.409624 A    
C19   N15   1.341829 A    
N17   O2    1.302544 A    
C56   H41   1.112134 S    
C4    C12   1.391095 A    
C32   H22   1.113477 S    
C8    C9    1.397177 A    
C33   C40   1.506133 S    
C47   H32   1.112400 S    
N10   N16   1.387327 A    
C6    N6    1.320670 A    
N1    N8    1.396308 A    
N10   Ni2   1.885240 S    
C23   C37   1.446376 S    
N19   O6    1.300643 A    
C47   H33   1.111872 S    
C13   C21   1.375296 A    
C41   C48   1.501482 S    
N8    Ni3   1.894845 S    
N18   O5    1.301975 A    
C2    C10   1.364615 A    
C20   H12   1.080594 S    
C41   C46   1.374748 A    
C16   C24   1.370503 A    
C8    C58   1.474284 S    
C2    H2    1.074898 S    
C40   H29   1.111835 S    
C27   H23   1.113848 S    
C49   C54   1.367844 A    
C9    C50   1.450746 S    
C50   C51   1.406131 A    
C5    C11   1.386756 A    
C13   N9    1.325534 A    
N15   Ni4   1.848864 S    
C15   H8    1.076192 S    
C58   H43   1.080319 S    
C14   N10   1.319643 A    
C17   N13   1.338151 A    
C25   H13   1.102507 S    
C17   H10   1.081266 S    
C51   C52   1.399269 A    
N13   Ni2   1.861943 S    
C43   H30   1.082483 S    
C7    N7    1.340010 A    
C52   C53   1.405113 A    
C10   C34   1.449396 S    
C44   H31   1.076839 S    
C57   O1    1.221436 D    
N17   O3    1.300527 A    
C4    N4    1.324193 A    
N14   Ni1   1.884439 S    
N5    Ni2   1.861413 S    
C3    N3    1.328660 A    
C48   H34   1.112523 S    
C17   C24   1.384958 A    
C5    N5    1.340235 A    
C8    N8    1.340134 A    
C47   C48   1.502613 S    
C51   H36   1.080819 S    
C6    H4    1.075346 S    
C30   C32   1.552393 S    
C55   H39   1.111869 S    
N18   O4    1.300634 A    
