data_mof_unit_38222.cif
_audit_creation_date              2012-12-10T17:39:00-0500
_audit_creation_method            fapswitch 2.2
_symmetry_space_group_name_H-M    P1
_symmetry_Int_Tables_number       1
_space_group_crystal_system       triclinic
_cell_length_a                    11.983946
_cell_length_b                    12.833527
_cell_length_c                    23.421438
_cell_angle_alpha                 90.650459
_cell_angle_beta                  86.297217
_cell_angle_gamma                 94.178021
_cell_volume                      3584.97822016

loop_
_atom_site_label
_atom_site_type_symbol
_atom_type_description
_atom_site_fract_x
_atom_site_fract_y
_atom_site_fract_z
_atom_type_partial_charge
C1    C     C_R   0.522965 0.700129 0.499422 0.960391
C2    C     C_R   0.403546 0.515414 0.296875 0.075843
C3    C     C_R   0.429121 0.542200 0.768271 0.451068
C4    C     C_R   0.412123 0.529247 0.237354 0.457419
C5    C     C_R   0.514888 0.489578 0.791067 0.069208
C6    C     C_R   0.517572 0.529550 0.207417 0.064735
C7    C     C_R   0.461089 0.188158 0.498638 -0.195872
C8    C     C_R   0.538954 0.811443 0.500930 -0.202144
C9    C     C_R   0.600468 0.964896 0.552610 -0.298839
C10   C     C_R   0.400781 0.034831 0.446239 -0.299805
C11   C     C_R   0.607322 0.859285 0.541373 0.459264
C12   C     C_R   0.476990 0.299720 0.500586 0.969115
C13   C     C_R   0.392923 0.140251 0.458082 0.484139
C14   C     C_R   0.473246 0.868474 0.467212 0.107878
C15   C     C_R   0.526764 0.130821 0.532132 0.123082
C16   C     C_R   0.500605 0.500897 0.610633 0.957090
C17   C     C_R   0.499963 0.501517 0.389101 0.958251
C18   C     C_R   0.468670 0.975578 0.477666 0.002043
C19   C     C_R   0.532259 0.023956 0.521218 0.013796
C20   C     C_R   0.952771 0.395128 0.450486 -0.419129
C21   C     C_R   0.046787 0.604711 0.549218 -0.421010
C22   C     C_R   0.836048 0.407835 0.453034 0.699969
C23   C     C_R   0.594084 0.441486 0.755244 0.534970
C24   C     C_R   0.164031 0.597267 0.543419 0.702808
C25   C     C_R   0.859301 0.544733 0.521503 -0.144300
C26   C     C_R   0.140229 0.452317 0.480272 -0.138334
C27   C     C_R   0.976223 0.537364 0.518119 0.030842
C28   C     C_R   0.023319 0.460931 0.482621 0.030915
C29   C     C_R   0.492669 0.430139 0.121423 0.593498
C30   C     C_R   0.565686 0.582676 0.876042 0.604499
C31   C     C_R   0.564505 0.608686 0.115315 0.583874
C32   C     C_R   0.495756 0.403613 0.882292 0.579148
C33   C     C_R   0.571212 0.603583 0.055223 -0.139803
C34   C     C_R   0.615205 0.524595 0.236540 0.530990
C35   C     C_R   0.500049 0.405740 0.942085 -0.141601
C36   C     C_R   0.535789 0.508265 0.028633 -0.082599
C37   C     C_R   0.536364 0.500840 0.968618 -0.082666
C38   C     C_R   0.497690 0.420719 0.062008 -0.076397
C39   C     C_R   0.571138 0.589288 0.935267 -0.075589
C40   C     C_R   0.611259 0.690225 0.021032 0.535093
C41   C     C_R   0.467804 0.316918 0.976103 0.530224
C42   C     C_R   0.608593 0.682792 0.961586 -0.257759
C43   C     C_R   0.464618 0.325986 0.035622 -0.253761
C44   C     C_3   0.763374 0.796767 0.040959 -0.225048
C45   C     C_R   0.586105 0.444158 0.696338 -0.384471
C46   C     C_3   0.518295 0.154591 0.951845 -0.197745
C47   C     C_3   0.219068 0.769843 0.558887 -0.338669
C48   C     C_3   0.801920 0.331303 0.365353 -0.348902
C49   C     C_3   0.778483 0.449406 0.772726 -0.307192
C50   C     C_3   0.756522 0.429363 0.201113 -0.305274
C51   C     C_3   0.403842 0.723975 0.675557 -0.605239
C52   C     C_3   0.245483 0.398238 0.326483 -0.667437
C53   C     C_3   0.263464 0.526303 0.820918 -0.316307
C54   C     C_3   0.295908 0.634987 0.197186 -0.307509
C55   C     C_3   0.528704 0.182354 0.631545 -0.771825
C56   C     C_R   0.607375 0.518216 0.295863 -0.379484
C57   C     C_3   0.466489 0.802151 0.370091 -0.753478
C58   C     C_3   0.215602 0.173252 0.438379 -0.338669
C59   C     C_3   0.782774 0.823288 0.563147 -0.302136
C60   C     C_R   0.503180 0.498747 0.672788 -0.197493
C61   C     C_R   0.502378 0.510516 0.326499 -0.215080
C62   C     C_R   0.426290 0.551164 0.708733 0.062268
H1    H     H_    0.177997 0.393278 0.453860 0.169608
H2    H     H_    0.355460 0.001579 0.411192 0.169173
H3    H     H_    0.800472 0.731134 0.061958 0.171184
H4    H     H_    0.790720 0.869895 0.063390 0.197816
H5    H     H_    0.796337 0.803845 0.995558 0.134569
H6    H     H_    0.595901 0.188454 0.928176 0.165322
H7    H     H_    0.491223 0.081167 0.929611 0.205132
H8    H     H_    0.536297 0.133911 0.996163 0.140495
H9    H     H_    0.150100 0.799140 0.587197 0.154554
H10   H     H_    0.202509 0.780120 0.513062 0.147121
H11   H     H_    0.296505 0.819256 0.566634 0.193288
H12   H     H_    0.821296 0.601291 0.549661 0.167062
H13   H     H_    0.861380 0.268828 0.361047 0.165950
H14   H     H_    0.840898 0.405788 0.346621 0.146996
H15   H     H_    0.729383 0.306452 0.340043 0.203090
H16   H     H_    0.771728 0.526968 0.793982 0.179855
H17   H     H_    0.808229 0.459370 0.726993 0.163931
H18   H     H_    0.842770 0.408825 0.794130 0.192212
H19   H     H_    0.696158 0.375549 0.178870 0.178922
H20   H     H_    0.772666 0.397125 0.243389 0.149910
H21   H     H_    0.836936 0.433798 0.174708 0.197912
H22   H     H_    0.275428 0.620059 0.707399 0.252484
H23   H     H_    0.988167 0.334511 0.424071 0.142777
H24   H     H_    0.340783 0.774844 0.660793 0.225322
H25   H     H_    0.473975 0.722451 0.642237 0.246478
H26   H     H_    0.435580 0.758161 0.715760 0.244677
H27   H     H_    0.241117 0.556992 0.313850 0.239518
H28   H     H_    0.232014 0.370765 0.282116 0.262257
H29   H     H_    0.163021 0.395145 0.351064 0.198229
H30   H     H_    0.300436 0.345502 0.346840 0.275891
H31   H     H_    0.288319 0.462042 0.847719 0.188969
H32   H     H_    0.220210 0.493454 0.783334 0.147361
H33   H     H_    0.202279 0.570313 0.847218 0.199463
H34   H     H_    0.011399 0.663224 0.577202 0.149569
H35   H     H_    0.361149 0.671797 0.166466 0.192784
H36   H     H_    0.290504 0.682102 0.237369 0.141738
H37   H     H_    0.214227 0.636179 0.177560 0.201786
H38   H     H_    0.671067 0.167307 0.576233 0.231191
H39   H     H_    0.506957 0.100904 0.646162 0.246602
H40   H     H_    0.450905 0.224053 0.629944 0.239821
H41   H     H_    0.582560 0.222541 0.662995 0.254436
H42   H     H_    0.326578 0.834698 0.423802 0.214457
H43   H     H_    0.487786 0.879472 0.349780 0.246756
H44   H     H_    0.412037 0.753582 0.342022 0.229844
H45   H     H_    0.635069 0.751368 0.936256 0.201274
H46   H     H_    0.544420 0.761858 0.374586 0.237495
H47   H     H_    0.192590 0.191345 0.484048 0.170062
H48   H     H_    0.191313 0.089976 0.428659 0.157751
H49   H     H_    0.165911 0.220765 0.411651 0.176193
H50   H     H_    0.808637 0.906328 0.572615 0.153938
H51   H     H_    0.806907 0.803975 0.517763 0.164171
H52   H     H_    0.829982 0.774952 0.590718 0.177432
H53   H     H_    0.435153 0.258219 0.060993 0.205654
H54   H     H_    0.646022 0.404406 0.668961 0.199649
H55   H     H_    0.684318 0.517843 0.317649 0.204583
H56   H     H_    0.646507 0.998455 0.587333 0.172261
N1    N     N_R   0.524441 0.523192 0.146513 -0.323307
N2    N     N_R   0.526332 0.491688 0.851259 -0.322773
N3    N     N_R   0.207800 0.519350 0.510590 -0.141374
N4    N     N_R   0.792200 0.480650 0.489410 -0.143390
N5    N     N_2   0.352808 0.619529 0.685496 -0.251625
N6    N     N_2   0.295601 0.504179 0.326196 -0.270956
N7    N     N_2   0.587987 0.182928 0.575768 -0.298620
N8    N     N_2   0.408121 0.815006 0.425398 -0.295786
O1    O     O_R   0.421690 0.658830 0.502820 -0.570811
O2    O     O_2   0.598632 0.666577 0.843231 -0.564063
O3    O     O_2   0.596100 0.697987 0.142717 -0.499372
O4    O     O_2   0.459378 0.315549 0.855103 -0.498086
O5    O     O_3   0.645209 0.785010 0.045371 -0.564861
O6    O     O_3   0.431210 0.222832 0.951855 -0.563624
O7    O     O_3   0.235942 0.665209 0.572372 -0.573971
O8    O     O_3   0.762522 0.342880 0.423011 -0.574148
O9    O     O_3   0.676095 0.387829 0.778423 -0.582319
O10   O     O_3   0.718818 0.530704 0.206706 -0.581597
O11   O     O_3   0.356413 0.595399 0.804192 -0.585067
O12   O     O_R   0.578310 0.341170 0.497180 -0.562509
O13   O     O_3   0.315993 0.530252 0.207776 -0.588241
O14   O     O_3   0.330611 0.199390 0.424706 -0.607217
O15   O     O_3   0.667069 0.799732 0.575887 -0.606793
O16   O     O_R   0.609320 0.646410 0.496030 -0.617058
O17   O     O_R   0.390680 0.353590 0.503970 -0.621250
O18   O     O_R   0.406170 0.506240 0.587240 -0.579550
O19   O     O_R   0.593830 0.493760 0.412760 -0.607951
O20   O     O_R   0.593790 0.493820 0.580450 -0.625438
O21   O     O_R   0.406210 0.506180 0.419550 -0.589783
O22   O     O_2   0.456563 0.346954 0.154186 -0.563007
Zn1   Zn    Zn3+2 0.374720 0.508290 0.504530 1.008673
Zn2   Zn    Zn3+2 0.625280 0.491710 0.495470 0.998047

loop_
_geom_bond_atom_site_label_1
_geom_bond_atom_site_label_2
_ccdc_geom_bond_type
C24   O7    S    
C7    C13   A    
C57   H43   S    
C45   C60   A    
C34   C56   A    
C23   C45   A    
C53   H33   S    
C1    C8    S    
C51   N5    S    
C56   H55   S    
C48   H14   S    
C17   O19   A    
C29   O22   S    
C32   O4    S    
O12   Zn2   S    
C44   O5    S    
C15   C19   A    
C29   N1    A    
C55   H40   S    
C22   O8    S    
C53   O11   S    
N4    Zn2   S    
C48   O8    S    
C36   C37   A    
C35   C37   A    
C18   C19   A    
C8    C11   A    
C46   O6    S    
C58   H47   S    
C55   H41   S    
C33   C36   A    
C49   H16   S    
C17   O21   A    
C16   O20   A    
C25   H12   S    
C16   C60   S    
C14   C18   A    
C46   H7    S    
C1    O16   A    
C17   C61   S    
O20   Zn2   S    
C52   H28   S    
C9    C19   A    
C55   N7    S    
C29   C38   A    
C31   C33   A    
C54   H35   S    
C3    O11   S    
C26   N3    A    
C42   H45   S    
O19   Zn2   S    
C2    C61   A    
C43   H53   S    
C40   C42   A    
C57   H44   S    
C21   C27   A    
C47   O7    S    
C9    H56   S    
C41   C43   A    
C48   H13   S    
C44   H3    S    
C32   N2    A    
C51   H24   S    
C62   N5    S    
C50   H21   S    
C22   N4    A    
C39   C42   A    
C7    C12   S    
C30   O2    S    
O21   Zn1   S    
C33   C40   A    
C44   H5    S    
C5    N2    S    
C53   H31   S    
H38   N7    S    
C13   O14   S    
C47   H11   S    
C4    C6    A    
C51   H25   S    
C57   N8    S    
C20   C28   A    
C6    C34   A    
H22   N5    S    
C48   H15   S    
C2    C4    A    
C26   H1    S    
C32   C35   A    
C46   H6    S    
O18   Zn1   S    
C11   O15   S    
C54   O13   S    
C5    C23   A    
C34   O10   S    
C59   H51   S    
C31   N1    A    
C20   H23   S    
C59   H50   S    
C9    C11   A    
C47   H9    S    
C44   H4    S    
C21   H34   S    
C40   O5    S    
C20   C22   A    
C12   O12   A    
C54   H37   S    
C52   H30   S    
C6    N1    S    
C50   H20   S    
C25   N4    A    
C3    C62   A    
C58   O14   S    
C8    C14   A    
C16   O18   A    
C53   H32   S    
C58   H48   S    
C10   H2    S    
C1    O1    A    
C3    C5    A    
C10   C13   A    
C51   H26   S    
C41   O6    S    
C58   H49   S    
C49   H18   S    
H27   N6    S    
C2    N6    S    
C25   C27   A    
C55   H39   S    
C26   C28   A    
C14   N8    S    
C12   O17   A    
C23   O9    S    
O16   Zn2   S    
C36   C38   A    
C38   C43   A    
C31   O3    S    
C50   O10   S    
O1    Zn1   S    
C60   C62   A    
C52   N6    S    
C45   H54   S    
C30   N2    A    
C10   C18   A    
C59   H52   S    
C7    C15   A    
C24   N3    A    
N3    Zn1   S    
C30   C39   A    
C49   O9    S    
C35   C41   A    
C47   H10   S    
C46   H8    S    
C49   H17   S    
O17   Zn1   S    
C57   H46   S    
H42   N8    S    
C59   O15   S    
C37   C39   A    
C15   N7    S    
C21   C24   A    
C27   C28   A    
C56   C61   A    
C54   H36   S    
C52   H29   S    
C50   H19   S    
C4    O13   S    
