data_mof_unit_45886.cif
_audit_creation_date              2012-12-10T20:39:59-0500
_audit_creation_method            fapswitch 2.2
_symmetry_space_group_name_H-M    P1
_symmetry_Int_Tables_number       1
_space_group_crystal_system       triclinic
_cell_length_a                    23.353981
_cell_length_b                    10.709007
_cell_length_c                    9.92489
_cell_angle_alpha                 88.604589
_cell_angle_beta                  89.721191
_cell_angle_gamma                 91.714577
_cell_volume                      2480.30861705

loop_
_atom_site_label
_atom_site_type_symbol
_atom_type_description
_atom_site_fract_x
_atom_site_fract_y
_atom_site_fract_z
_atom_type_partial_charge
C1    C     C_R   0.504688 0.260677 0.500874 0.928915
C2    C     C_R   0.968977 0.455847 0.273940 -0.192290
C3    C     C_R   0.028952 0.459914 0.273437 0.737462
C4    C     C_R   0.059645 0.501589 0.386031 -0.168711
C5    C     C_R   0.030096 0.540478 0.501490 -0.151492
C6    C     C_R   0.061017 0.579851 0.615688 -0.170962
C7    C     C_R   0.031697 0.621819 0.729166 0.740030
C8    C     C_R   0.971751 0.623613 0.731658 -0.186124
C9    C     C_R   0.119662 0.502116 0.387986 0.606349
C10   C     C_R   0.121032 0.577750 0.612239 0.636003
C11   C     C_R   0.243432 0.633151 0.447577 -0.087601
C12   C     C_R   0.389705 0.501642 0.500030 0.833428
C13   C     C_R   0.303371 0.620274 0.441000 -0.070407
C14   C     C_R   0.327711 0.511978 0.499267 -0.239102
C15   C     C_R   0.292876 0.413290 0.554294 -0.234402
C16   C     C_R   0.233536 0.425038 0.553148 0.790772
C17   C     C_R   0.209323 0.533151 0.500606 0.013434
C18   C     C_R   0.762236 0.418490 0.533162 0.710741
C19   C     C_R   0.703200 0.409285 0.527372 -0.246582
C20   C     C_R   0.671904 0.515368 0.499508 -0.131888
C21   C     C_R   0.699221 0.634038 0.479434 -0.095210
C22   C     C_R   0.759781 0.642652 0.478789 -0.068475
C23   C     C_R   0.502271 0.740015 0.498646 0.848572
C24   C     C_R   0.790587 0.533533 0.508208 0.123513
C25   C     C_R   0.511240 0.060355 0.621176 -0.037563
C26   C     C_R   0.518168 0.130389 0.502042 -0.214441
C27   C     C_R   0.537030 0.069760 0.384427 -0.159342
C28   C     C_R   0.531824 0.938988 0.382218 0.668398
C29   C     C_R   0.512545 0.872011 0.498237 -0.176188
C30   C     C_R   0.508943 0.933305 0.619625 -0.159807
C31   C     C_3   0.467558 0.920763 0.736124 -0.210899
C32   C     C_3   0.469473 0.063646 0.735580 0.588739
C33   C     C_R   0.450241 0.483824 0.072294 0.026359
C34   C     C_R   0.610214 0.501440 0.499754 0.839599
C35   C     C_R   0.547077 0.541718 0.070393 0.010099
C36   C     C_R   0.546919 0.542841 0.925678 -0.004520
C37   C     C_R   0.450054 0.484846 0.930870 0.004250
C38   C     C_3   0.406437 0.380422 0.931406 1.038804
C39   C     C_3   0.407215 0.379343 0.084734 0.378705
C40   C     C_R   0.880206 0.563054 0.621858 0.665788
C41   C     C_R   0.879037 0.510225 0.389597 0.607974
C42   C     C_R   0.938949 0.500263 0.387449 -0.152479
C43   C     C_R   0.969767 0.539390 0.502990 0.024018
C44   C     C_R   0.940298 0.576872 0.620267 -0.159078
H1    H     H_    0.681672 0.319263 0.545298 0.172331
H2    H     H_    0.488917 0.105456 0.826655 0.128202
H3    H     H_    0.424110 0.293360 0.133169 0.093892
N1    N     N_R   0.851627 0.536500 0.506373 -0.306593
N2    N     N_R   0.148446 0.539199 0.499894 -0.376581
N3    N     N_R   0.499610 0.499140 0.142800 -0.168006
N4    N     N_R   0.499610 0.499180 0.857150 -0.154613
O1    O     O_R   0.500010 0.316790 0.614690 -0.560967
O2    O     O_2   0.847916 0.496577 0.276495 -0.549857
O3    O     O_2   0.149502 0.465519 0.279769 -0.390157
O4    O     O_2   0.152158 0.613213 0.719736 -0.391228
O5    O     O_R   0.500000 0.316760 0.385350 -0.654650
O6    O     O_R   0.416160 0.499980 0.614700 -0.583369
O7    O     O_R   0.416150 0.499940 0.385360 -0.570580
O8    O     O_R   0.500000 0.683240 0.614650 -0.667047
O9    O     O_R   0.499990 0.683210 0.385310 -0.579700
O10   O     O_R   0.583850 0.500060 0.614640 -0.619186
O11   O     O_R   0.583840 0.500020 0.385300 -0.647474
O12   O     O_2   0.850043 0.573993 0.736983 -0.524668
Zn1   Zn    Zn3+2 0.500000 0.500020 0.653130 1.008243
Zn2   Zn    Zn3+2 0.500000 0.499980 0.346870 1.000445
C45   C     C_2   0.939379 0.393377 0.160235 0.658072
H4    H     H_    0.901350 0.334759 0.178634 0.095010
O13   O     O_2   0.957747 0.404714 0.045034 -0.443960
C46   C     C_2   0.663765 0.747125 0.466003 0.394719
H5    H     H_    0.621317 0.740122 0.423379 0.073175
O14   O     O_2   0.680342 0.847869 0.508496 -0.555343
C47   C     C_2   0.790279 0.762132 0.438325 0.586766
H6    H     H_    0.769504 0.829291 0.372865 0.114489
O15   O     O_2   0.838625 0.787610 0.477216 -0.561046
C48   C     C_2   0.562320 0.139951 0.266079 0.537049
H7    H     H_    0.583370 0.230522 0.279070 0.072301
O16   O     O_2   0.560514 0.097320 0.153123 -0.499069
F1    F     F_    0.544505 0.878359 0.267774 -0.640970
C49   C     C_2   0.409869 0.860573 0.701050 0.632939
H8    H     H_    0.392786 0.781207 0.760067 0.108609
O17   O     O_2   0.382375 0.898351 0.604766 -0.522611
C50   C     C_2   0.495250 0.865126 0.860450 0.336784
H9    H     H_    0.540909 0.879699 0.876444 0.105053
O18   O     O_2   0.466922 0.806843 0.945952 -0.518569
F2    F     F_    0.418591 0.115656 0.695693 -0.569547
C51   C     C_2   0.595340 0.601053 0.141763 0.515989
H10   H     H_    0.587484 0.677118 0.208222 0.125902
O19   O     O_2   0.643814 0.562773 0.130995 -0.506232
F3    F     F_    0.057222 0.416716 0.164659 -0.525589
C52   C     C_2   0.594074 0.607215 0.849759 0.520842
H11   H     H_    0.584644 0.680992 0.777350 0.061284
O20   O     O_2   0.643578 0.576007 0.863512 -0.481748
F4    F     F_    0.354829 0.415496 0.876392 -0.577299
F5    F     F_    0.426870 0.273118 0.879124 -0.665511
F6    F     F_    0.356390 0.418094 0.140058 -0.558479
F7    F     F_    0.061410 0.666849 0.836020 -0.531883
C53   C     C_2   0.943781 0.685930 0.846015 0.653435
H12   H     H_    0.906246 0.741272 0.829034 0.098368
O21   O     O_2   0.962936 0.678143 0.960086 -0.450169
C54   C     C_2   0.215202 0.750757 0.406107 0.618170
H13   H     H_    0.171660 0.747794 0.368512 0.059323
O22   O     O_2   0.239037 0.852626 0.420003 -0.456411
C55   C     C_2   0.340879 0.715817 0.369589 0.681174
H14   H     H_    0.383779 0.736219 0.405533 0.037661
O23   O     O_2   0.325259 0.768065 0.266011 -0.457584
C56   C     C_2   0.318267 0.295363 0.604937 0.732792
H15   H     H_    0.362633 0.276783 0.583465 0.094127
O24   O     O_2   0.290161 0.217485 0.670857 -0.367433
F8    F     F_    0.198227 0.330781 0.601026 -0.567471
F9    F     F_    0.792446 0.314557 0.560065 -0.619935

loop_
_geom_bond_atom_site_label_1
_geom_bond_atom_site_label_2
_ccdc_geom_bond_type
C45   O13   D    
C41   C42   A    
C19   C20   A    
C43   C44   A    
C53   H12   S    
C7    C8    A    
C23   O8    A    
C7    F7    S    
O8    Zn1   S    
C29   C30   A    
C40   O12   S    
C18   C24   A    
C23   C29   S    
C15   C56   S    
C28   C29   A    
C1    O5    A    
C1    O1    A    
C30   C31   S    
C37   N4    A    
C35   C51   S    
C51   O19   D    
C56   H15   S    
C15   C16   A    
C34   O11   A    
C18   C19   A    
C46   O14   D    
C35   C36   A    
C16   C17   A    
C13   C55   S    
C28   F1    S    
C20   C34   S    
C25   C32   S    
C45   H4    S    
C5    C43   A    
C21   C22   A    
C27   C48   S    
C22   C47   S    
C53   O21   D    
C16   F8    S    
C31   C50   S    
C23   O9    A    
C24   N1    S    
C8    C44   A    
C9    N2    A    
C47   O15   D    
O1    Zn1   S    
C17   N2    S    
C49   O17   D    
C51   H10   S    
C47   H6    S    
C33   N3    A    
C34   O10   A    
C33   C37   A    
C21   C46   S    
C11   C54   S    
C38   C39   S    
O10   Zn1   S    
C48   H7    S    
C37   C38   S    
O7    Zn2   S    
C52   O20   D    
C31   C32   S    
C41   O2    S    
C38   F5    S    
C35   N3    A    
C54   O22   D    
C26   C27   A    
C55   O23   D    
C33   C39   S    
C10   O4    S    
C48   O16   D    
C39   F6    S    
C36   N4    A    
C12   O6    A    
C12   C14   S    
O9    Zn2   S    
C50   O18   D    
C1    C26   S    
C22   C24   A    
C42   C43   A    
C3    C4    A    
C55   H14   S    
O6    Zn1   S    
C39   H3    S    
C36   C52   S    
C25   C30   A    
C40   N1    A    
C11   C17   A    
O11   Zn2   S    
C32   H2    S    
N4    Zn1   S    
C18   F9    S    
C4    C5    A    
C2    C45   S    
C6    C10   A    
C19   H1    S    
C31   C49   S    
C6    C7    A    
C3    F3    S    
C2    C3    A    
C25   C26   A    
C12   O7    A    
C11   C13   A    
C52   H11   S    
C5    C6    A    
C56   O24   D    
C2    C42   A    
C8    C53   S    
C32   F2    S    
C38   F4    S    
C54   H13   S    
C41   N1    A    
C46   H5    S    
N3    Zn2   S    
C49   H8    S    
C40   C44   A    
C20   C21   A    
C50   H9    S    
C27   C28   A    
C14   C15   A    
C9    O3    S    
C4    C9    A    
C13   C14   A    
C10   N2    A    
O5    Zn2   S    
