data_mof_unit_24733.cif
_audit_creation_date              2012-10-26T17:51:28-0400
_audit_creation_method            fapswitch 2.2
_symmetry_space_group_name_H-M    P1
_symmetry_Int_Tables_number       1
_space_group_crystal_system       triclinic
_cell_length_a                    18.968664
_cell_length_b                    18.677573
_cell_length_c                    18.994002
_cell_angle_alpha                 109.228389
_cell_angle_beta                  110.617995
_cell_angle_gamma                 108.980302
_cell_volume                      5152.76901905

loop_
_atom_site_label
_atom_site_type_symbol
_atom_type_description
_atom_site_fract_x
_atom_site_fract_y
_atom_site_fract_z
_atom_type_partial_charge
C1    C     C_R   0.617856 0.618844 0.499520 0.549103
C2    C     C_R   0.676045 0.757361 0.496602 -0.085709
C3    C     C_3   0.001146 0.957113 0.229167 0.019101
C4    C     C_3   0.903466 0.927052 0.187588 -0.257158
C5    C     C_3   0.853108 0.859723 0.091152 -0.491720
C6    C     C_3   0.267380 0.248338 0.248334 0.036735
C7    C     C_3   0.296989 0.183330 0.260235 -0.273445
C8    C     C_3   0.301509 0.132301 0.182121 -0.496969
C9    C     C_3   0.384773 0.974454 0.512355 0.015061
C10   C     C_3   0.451774 0.057732 0.600440 -0.248588
C11   C     C_3   0.528277 0.049314 0.651600 -0.482021
C12   C     C_3   0.274433 0.372389 0.088808 0.001813
C13   C     C_R   0.815532 0.816747 0.503959 0.024918
C14   C     C_3   0.282967 0.294029 0.043407 -0.264703
C15   C     C_3   0.249073 0.265460 0.947433 -0.476581
C16   C     C_3   0.935064 0.477120 0.712259 0.012032
C17   C     C_3   0.989327 0.577547 0.761692 -0.270861
C18   C     C_3   0.963750 0.614864 0.702912 -0.456645
C19   C     C_3   0.763531 0.442890 0.433543 0.004174
C20   C     C_3   0.724155 0.394698 0.473256 -0.264315
C21   C     C_3   0.631613 0.319406 0.405201 -0.462550
C22   C     C_R   0.380776 0.500046 0.380421 0.589077
C23   C     C_R   0.820523 0.740892 0.499395 -0.054099
C24   C     C_R   0.757783 0.678449 0.502880 -0.050658
C25   C     C_R   0.684456 0.685600 0.498919 -0.013474
C26   C     C_R   0.887468 0.725871 0.492794 -0.153526
C27   C     C_R   0.892140 0.651554 0.489886 0.294736
C28   C     C_R   0.833497 0.593771 0.499557 0.288083
C29   C     C_R   0.770429 0.610270 0.511232 -0.142035
C30   C     C_3   0.186370 0.419747 0.196385 0.247498
C31   C     C_R   0.775372 0.669498 0.778916 0.297273
C32   C     C_R   0.829801 0.741636 0.865085 -0.112890
C33   C     C_R   0.882498 0.735190 0.931405 -0.179847
C34   C     C_R   0.378597 0.380524 0.496256 0.615078
C35   C     C_R   0.879863 0.656710 0.915155 -0.102605
C36   C     C_R   0.819161 0.580005 0.832874 -0.040165
C37   C     C_R   0.760467 0.583906 0.765176 0.018540
C38   C     C_R   0.817318 0.500175 0.817971 -0.009451
C39   C     C_R   0.752712 0.421206 0.739810 -0.022478
C40   C     C_R   0.686233 0.420880 0.675930 -0.049767
C41   C     C_3   0.218648 0.467170 0.293986 -0.109069
C42   C     C_R   0.690869 0.502663 0.687477 -0.007333
C43   C     C_R   0.754986 0.342429 0.723269 -0.138075
C44   C     C_R   0.689918 0.263587 0.648194 -0.125225
C45   C     C_R   0.619325 0.260058 0.586041 0.270584
C46   C     C_R   0.621659 0.501832 0.619851 0.602902
C47   C     C_R   0.617366 0.337860 0.602064 -0.074637
C48   C     C_R   0.409728 0.369321 0.653619 0.266616
C49   C     C_R   0.414386 0.383581 0.732274 -0.046706
C50   C     C_R   0.342161 0.335734 0.733249 -0.167267
C51   C     C_R   0.266128 0.269820 0.655480 -0.081604
C52   C     C_3   0.312484 0.499385 0.312095 0.033537
C53   C     C_R   0.258976 0.252904 0.573846 -0.019821
C54   C     C_R   0.328144 0.310423 0.572986 -0.008336
C55   C     C_R   0.183892 0.181651 0.494057 -0.009369
C56   C     C_R   0.169046 0.178106 0.413335 -0.018174
C57   C     C_R   0.230911 0.247566 0.414513 -0.027683
C58   C     C_3   0.318631 0.582679 0.309238 -0.177308
C59   C     C_R   0.312534 0.310423 0.493873 -0.017195
C60   C     C_R   0.092646 0.109370 0.330735 0.285338
C61   C     C_R   0.063651 0.130303 0.265282 -0.162476
C62   C     C_R   0.119774 0.201860 0.269092 -0.154321
C63   C     C_R   0.598788 0.760057 0.482747 -0.062922
C64   C     C_R   0.206944 0.250991 0.335387 0.265527
C65   C     C_R   0.002300 0.619145 0.120379 0.592074
C66   C     C_R   0.123161 0.500618 0.123746 0.551102
C67   C     C_R   0.001565 0.381151 0.883016 0.574722
C68   C     C_R   0.884641 0.499598 0.884301 0.589863
C69   C     C_R   0.001028 0.881440 0.382195 0.561221
C70   C     C_3   0.223750 0.550335 0.289711 -0.169871
C71   C     C_R   0.881488 0.882069 0.501094 0.610533
C72   C     C_R   0.999213 0.118424 0.618011 0.639604
C73   C     C_R   0.118281 0.115883 0.496885 0.610577
C74   C     C_R   0.593907 0.834907 0.491952 0.217538
C75   C     C_R   0.161244 0.760685 0.278472 -0.151894
C76   C     C_R   0.239636 0.834697 0.347527 -0.122360
C77   C     C_R   0.240207 0.906957 0.402787 0.275048
C78   C     C_R   0.160706 0.901408 0.388475 -0.047916
C79   C     C_R   0.080257 0.824012 0.322255 -0.054854
C80   C     C_R   0.080512 0.756527 0.261285 -0.036689
C81   C     C_R   0.000178 0.812781 0.315832 -0.044216
C82   C     C_3   0.191163 0.501210 0.191934 0.035413
C83   C     C_R   0.919795 0.738384 0.243691 -0.060504
C84   C     C_R   0.920055 0.682044 0.172418 0.002949
C85   C     C_R   0.667499 0.909512 0.517050 -0.102636
C86   C     C_R   0.000749 0.687243 0.184853 -0.005507
C87   C     C_R   0.838061 0.719398 0.238588 0.235563
C88   C     C_R   0.760864 0.661301 0.159433 -0.096610
C89   C     C_R   0.761400 0.615267 0.086235 -0.165436
C90   C     C_R   0.839329 0.622658 0.091494 0.242833
C91   C     C_R   0.011278 0.401637 0.736629 0.253788
C92   C     C_R   0.057668 0.431458 0.699001 -0.142832
C93   C     C_R   0.082162 0.380113 0.652905 0.214971
C94   C     C_3   0.285241 0.533956 0.210440 -0.156977
C95   C     C_R   0.059038 0.296282 0.642700 0.280783
C96   C     C_R   0.743732 0.907557 0.526408 0.222669
C97   C     C_R   0.023093 0.269786 0.690659 -0.051486
C98   C     C_R   0.010064 0.328809 0.747227 -0.036135
C99   C     C_R   0.002379 0.187316 0.686011 -0.004600
C100  C     C_R   0.991922 0.173048 0.751341 -0.006819
C101  C     C_R   0.999710 0.240722 0.820148 -0.018694
C102  C     C_R   0.000120 0.314494 0.813805 -0.015649
C103  C     C_R   0.978832 0.094204 0.752521 -0.079880
C104  C     C_R   0.985346 0.087575 0.825091 -0.138147
C105  C     C_R   0.002696 0.157880 0.897005 -0.124718
C106  C     C_3   0.278995 0.451231 0.214463 0.270645
C107  C     C_R   0.745971 0.827999 0.508742 0.028298
C108  C     C_R   0.009721 0.233590 0.894936 -0.100910
C109  C     C_3   0.961546 0.636996 0.411951 -0.000960
C110  C     C_3   0.999601 0.579761 0.384401 -0.248620
C111  C     C_3   0.012445 0.581965 0.310157 -0.476004
C112  C     C_3   0.565921 0.115551 0.477473 0.010221
C113  C     C_3   0.626447 0.137745 0.441949 -0.280702
C114  C     C_3   0.652926 0.068639 0.417484 -0.473604
C115  C     C_3   0.784832 0.766045 0.722529 0.014601
C116  C     C_3   0.739271 0.818311 0.741091 -0.257649
C117  C     C_3   0.792994 0.913163 0.766837 -0.484652
Cu1   Cu    Cu3+1 0.500490 0.438210 0.438660 0.903407
Cu2   Cu    Cu3+1 0.499510 0.561790 0.561340 1.001052
Cu3   Cu    Cu3+1 0.942070 0.438200 0.003850 0.964552
Cu4   Cu    Cu3+1 0.065670 0.561760 0.003800 0.930891
Cu5   Cu    Cu3+1 0.062280 0.000030 0.562300 0.919857
Cu6   Cu    Cu3+1 0.937720 1.000000 0.437720 1.027606
H1    H     H_    0.200051 0.591727 0.319255 0.116897
H2    H     H_    0.696188 0.206637 0.641141 0.099181
H3    H     H_    0.523993 0.891544 0.487153 0.307378
H4    H     H_    0.559850 0.329676 0.553708 0.157199
H5    H     H_    0.097724 0.212875 0.214868 0.123158
H6    H     H_    0.475415 0.430419 0.793072 0.133236
H7    H     H_    0.345969 0.347415 0.794571 0.110839
H8    H     H_    0.212889 0.234629 0.661379 0.189625
H9    H     H_    0.000200 0.088069 0.207146 0.108908
H10   H     H_    0.311598 0.561346 0.175784 0.119980
H11   H     H_    0.699974 0.571018 0.025345 0.103304
H12   H     H_    0.165512 0.707120 0.239312 0.145642
H13   H     H_    0.665558 0.969540 0.529806 0.066693
H14   H     H_    0.299361 0.835713 0.355569 0.105727
H15   H     H_    0.163522 0.959199 0.430318 0.171273
H16   H     H_    0.699368 0.649748 0.155256 0.144779
H17   H     H_    0.010788 0.153857 0.954672 0.125926
H18   H     H_    0.071992 0.493714 0.702200 0.100533
H19   H     H_    0.965693 0.037350 0.698837 0.169539
H20   H     H_    0.979451 0.028479 0.826333 0.101786
H21   H     H_    0.026495 0.287000 0.954138 0.175009
H22   H     H_    0.192132 0.438938 0.328090 0.136364
H23   H     H_    0.540659 0.703812 0.463929 0.155860
H24   H     H_    0.937360 0.770335 0.489595 0.134700
H25   H     H_    0.805015 0.032981 0.568804 0.312604
H26   H     H_    0.004426 0.704820 0.429522 0.139551
H27   H     H_    0.895904 0.609819 0.355441 0.121525
H28   H     H_    0.063387 0.603092 0.440697 0.182308
H29   H     H_    0.954980 0.511158 0.363283 0.176179
H30   H     H_    0.950248 0.561996 0.254019 0.167662
H31   H     H_    0.035762 0.536266 0.288753 0.156160
H32   H     H_    0.061908 0.648919 0.332662 0.153480
H33   H     H_    0.502849 0.057260 0.422210 0.156554
H34   H     H_    0.588360 0.094091 0.524742 0.108564
H35   H     H_    0.731969 0.568565 0.526793 0.159707
H36   H     H_    0.592052 0.141049 0.383198 0.157707
H37   H     H_    0.686326 0.202212 0.490779 0.164154
H38   H     H_    0.693550 0.069303 0.476632 0.142968
H39   H     H_    0.691718 0.083368 0.386796 0.153756
H40   H     H_    0.594558 0.002564 0.370798 0.149577
H41   H     H_    0.785237 0.759850 0.663116 0.151432
H42   H     H_    0.855411 0.802412 0.772089 0.103635
H43   H     H_    0.675287 0.788700 0.682331 0.197709
H44   H     H_    0.727205 0.816751 0.793794 0.155605
H45   H     H_    0.854650 0.946456 0.829582 0.138697
H46   H     H_    0.836004 0.805340 0.881510 0.098049
H47   H     H_    0.756213 0.947808 0.774930 0.157576
H48   H     H_    0.807357 0.916353 0.715699 0.164545
H49   H     H_    0.483992 0.366560 0.608148 0.305762
H50   H     H_    0.008942 0.900721 0.228465 0.151385
H51   H     H_    0.027553 0.973284 0.189139 0.105973
H52   H     H_    0.875621 0.896604 0.219372 0.202628
H53   H     H_    0.892463 0.983295 0.195902 0.150914
H54   H     H_    0.877364 0.888292 0.056012 0.138073
H55   H     H_    0.783119 0.839479 0.063447 0.153102
H56   H     H_    0.859755 0.800884 0.082052 0.165669
H57   H     H_    0.928436 0.792388 0.995348 0.111013
H58   H     H_    0.313762 0.292149 0.238550 0.213056
H59   H     H_    0.203661 0.213323 0.187242 0.093217
H60   H     H_    0.362302 0.218965 0.319338 0.194766
H61   H     H_    0.250757 0.135872 0.267522 0.160228
H62   H     H_    0.236528 0.094434 0.121945 0.143905
H63   H     H_    0.322863 0.085957 0.192241 0.155452
H64   H     H_    0.348865 0.177706 0.174130 0.139932
H65   H     H_    0.416862 0.963240 0.474089 0.127121
H66   H     H_    0.361763 0.918715 0.523937 0.135734
H67   H     H_    0.476267 0.114020 0.590404 0.213817
H68   H     H_    0.924997 0.657358 0.969568 0.188530
H69   H     H_    0.420340 0.071060 0.638934 0.171552
H70   H     H_    0.505602 0.995687 0.665567 0.158752
H71   H     H_    0.576448 0.111520 0.714202 0.152236
H72   H     H_    0.560684 0.035477 0.614431 0.135265
H73   H     H_    0.876438 0.753555 0.357478 0.298618
H74   H     H_    0.776321 0.537939 0.967408 0.323962
H75   H     H_    0.312205 0.427832 0.083304 0.137142
H76   H     H_    0.204386 0.353115 0.054885 0.152756
H77   H     H_    0.245359 0.238497 0.048855 0.157264
H78   H     H_    0.352392 0.311603 0.075820 0.171803
H79   H     H_    0.374236 0.650058 0.357405 0.167486
H80   H     H_    0.179436 0.246548 0.913422 0.171315
H81   H     H_    0.287039 0.319400 0.940471 0.145676
H82   H     H_    0.255581 0.208131 0.916223 0.148175
H83   H     H_    0.868188 0.458914 0.697590 0.144308
H84   H     H_    0.926712 0.447872 0.646408 0.123308
H85   H     H_    0.979039 0.605433 0.815886 0.191875
H86   H     H_    0.059688 0.599582 0.790042 0.160750
H87   H     H_    0.979112 0.593458 0.651090 0.214293
H88   H     H_    0.001004 0.687464 0.741601 0.141432
H89   H     H_    0.893261 0.593013 0.673472 0.175032
H90   H     H_    0.808104 0.340434 0.767252 0.161469
H91   H     H_    0.138082 0.469441 0.628667 0.324969
H92   H     H_    0.090278 0.263971 0.553792 0.367734
H93   H     H_    0.136540 0.295340 0.145088 0.318003
H94   H     H_    0.780596 0.401473 0.393329 0.151112
H95   H     H_    0.714001 0.450431 0.387733 0.121839
H96   H     H_    0.764992 0.368738 0.500863 0.146010
H97   H     H_    0.723183 0.440643 0.527158 0.183448
H98   H     H_    0.589561 0.344346 0.377722 0.157451
H99   H     H_    0.604087 0.286390 0.435666 0.175242
H100  H     H_    0.631422 0.271005 0.351945 0.126242
O1    O     O_R   0.590580 0.537990 0.448200 -0.527345
O2    O     O_R   0.948140 0.909840 0.357940 -0.463799
O3    O     O_R   0.962430 0.909850 0.552620 -0.549142
O4    O     O_R   0.589760 0.642350 0.551790 -0.511844
O5    O     O_R   0.857240 0.909830 0.447420 -0.436829
O6    O     O_R   0.051860 0.090180 0.642080 -0.530884
O7    O     O_R   0.946670 0.090160 0.536880 -0.458519
O8    O     O_R   0.142760 0.090200 0.552610 -0.529366
O9    O     O_R   0.037570 0.090170 0.447410 -0.449790
O10   O     O_R   0.409540 0.447820 0.357340 -0.463016
O11   O     O_R   0.408720 0.552180 0.460940 -0.528828
O12   O     O_R   0.055380 0.642340 0.093300 -0.533756
O13   O     O_R   0.410240 0.357650 0.448210 -0.500791
O14   O     O_R   0.409420 0.462010 0.551800 -0.473741
O15   O     O_R   0.591280 0.447820 0.539060 -0.569892
O16   O     O_R   0.590460 0.552180 0.642660 -0.419228
O17   O     O_R   0.951000 0.537990 0.093340 -0.473271
O18   O     O_3   0.817487 0.984077 0.558249 -0.716617
O19   O     O_3   0.958296 0.637604 0.485399 -0.543746
O20   O     O_3   0.548561 0.183778 0.509795 -0.584129
O21   O     O_3   0.738631 0.680501 0.707995 -0.558548
O22   O     O_3   0.487344 0.409194 0.658412 -0.692097
O23   O     O_R   0.042560 0.447800 0.094700 -0.482425
O24   O     O_3   0.048365 0.025383 0.317317 -0.550477
O25   O     O_3   0.266936 0.301475 0.321897 -0.550064
O26   O     O_3   0.315622 0.986099 0.468328 -0.565529
O27   O     O_3   0.830049 0.750823 0.309946 -0.684872
O28   O     O_3   0.837160 0.575268 0.017060 -0.700351
O29   O     O_3   0.308081 0.397070 0.177429 -0.578512
O30   O     O_3   0.968480 0.442564 0.764175 -0.545782
O31   O     O_3   0.126741 0.409416 0.615127 -0.711607
O32   O     O_3   0.077752 0.242767 0.591735 -0.705675
O33   O     O_3   0.115536 0.335310 0.135649 -0.721950
O34   O     O_R   0.146930 0.552150 0.094670 -0.537433
O35   O     O_3   0.841026 0.522647 0.500579 -0.567759
O36   O     O_3   0.517198 0.833922 0.478885 -0.729949
O37   O     O_R   0.952370 0.357620 0.914350 -0.534832
O38   O     O_R   0.056740 0.461970 0.914310 -0.465459
O39   O     O_R   0.860810 0.447810 0.912980 -0.491774
O40   O     O_R   0.965190 0.552160 0.912950 -0.508738
O41   O     O_R   0.053330 0.909870 0.463140 -0.544463

loop_
_geom_bond_atom_site_label_1
_geom_bond_atom_site_label_2
_ccdc_geom_bond_type
C87   O27   S    
C83   C87   A    
C55   C56   A    
C103  H19   S    
C75   C76   A    
C101  C102  A    
C82   C94   S    
C40   C47   A    
C71   O5    A    
C6    C7    S    
C9    O26   S    
C35   C36   A    
Cu3   O23   S    
C11   H71   S    
C108  H21   S    
C32   H46   S    
C9    H65   S    
C34   O13   A    
C19   O35   S    
C68   O39   A    
C97   C98   A    
Cu2   O4    S    
C7    C8    S    
C17   H85   S    
C53   C54   A    
C56   C57   A    
C48   C54   A    
Cu5   O8    S    
Cu6   O7    S    
C26   C27   A    
C10   H67   S    
C21   H98   S    
H3    O36   S    
C6    H59   S    
C1    O1    A    
H49   O22   S    
C28   O35   S    
C6    O25   S    
C28   C29   A    
C18   H87   S    
C84   C86   A    
C110  H29   S    
C38   C39   A    
C85   C96   A    
C75   H12   S    
C114  H39   S    
H91   O31   S    
H74   O28   S    
C117  H45   S    
C115  C116  S    
Cu5   O3    S    
C14   H78   S    
C2    C107  A    
C37   C42   A    
C94   H10   S    
C116  C117  S    
C13   C23   A    
C17   C18   S    
C42   C46   S    
C23   C26   A    
C106  O29   S    
C115  H41   S    
C34   O14   A    
Cu1   Cu2   S    
C5    H56   S    
C80   C86   A    
C14   C15   S    
C50   H7    S    
C61   H9    S    
Cu4   O38   S    
Cu3   O37   S    
C110  C111  S    
C16   H84   S    
C117  H47   S    
C3    H50   S    
C112  O20   S    
C94   C106  S    
Cu6   O9    S    
C31   C32   A    
C16   C17   S    
Cu4   O12   S    
C4    H52   S    
C62   C64   A    
C23   C24   A    
C30   C41   S    
C19   H94   S    
C115  H42   S    
C21   H100  S    
C9    C10   S    
C45   O20   S    
C41   C52   S    
C79   C80   A    
C67   O37   A    
C109  H27   S    
C13   C107  A    
Cu1   O15   S    
C101  C108  A    
C53   C55   A    
C52   C106  S    
H93   O33   S    
C22   O11   A    
C30   C106  S    
C33   H57   S    
C1    C25   S    
C20   H97   S    
C116  H43   S    
C26   H24   S    
C84   C90   A    
C9    H66   S    
C113  H37   S    
C78   H15   S    
C112  C113  S    
C97   C99   A    
C15   H81   S    
C69   O41   A    
C54   C59   A    
C45   C47   A    
C8    H64   S    
C76   H14   S    
C5    H55   S    
C105  C108  A    
C44   H2    S    
C72   O6    A    
C16   H83   S    
Cu1   O1    S    
C31   O21   S    
C65   C86   S    
C24   C25   A    
C110  H28   S    
C112  H34   S    
C89   C90   A    
C91   C92   A    
C79   C81   A    
C51   H8    S    
C93   O31   S    
C58   C70   S    
C114  H38   S    
C39   C43   A    
Cu6   O5    S    
C91   O30   S    
C8    H63   S    
C77   C78   A    
C49   H6    S    
C100  C103  A    
C10   H69   S    
C31   C37   A    
C60   C61   A    
C51   C53   A    
C55   C73   S    
C30   C82   S    
C87   C88   A    
C18   H89   S    
C43   C44   A    
C88   H16   S    
C48   O22   S    
Cu1   O13   S    
C66   C82   S    
C22   O10   A    
C16   O30   S    
C117  H48   S    
C3    H51   S    
C99   C100  A    
C64   O25   S    
C109  H26   S    
C20   C21   S    
H92   O32   S    
C50   C51   A    
C104  H20   S    
C65   O17   A    
C19   H95   S    
C74   O36   S    
C46   O16   A    
C113  H36   S    
C92   H18   S    
C111  H30   S    
C5    H54   S    
C15   H82   S    
C52   C58   S    
Cu3   O17   S    
C7    H61   S    
C48   C49   A    
C92   C93   A    
C96   C107  A    
C38   C68   S    
Cu3   O39   S    
C112  H33   S    
H25   O18   S    
C71   O3    A    
C30   O33   S    
C21   H99   S    
C83   C84   A    
C57   C59   A    
C77   O26   S    
C3    C4    S    
C43   H90   S    
C27   O19   S    
C95   O32   S    
C73   O8    A    
C44   C45   A    
C57   C64   A    
C22   C52   S    
C113  C114  S    
C66   O23   A    
C3    O24   S    
Cu5   O6    S    
C2    C63   A    
C36   C37   A    
C35   H68   S    
C89   H11   S    
C63   H23   S    
C116  H44   S    
C78   C79   A    
C65   O12   A    
C6    H58   S    
Cu2   O14   S    
C11   H70   S    
C11   H72   S    
C12   C14   S    
C4    C5    S    
C91   C98   A    
C69   O2    A    
C104  C105  A    
C81   C83   A    
C15   H80   S    
C95   C97   A    
C47   H4    S    
C29   H35   S    
Cu6   O2    S    
C63   C74   A    
C8    H62   S    
C72   O7    A    
C13   C71   S    
C90   O28   S    
C66   O34   A    
C17   H86   S    
C12   O29   S    
C7    H60   S    
C73   O9    A    
Cu2   O11   S    
C32   C33   A    
C19   C20   S    
C36   C38   A    
C1    O4    A    
C58   C94   S    
C18   H88   S    
C98   C102  A    
C109  C110  S    
Cu4   O40   S    
C105  H17   S    
C62   H5    S    
C76   C77   A    
Cu1   O10   S    
Cu5   O41   S    
C114  H40   S    
C34   C59   S    
Cu2   O16   S    
C14   H77   S    
C109  O19   S    
C40   C42   A    
C100  C101  A    
C33   C35   A    
C12   H76   S    
C56   C60   A    
C67   O38   A    
C2    C25   A    
C46   O15   A    
C74   C85   A    
C61   C62   A    
C70   C82   S    
C111  H31   S    
C96   O18   S    
C69   C81   S    
C10   C11   S    
C85   H13   S    
C115  O21   S    
C39   C40   A    
C70   H1    S    
C24   C29   A    
C75   C80   A    
C41   H22   S    
C88   C89   A    
C58   H79   S    
C60   O24   S    
C93   C95   A    
C49   C50   A    
C4    H53   S    
H73   O27   S    
C103  C104  A    
C12   H75   S    
Cu3   Cu4   S    
Cu5   Cu6   S    
C20   H96   S    
C111  H32   S    
C68   O40   A    
C67   C102  S    
Cu4   O34   S    
C41   C70   S    
C27   C28   A    
C72   C99   S    
