data_mof_unit_60447.cif
_audit_creation_date              2012-12-10T18:38:58-0500
_audit_creation_method            fapswitch 2.2
_symmetry_space_group_name_H-M    P1
_symmetry_Int_Tables_number       1
_space_group_crystal_system       triclinic
_cell_length_a                    10.662949
_cell_length_b                    11.570075
_cell_length_c                    10.786852
_cell_angle_alpha                 89.998721
_cell_angle_beta                  89.999841
_cell_angle_gamma                 89.999479
_cell_volume                      1330.78600836

loop_
_atom_site_label
_atom_site_type_symbol
_atom_type_description
_atom_site_fract_x
_atom_site_fract_y
_atom_site_fract_z
_atom_type_partial_charge
C1    C     C_R   0.500000 0.281201 0.499997 0.950349
C2    C     C_3   0.120965 0.499956 0.500792 -0.012849
C3    C     C_3   0.879035 0.499956 0.500792 -0.012831
C4    C     C_1   0.499999 0.838927 0.499976 -0.157171
C5    C     C_1   0.499999 0.940834 0.499959 0.014211
C6    C     C_R   0.257041 0.499961 0.500226 0.989133
C7    C     C_R   0.742958 0.499964 0.500226 0.989166
C8    C     C_1   0.500000 0.500011 0.069784 0.029935
C9    C     C_1   0.500000 0.500011 0.930216 0.038152
C10   C     C_R   0.500000 0.718799 0.499995 0.950360
C11   C     C_1   0.500000 0.161073 0.499980 -0.157128
C12   C     C_3   0.072663 0.390062 0.432552 0.159430
C13   C     C_3   0.072656 0.609866 0.432583 0.159572
C14   C     C_3   0.927344 0.390109 0.432474 0.159554
C15   C     C_3   0.927338 0.609907 0.432665 0.159448
C16   C     C_1   0.500000 0.059166 0.499961 0.014227
C17   C     C_3   0.071151 0.499937 0.636401 -0.336560
C18   C     C_3   0.928847 0.499847 0.636399 -0.336558
H1    H     H_    0.105632 0.393177 0.334238 0.048058
H2    H     H_    0.105513 0.606696 0.334232 0.047961
H3    H     H_    0.894488 0.393365 0.334134 0.048018
H4    H     H_    0.894370 0.606876 0.334352 0.048042
H5    H     H_    0.105487 0.422455 0.687412 0.218015
H6    H     H_    0.105375 0.577482 0.687374 0.218115
H7    H     H_    0.894615 0.422258 0.687290 0.218099
H8    H     H_    0.894516 0.577285 0.687488 0.218038
N1    N     N_1   0.500000 0.500010 0.180630 -0.085674
N2    N     N_1   0.500000 0.500010 0.819370 -0.083708
O1    O     O_R   0.500000 0.334450 0.602530 -0.603288
O2    O     O_R   0.500000 0.334450 0.397470 -0.616553
O3    O     O_R   0.314800 0.499980 0.602530 -0.620022
O4    O     O_R   0.314800 0.499980 0.397470 -0.645454
O5    O     O_R   0.685200 0.499980 0.602530 -0.620026
O6    O     O_R   0.685200 0.499980 0.397470 -0.645450
O7    O     O_R   0.500000 0.665550 0.602530 -0.603245
O8    O     O_R   0.500000 0.665550 0.397470 -0.616591
Zn1   Zn    Zn3+2 0.500000 0.500000 0.636920 1.008191
Zn2   Zn    Zn3+2 0.500000 0.500000 0.363080 0.980098
O9    O     O_3   0.120746 0.290011 0.489878 -0.717581
H9    H     H_    0.119013 0.227506 0.426836 0.339354
O10   O     O_3   0.120872 0.709910 0.489810 -0.717608
H10   H     H_    0.119095 0.772396 0.426744 0.339290
O11   O     O_3   0.879124 0.290026 0.489602 -0.717656
H11   H     H_    0.880949 0.227581 0.426493 0.339314
O12   O     O_3   0.879252 0.709901 0.490084 -0.717567
H12   H     H_    0.881012 0.772469 0.427117 0.339388

loop_
_geom_bond_atom_site_label_1
_geom_bond_atom_site_label_2
_ccdc_geom_bond_type
C8    C9    S    
C6    O4    A    
O11   H11   S    
C10   O7    A    
O4    Zn2   S    
C11   C16   T    
C18   H8    S    
C2    C12   S    
C12   O9    S    
C1    O1    A    
C6    O3    A    
C2    C6    S    
O12   H12   S    
C2    C17   S    
C7    O5    A    
O2    Zn2   S    
C17   H5    S    
C3    C14   S    
N2    Zn1   S    
C14   H3    S    
C13   O10   S    
C1    O2    A    
O7    Zn1   S    
C12   C14   S    
C17   C18   S    
C3    C7    S    
C13   C15   S    
C18   H7    S    
C17   H6    S    
C15   O12   S    
N1    Zn2   S    
C4    C10   S    
O8    Zn2   S    
C3    C15   S    
C7    O6    A    
C12   H1    S    
C3    C18   S    
O10   H10   S    
O1    Zn1   S    
O9    H9    S    
C8    N1    T    
C2    C13   S    
C14   O11   S    
C5    C16   S    
C10   O8    A    
C13   H2    S    
O6    Zn2   S    
C15   H4    S    
O5    Zn1   S    
O3    Zn1   S    
C9    N2    T    
C4    C5    T    
C1    C11   S    
