data_mof_unit_46940.cif
_audit_creation_date              2012-10-26T18:27:28-0400
_audit_creation_method            fapswitch 2.2
_symmetry_space_group_name_H-M    P1
_symmetry_Int_Tables_number       1
_space_group_crystal_system       triclinic
_cell_length_a                    10.842554
_cell_length_b                    10.998534
_cell_length_c                    9.827652
_cell_angle_alpha                 111.142761
_cell_angle_beta                  98.856637
_cell_angle_gamma                 88.888798
_cell_volume                      1079.21359161

loop_
_atom_site_label
_atom_site_type_symbol
_atom_type_description
_atom_site_fract_x
_atom_site_fract_y
_atom_site_fract_z
_atom_type_partial_charge
C1    C     C_R   0.493473 0.253972 0.440846 0.563044
C2    C     C_2   0.528715 0.929230 0.482453 -0.167863
C3    C     C_2   0.509781 0.509836 0.081614 -0.025694
C4    C     C_R   0.262423 0.510684 0.503038 0.534337
C5    C     C_2   0.489789 0.490681 0.918567 -0.023528
C6    C     C_R   0.521921 0.744590 0.558445 0.527157
C7    C     C_R   0.737263 0.499903 0.499387 0.538714
C8    C     C_R   0.126016 0.766573 0.650631 0.022190
C9    C     C_R   0.067983 0.867877 0.750196 -0.098881
C10   C     C_R   0.947302 0.850791 0.770654 -0.142322
C11   C     C_R   0.881350 0.734502 0.688078 -0.114940
C12   C     C_R   0.068164 0.638263 0.585517 0.034837
C13   C     C_R   0.939537 0.627147 0.594139 0.016685
C14   C     C_3   0.234385 0.807308 0.597203 -0.274652
C15   C     C_3   0.200229 0.797481 0.436517 -0.412779
C16   C     C_R   0.127505 0.522459 0.503861 -0.003852
C17   C     C_R   0.055422 0.409375 0.416392 -0.152382
C18   C     C_R   0.927746 0.405207 0.412290 -0.155175
C19   C     C_R   0.870314 0.511361 0.502596 0.005111
C20   C     C_2   0.496674 0.114379 0.407456 -0.134999
C21   C     C_2   0.529043 0.068753 0.515716 -0.163954
C22   C     C_2   0.536627 0.883666 0.591656 -0.144386
Cu1   Cu    Cu3+1 0.521920 0.521810 0.644910 0.920477
Cu2   Cu    Cu3+1 0.478080 0.478190 0.355090 0.921933
H1    H     H_    0.098753 0.322766 0.350842 0.123775
H2    H     H_    0.873975 0.316668 0.342584 0.120154
H3    H     H_    0.514748 0.863508 0.367500 0.152124
H4    H     H_    0.551955 0.134434 0.630203 0.157601
H5    H     H_    0.549801 0.949657 0.706399 0.100854
H6    H     H_    0.173708 0.695679 0.361844 0.169978
H7    H     H_    0.120890 0.860604 0.425975 0.146998
H8    H     H_    0.280879 0.830801 0.400376 0.155535
H9    H     H_    0.267761 0.909441 0.664834 0.126986
H10   H     H_    0.310914 0.746953 0.612439 0.189391
H11   H     H_    0.473575 0.048351 0.293210 0.099748
H12   H     H_    0.417695 0.420392 0.845113 0.152098
H13   H     H_    0.581340 0.580721 0.155245 0.150089
H14   H     H_    0.623397 0.619989 0.934632 0.201665
H15   H     H_    0.377680 0.378817 0.065044 0.201605
H16   H     H_    0.112872 0.964074 0.804763 0.105636
H17   H     H_    0.901623 0.931223 0.843166 0.111247
H18   H     H_    0.784049 0.731885 0.698400 0.147604
N1    N     N_2   0.445130 0.445430 0.137370 -0.352271
N2    N     N_2   0.554930 0.554500 0.862630 -0.351675
O1    O     O_R   0.511700 0.332330 0.577400 -0.492096
O2    O     O_R   0.474680 0.295500 0.332650 -0.489269
O3    O     O_R   0.338160 0.518420 0.622400 -0.494883
O4    O     O_R   0.301140 0.481590 0.377650 -0.494484
O5    O     O_R   0.525320 0.704500 0.667350 -0.512982
O6    O     O_R   0.488300 0.667670 0.422600 -0.497076
O7    O     O_R   0.698860 0.518410 0.622350 -0.500906
O8    O     O_R   0.661840 0.481580 0.377600 -0.496527

loop_
_geom_bond_atom_site_label_1
_geom_bond_atom_site_label_2
_ccdc_geom_bond_type
C14   H10   S    
H15   N1    S    
Cu1   Cu2   S    
H14   N2    S    
C2    H3    S    
Cu1   O1    S    
C22   H5    S    
C9    C10   A    
Cu1   O7    S    
C18   H2    S    
C8    C12   A    
C17   H1    S    
C2    C21   S    
C17   C18   A    
C7    O7    A    
C15   H8    S    
C2    C22   D    
C12   C13   A    
C10   H17   S    
C15   H7    S    
C11   C13   A    
C1    O1    A    
C16   C17   A    
C14   H9    S    
C3    N1    D    
C4    C16   S    
C21   H4    S    
C7    O8    A    
C7    C19   S    
Cu2   O8    S    
C6    O5    A    
Cu2   O6    S    
C1    O2    A    
Cu1   O5    S    
Cu1   O3    S    
C10   C11   A    
C13   C19   A    
C6    C22   S    
C5    H12   S    
C20   C21   D    
C3    H13   S    
C15   H6    S    
C18   C19   A    
C4    O4    A    
Cu2   N1    S    
C14   C15   S    
C8    C9    A    
C1    C20   S    
C8    C14   S    
C11   H18   S    
C20   H11   S    
C5    N2    D    
C9    H16   S    
C6    O6    A    
Cu1   N2    S    
C12   C16   A    
Cu2   O2    S    
C3    C5    S    
C4    O3    A    
Cu2   O4    S    
