data_mof_unit_66163.cif
_audit_creation_date              2012-12-10T21:38:07-0500
_audit_creation_method            fapswitch 2.2
_symmetry_space_group_name_H-M    P1
_symmetry_Int_Tables_number       1
_space_group_crystal_system       triclinic
_cell_length_a                    16.104287
_cell_length_b                    16.758817
_cell_length_c                    16.693839
_cell_angle_alpha                 90.467211
_cell_angle_beta                  92.501398
_cell_angle_gamma                 88.637988
_cell_volume                      4499.80116957

loop_
_atom_site_label
_atom_site_type_symbol
_atom_type_description
_atom_site_fract_x
_atom_site_fract_y
_atom_site_fract_z
_atom_type_partial_charge
C1    C     C_R   0.509862 0.347397 0.495328 0.933746
C2    C     C_R   0.490193 0.652663 0.505167 0.924906
C3    C     C_R   0.512750 0.262369 0.481664 -0.152884
C4    C     C_R   0.487061 0.737629 0.520561 -0.156674
C5    C     C_R   0.458563 0.227654 0.423271 0.024803
C6    C     C_R   0.544893 0.772646 0.575562 0.028020
C7    C     C_R   0.452325 0.144753 0.419961 0.499154
C8    C     C_R   0.547034 0.855656 0.582124 0.498395
C9    C     C_R   0.502559 0.097627 0.472156 0.175468
C10   C     C_R   0.489522 0.902421 0.536983 0.180146
C11   C     C_R   0.561283 0.132834 0.525502 -0.231747
C12   C     C_R   0.428083 0.866799 0.487224 -0.230028
C13   C     C_R   0.565892 0.215060 0.530457 -0.269263
C14   C     C_R   0.427194 0.784583 0.478858 -0.266028
C15   C     C_R   0.234508 0.541159 0.464145 -0.118648
C16   C     C_R   0.765648 0.460303 0.537310 -0.112364
C17   C     C_R   0.147460 0.538706 0.465850 -0.268595
C18   C     C_R   0.852662 0.462996 0.535588 -0.268180
C19   C     C_R   0.110105 0.483399 0.515574 0.277849
C20   C     C_R   0.889833 0.517043 0.484373 0.278945
C21   C     C_R   0.162399 0.431998 0.561635 -0.403944
C22   C     C_R   0.837363 0.567019 0.436872 -0.405198
C23   C     C_R   0.511342 0.504120 0.652903 0.868058
C24   C     C_R   0.488232 0.500942 0.346907 0.884892
C25   C     C_R   0.249703 0.434750 0.556868 0.675310
C26   C     C_R   0.750026 0.564017 0.441559 0.676338
C27   C     C_R   0.516499 0.530711 0.736002 -0.026019
C28   C     C_R   0.480017 0.514579 0.260995 -0.030103
C29   C     C_R   0.448691 0.573586 0.766209 -0.173883
C30   C     C_R   0.551306 0.512996 0.215922 -0.168048
C31   C     C_R   0.454363 0.606495 0.842453 -0.142323
C32   C     C_R   0.546331 0.537275 0.136809 -0.145162
C33   C     C_R   0.527163 0.594978 0.890314 0.201328
C34   C     C_R   0.469957 0.564389 0.101918 0.198685
C35   C     C_R   0.596532 0.555874 0.858946 -0.140151
C36   C     C_R   0.398008 0.562658 0.145844 -0.169215
C37   C     C_R   0.591308 0.523824 0.781770 -0.168015
C38   C     C_R   0.402924 0.538029 0.225233 -0.180189
C39   C     C_2   0.527022 0.609563 0.976561 -0.231863
C40   C     C_2   0.462189 0.585645 0.017179 -0.225260
H1    H     H_    0.391521 0.582792 0.730491 0.162782
H2    H     H_    0.611245 0.494095 0.242102 0.171292
H3    H     H_    0.737408 0.418552 0.576384 0.154739
H4    H     H_    0.262892 0.583885 0.426231 0.153550
H5    H     H_    0.890005 0.422921 0.573675 0.167945
H6    H     H_    0.110242 0.579965 0.428973 0.167531
H7    H     H_    0.135186 0.390257 0.601496 0.161614
H8    H     H_    0.864495 0.607673 0.395864 0.160157
H9    H     H_    0.347072 0.539758 0.259148 0.159028
H10   H     H_    0.644994 0.493003 0.758254 0.150422
H11   H     H_    0.403929 0.571108 0.985733 0.154602
H12   H     H_    0.585575 0.623651 0.007534 0.153910
H13   H     H_    0.653077 0.546540 0.895589 0.127935
H14   H     H_    0.338269 0.581140 0.118897 0.133166
H15   H     H_    0.602158 0.533180 0.103136 0.129435
H16   H     H_    0.400890 0.638357 0.865122 0.134766
H17   H     H_    0.601802 0.096592 0.564686 0.184666
H18   H     H_    0.382710 0.902972 0.453155 0.178887
H19   H     H_    0.608517 0.241785 0.574375 0.168705
H20   H     H_    0.381687 0.757765 0.437849 0.170810
N1    N     N_2   0.491837 0.014749 0.470829 -0.160729
N2    N     N_2   0.497913 0.985479 0.539097 -0.162401
N3    N     N_R   0.283770 0.490310 0.509640 -0.122661
N4    N     N_R   0.716230 0.509690 0.490360 -0.120774
N5    N     N_2   0.021785 0.477178 0.521874 -0.165189
N6    N     N_2   0.978150 0.523367 0.478042 -0.165310
O1    O     O_R   0.577220 0.387330 0.496550 -0.628107
O2    O     O_R   0.422780 0.612670 0.503450 -0.634949
O3    O     O_R   0.438350 0.381110 0.502740 -0.565978
O4    O     O_R   0.561650 0.618890 0.497260 -0.565493
O5    O     O_R   0.577640 0.503470 0.612340 -0.616189
O6    O     O_R   0.422360 0.496530 0.387660 -0.618695
O7    O     O_R   0.438770 0.497250 0.618530 -0.581744
O8    O     O_R   0.561230 0.502750 0.381470 -0.581284
Zn1   Zn    Zn3+2 0.592720 0.504150 0.495870 1.001766
Zn2   Zn    Zn3+2 0.407280 0.495850 0.504130 0.996318
O9    O     O_3   0.301978 0.385679 0.603617 -0.581841
C41   C     C_3   0.288143 0.304999 0.583241 -0.302736
H21   H     H_    0.285156 0.294827 0.517111 0.165822
H22   H     H_    0.230946 0.283689 0.610224 0.150986
H23   H     H_    0.341155 0.268259 0.608303 0.196840
O10   O     O_3   0.697368 0.611225 0.393187 -0.587143
C42   C     C_3   0.712077 0.692699 0.408866 -0.306750
H24   H     H_    0.767992 0.712248 0.378423 0.151984
H25   H     H_    0.717863 0.706244 0.474323 0.168938
H26   H     H_    0.658178 0.728365 0.383999 0.197319
I1    I     I_    0.628159 0.704216 0.652500 -0.337231
I2    I     I_    0.387089 0.297217 0.337349 -0.334719
O11   O     O_3   0.604892 0.891513 0.633501 -0.573622
C43   C     C_3   0.676261 0.907034 0.590512 -0.279329
H27   H     H_    0.723330 0.934183 0.632158 0.198283
H28   H     H_    0.662181 0.950190 0.541226 0.154178
H29   H     H_    0.704410 0.851181 0.565991 0.161486
O12   O     O_3   0.397994 0.109398 0.364716 -0.571570
C44   C     C_3   0.321701 0.098346 0.401170 -0.277810
H30   H     H_    0.328924 0.056369 0.452412 0.150894
H31   H     H_    0.277450 0.071816 0.356276 0.199290
H32   H     H_    0.293814 0.156080 0.421415 0.159950

loop_
_geom_bond_atom_site_label_1
_geom_bond_atom_site_label_2
_ccdc_geom_bond_type
C22   H8    S    
C35   H13   S    
C44   H30   S    
O6    Zn2   S    
C44   H32   S    
C38   H9    S    
O9    C41   S    
C33   C39   S    
C9    N1    S    
C20   N6    S    
C35   C37   A    
C15   H4    S    
C2    O2    A    
C33   C35   A    
C41   H22   S    
C27   C29   A    
N3    Zn2   S    
O3    Zn2   S    
C7    C9    A    
C25   N3    A    
C26   N4    A    
C1    O1    A    
C5    I2    S    
C31   C33   A    
C23   C27   S    
C31   H16   S    
C32   H15   S    
C18   C20   A    
C3    C13   A    
C12   H18   S    
C39   H12   S    
C26   O10   S    
C10   N2    S    
C23   O7    A    
O5    Zn1   S    
O8    Zn1   S    
C23   O5    A    
C17   H6    S    
C4    C6    A    
C39   C40   D    
C5    C7    A    
C41   H21   S    
C6    C8    A    
C1    O3    A    
C6    I1    S    
C1    C3    S    
C32   C34   A    
C2    C4    S    
C19   C21   A    
C43   H28   S    
C42   H24   S    
C28   C38   A    
O12   C44   S    
C9    C11   A    
C16   H3    S    
C10   C12   A    
C16   C18   A    
C42   H25   S    
C20   C22   A    
O10   C42   S    
O7    Zn2   S    
C25   O9    S    
O1    Zn1   S    
C18   H5    S    
C24   O6    A    
C43   H29   S    
C15   C17   A    
C7    O12   S    
C21   C25   A    
C29   H1    S    
C30   H2    S    
C24   C28   S    
C12   C14   A    
C3    C5    A    
C44   H31   S    
C13   H19   S    
O2    Zn2   S    
C40   H11   S    
C14   H20   S    
C28   C30   A    
C29   C31   A    
C2    O4    A    
C30   C32   A    
C37   H10   S    
C11   C13   A    
C41   H23   S    
C24   O8    A    
C43   H27   S    
C27   C37   A    
C36   C38   A    
C17   C19   A    
N4    Zn1   S    
C19   N5    S    
C34   C36   A    
C4    C14   A    
N1    N2    D    
C36   H14   S    
C42   H26   S    
C8    C10   A    
N5    N6    D    
C22   C26   A    
O4    Zn1   S    
C15   N3    A    
C34   C40   S    
C8    O11   S    
C16   N4    A    
O11   C43   S    
C11   H17   S    
C21   H7    S    
