data_mof_unit_14813.cif
_audit_creation_date              2012-12-10T20:27:10-0500
_audit_creation_method            fapswitch 2.2
_symmetry_space_group_name_H-M    P1
_symmetry_Int_Tables_number       1
_space_group_crystal_system       triclinic
_cell_length_a                    10.78463
_cell_length_b                    10.679021
_cell_length_c                    9.892165
_cell_angle_alpha                 90.257241
_cell_angle_beta                  104.163361
_cell_angle_gamma                 90.508955
_cell_volume                      1104.57233715

loop_
_atom_site_label
_atom_site_type_symbol
_atom_type_description
_atom_site_fract_x
_atom_site_fract_y
_atom_site_fract_z
_atom_type_partial_charge
C1    C     C_R   0.503533 0.260035 0.500810 0.885291
C2    C     C_R   0.523274 0.128732 0.506753 -0.111205
C3    C     C_R   0.550724 0.064694 0.393645 -0.223591
C4    C     C_R   0.551455 0.935163 0.394122 -0.221294
C5    C     C_R   0.524525 0.871551 0.507627 -0.109352
C6    C     C_R   0.521196 0.936803 0.628703 0.161808
C7    C     C_3   0.427285 0.928835 0.717331 -0.456844
C8    C     C_3   0.426306 0.070741 0.716600 -0.506360
C9    C     C_R   0.440277 0.405930 0.054724 0.190991
C10   C     C_R   0.567927 0.586480 0.091799 -0.134381
C11   C     C_R   0.569824 0.586523 0.949239 0.432694
C12   C     C_R   0.258995 0.504083 0.441701 0.943917
C13   C     C_R   0.439768 0.406197 0.912270 0.147277
C14   C     C_3   0.300844 0.373386 0.870488 -0.486208
C15   C     C_3   0.301877 0.372107 0.024222 -0.489590
C16   C     C_R   0.504201 0.739970 0.501311 0.875340
C17   C     C_R   0.741155 0.504326 0.558272 0.939050
C18   C     C_2   0.122302 0.519399 0.408525 -0.373439
C19   C     C_2   0.068375 0.550718 0.511299 -0.155817
C20   C     C_2   0.878143 0.521107 0.590954 -0.370042
C21   C     C_2   0.932125 0.548504 0.486916 -0.146051
C22   C     C_R   0.520463 0.064533 0.628201 0.142122
H1    H     H_    0.876240 0.559102 0.380015 0.189652
H2    H     H_    0.468687 0.113118 0.820702 0.211133
H3    H     H_    0.621331 0.657157 0.161628 0.165275
H4    H     H_    0.241884 0.449730 0.812551 0.209601
H5    H     H_    0.282869 0.279526 0.820390 0.200707
H6    H     H_    0.243041 0.447246 0.054546 0.215964
H7    H     H_    0.285986 0.277237 0.063016 0.201189
H8    H     H_    0.124372 0.567939 0.617161 0.178774
H9    H     H_    0.934557 0.509860 0.697429 0.153702
H10   H     H_    0.065881 0.502789 0.302669 0.153069
H11   H     H_    0.562982 0.113432 0.301901 0.174485
H12   H     H_    0.564157 0.885821 0.302601 0.174182
H13   H     H_    0.334453 0.885705 0.661685 0.199410
H14   H     H_    0.470375 0.889233 0.821825 0.236449
H15   H     H_    0.332944 0.110157 0.660199 0.201027
N1    N     N_R   0.499160 0.499140 0.142600 -0.141965
N2    N     N_R   0.499160 0.499180 0.856960 -0.162932
O1    O     O_R   0.500020 0.316790 0.614700 -0.610199
O2    O     O_R   0.500000 0.316760 0.385350 -0.617984
O3    O     O_R   0.317820 0.500020 0.571850 -0.615594
O4    O     O_R   0.317800 0.499980 0.342510 -0.611623
O5    O     O_R   0.500000 0.683240 0.614650 -0.623734
O6    O     O_R   0.499980 0.683210 0.385300 -0.625995
O7    O     O_R   0.682200 0.500020 0.657490 -0.641252
O8    O     O_R   0.682180 0.499980 0.428150 -0.615781
Zn1   Zn    Zn3+2 0.500010 0.500020 0.653140 0.939906
Zn2   Zn    Zn3+2 0.499990 0.499980 0.346860 0.937825
O9    O     O_3   0.642873 0.677880 0.907958 -0.792878
H16   H     H_    0.659226 0.651779 0.818781 0.383271

loop_
_geom_bond_atom_site_label_1
_geom_bond_atom_site_label_2
_ccdc_geom_bond_type
C16   O6    A    
C2    C22   A    
C1    O2    A    
C8    C22   S    
C17   O7    A    
C6    C7    S    
C14   H5    S    
C7    H14   S    
C16   O5    A    
O6    Zn2   S    
C10   N1    A    
C2    C3    A    
C9    C15   S    
C7    C8    S    
O8    Zn2   S    
C11   O9    S    
O3    Zn1   S    
C13   C14   S    
C14   H4    S    
C11   N2    A    
C15   H6    S    
C10   H3    S    
O2    Zn2   S    
C9    N1    A    
C8    H2    S    
C15   H7    S    
C12   O4    A    
O7    Zn1   S    
C21   H1    S    
C5    C6    A    
C4    H12   S    
C13   N2    A    
C18   H10   S    
C10   C11   A    
C3    H11   S    
C3    C4    A    
C6    C22   A    
O5    Zn1   S    
C17   C20   S    
N1    Zn2   S    
C20   C21   D    
C1    C2    S    
C8    H15   S    
C12   C18   S    
O1    Zn1   S    
C9    C13   A    
C14   C15   S    
C18   C19   D    
C5    C16   S    
C12   O3    A    
O9    H16   S    
C1    O1    A    
C19   C21   S    
C19   H8    S    
C7    H13   S    
O4    Zn2   S    
C17   O8    A    
C4    C5    A    
N2    Zn1   S    
C20   H9    S    
