data_mof_unit_20637.cif
_audit_creation_date              2012-10-26T20:06:31-0400
_audit_creation_method            fapswitch 2.2
_symmetry_space_group_name_H-M    P1
_symmetry_Int_Tables_number       1
_space_group_crystal_system       triclinic
_cell_length_a                    10.863
_cell_length_b                    9.688302
_cell_length_c                    14.286988
_cell_angle_alpha                 90.872294
_cell_angle_beta                  92.98648
_cell_angle_gamma                 90.518156
_cell_volume                      1501.33111595

loop_
_atom_site_label
_atom_site_type_symbol
_atom_type_description
_atom_site_fract_x
_atom_site_fract_y
_atom_site_fract_z
_atom_type_partial_charge
C1    C     C_R   0.262981 0.499311 0.506830 0.563185
C2    C     C_1   0.499195 0.500247 0.957200 -0.034361
C3    C     C_R   0.061484 0.372883 0.500164 0.228416
C4    C     C_R   0.938515 0.627117 0.499836 0.228416
C5    C     C_R   0.935373 0.377415 0.475653 0.153534
C6    C     C_R   0.064627 0.622585 0.524347 0.153534
C7    C     C_R   0.871662 0.502579 0.485778 -0.029357
C8    C     C_R   0.128338 0.497421 0.514222 -0.029357
C9    C     C_R   0.445210 0.071174 0.426660 0.082492
C10   C     C_R   0.554789 0.928826 0.573339 0.082492
C11   C     C_R   0.558627 0.076379 0.571698 0.079502
C12   C     C_R   0.737019 0.500689 0.493170 0.563185
C13   C     C_R   0.441373 0.923621 0.428302 0.079502
C14   C     C_R   0.399395 0.136615 0.338708 0.073718
C15   C     C_R   0.274520 0.169215 0.324021 -0.068766
C16   C     C_R   0.228258 0.211519 0.236062 -0.116392
C17   C     C_R   0.305521 0.216437 0.161008 -0.104481
C18   C     C_R   0.429190 0.179483 0.174002 -0.116107
C19   C     C_R   0.476397 0.140912 0.262562 -0.089845
C20   C     C_R   0.600605 0.863385 0.661292 0.073718
C21   C     C_R   0.725479 0.830785 0.675979 -0.068766
C22   C     C_R   0.771742 0.788480 0.763938 -0.116392
C23   C     C_R   0.500355 0.499249 0.331466 0.538501
C24   C     C_R   0.694479 0.783563 0.838992 -0.104481
C25   C     C_R   0.570810 0.820517 0.825998 -0.116107
C26   C     C_R   0.523602 0.859088 0.737438 -0.089845
C27   C     C_R   0.637859 0.148689 0.645143 0.074066
C28   C     C_R   0.763816 0.166379 0.631298 -0.072974
C29   C     C_R   0.843604 0.219391 0.703167 -0.118244
C30   C     C_R   0.799123 0.249220 0.791111 -0.110933
C31   C     C_R   0.675192 0.224705 0.807356 -0.112435
C32   C     C_R   0.594758 0.174337 0.734884 -0.072689
C33   C     C_R   0.362141 0.851311 0.354857 0.074066
C34   C     C_R   0.499645 0.500751 0.668533 0.538501
C35   C     C_R   0.405242 0.825663 0.265116 -0.072689
C36   C     C_R   0.324808 0.775295 0.192644 -0.112435
C37   C     C_R   0.200877 0.750780 0.208889 -0.110933
C38   C     C_R   0.156397 0.780608 0.296833 -0.118245
C39   C     C_R   0.236184 0.833621 0.368702 -0.072974
C40   C     C_1   0.501978 0.498402 0.229134 -0.027171
C41   C     C_1   0.498022 0.501598 0.770865 -0.027171
C42   C     C_1   0.502215 0.499097 0.143574 -0.057877
C43   C     C_1   0.497785 0.500903 0.856425 -0.057877
C44   C     C_1   0.500805 0.499753 0.042800 -0.034361
Cu1   Cu    Cu3+1 0.500000 0.640660 0.500000 0.974431
Cu2   Cu    Cu3+1 0.500000 0.359340 0.500000 0.974431
H1    H     H_    0.059508 0.171816 0.511634 0.356563
H2    H     H_    0.787945 0.845325 0.621071 0.171122
H3    H     H_    0.868294 0.763374 0.774539 0.118235
H4    H     H_    0.730683 0.752679 0.907433 0.111766
H5    H     H_    0.511377 0.818764 0.884470 0.109443
H6    H     H_    0.427997 0.889315 0.728527 0.099182
H7    H     H_    0.800541 0.134010 0.565882 0.172115
H8    H     H_    0.940411 0.234145 0.691307 0.128246
H9    H     H_    0.861134 0.288711 0.847160 0.108958
H10   H     H_    0.641504 0.244251 0.876217 0.112933
H11   H     H_    0.499094 0.154806 0.748568 0.103717
H12   H     H_    0.940491 0.828184 0.488365 0.356563
H13   H     H_    0.500907 0.845194 0.251432 0.103717
H14   H     H_    0.358497 0.755749 0.123783 0.112933
H15   H     H_    0.138867 0.711289 0.152839 0.108958
H16   H     H_    0.059590 0.765855 0.308692 0.128246
H17   H     H_    0.199459 0.865990 0.434118 0.172115
H18   H     H_    0.815266 0.289645 0.388760 0.335137
H19   H     H_    0.184734 0.710355 0.611240 0.335138
H20   H     H_    0.212055 0.154674 0.378929 0.171122
H21   H     H_    0.131705 0.236625 0.225461 0.118235
H22   H     H_    0.269317 0.247320 0.092567 0.111766
H23   H     H_    0.488623 0.181236 0.115530 0.109444
H24   H     H_    0.572003 0.110685 0.271473 0.099182
N1    N     N_R   0.500000 0.852070 0.500000 -0.234415
N2    N     N_R   0.500000 0.147930 0.500000 -0.234415
O1    O     O_R   0.319640 0.618740 0.499990 -0.493708
O2    O     O_3   0.879274 0.751693 0.487882 -0.698982
O3    O     O_3   0.879454 0.260467 0.436052 -0.732102
O4    O     O_3   0.120546 0.739533 0.563948 -0.732102
O5    O     O_R   0.680360 0.381260 0.500010 -0.493708
O6    O     O_R   0.680360 0.618740 0.500010 -0.433725
O7    O     O_R   0.319640 0.381260 0.499990 -0.433725
O8    O     O_R   0.500000 0.618810 0.376050 -0.483817
O9    O     O_R   0.500000 0.381190 0.623950 -0.483817
O10   O     O_R   0.500000 0.618810 0.623950 -0.486883
O11   O     O_R   0.500000 0.381190 0.376050 -0.486883
O12   O     O_3   0.120725 0.248307 0.512118 -0.698982

loop_
_geom_bond_atom_site_label_1
_geom_bond_atom_site_label_2
_ccdc_geom_bond_type
Cu1   N1    S    
C1    C8    S    
C23   O8    A    
Cu1   O10   S    
C9    N2    A    
Cu1   Cu2   S    
C33   C39   A    
H19   O4    S    
C23   O11   A    
Cu1   O1    S    
C36   C37   A    
C30   C31   A    
C29   H8    S    
C23   C40   S    
C35   H13   S    
C18   C19   A    
C9    C13   A    
Cu2   O7    S    
C35   C36   A    
C10   C20   S    
C16   C17   A    
C12   O6    A    
Cu1   O6    S    
C34   O9    A    
C31   H10   S    
C29   C30   A    
Cu2   N2    S    
C21   H2    S    
C10   N1    A    
C18   H23   S    
C40   C42   T    
C21   C22   A    
C41   C43   T    
C34   C41   S    
C42   C44   S    
C32   H11   S    
C4    C7    A    
C24   H4    S    
C7    C12   S    
C24   C25   A    
C4    C6    A    
C3    C8    A    
C2    C44   T    
C5    C7    A    
C11   N2    A    
C6    C8    A    
C13   N1    A    
C36   H14   S    
C25   C26   A    
C15   H20   S    
C5    O3    S    
C9    C14   S    
C25   H5    S    
C13   C33   S    
C37   C38   A    
C26   H6    S    
Cu2   O9    S    
C31   C32   A    
C11   C27   S    
C2    C43   S    
C12   O5    A    
C17   C18   A    
C16   H21   S    
H1    O12   S    
C22   H3    S    
C1    O7    A    
C22   C24   A    
C27   C28   A    
H12   O2    S    
C28   C29   A    
C17   H22   S    
C27   C32   A    
C4    O2    S    
C14   C19   A    
C3    C5    A    
Cu2   O5    S    
C37   H15   S    
C28   H7    S    
C6    O4    S    
C39   H17   S    
C30   H9    S    
C1    O1    A    
C38   C39   A    
C20   C26   A    
C33   C35   A    
H18   O3    S    
Cu1   O8    S    
C10   C11   A    
Cu2   O11   S    
C20   C21   A    
C3    O12   S    
C14   C15   A    
C19   H24   S    
C34   O10   A    
C15   C16   A    
C38   H16   S    
