data_mof_unit_12894.cif
_audit_creation_date              2013-03-05T15:50:14-0500
_audit_creation_method            fapswitch 2.2
_symmetry_space_group_name_H-M    P1
_symmetry_Int_Tables_number       1
_space_group_crystal_system       triclinic
_cell_length_a                    14.640283
_cell_length_b                    16.405508
_cell_length_c                    9.701605
_cell_angle_alpha                 89.738298
_cell_angle_beta                  89.525064
_cell_angle_gamma                 90.240487
_cell_volume                      2330.01864943

loop_
_atom_site_label
_atom_site_type_symbol
_atom_site_description
_atom_site_fract_x
_atom_site_fract_y
_atom_site_fract_z
_atom_type_partial_charge
O1    O     O_R   0.409820 0.909830 0.618810 -0.567367
O2    O     O_R   0.409820 0.090170 0.618810 -0.611760
O3    O     O_R   0.909820 0.409830 0.618810 -0.565815
O4    O     O_R   0.909820 0.590170 0.618810 -0.605135
O5    O     O_R   0.409840 0.909830 0.381240 -0.564260
O6    O     O_R   0.409840 0.090170 0.381240 -0.534045
O7    O     O_R   0.909840 0.409830 0.381240 -0.560434
O8    O     O_R   0.909840 0.590170 0.381240 -0.542352
C1    C     C_R   0.379215 0.882188 0.501203 0.778198
C2    C     C_R   0.382251 0.119582 0.499665 0.783587
C3    C     C_R   0.880918 0.381198 0.501565 0.805578
C4    C     C_R   0.880447 0.618605 0.500424 0.791191
Cu1   Cu    Cu3+1 0.499990 1.000000 0.640660 1.000466
Cu2   Cu    Cu3+1 0.999990 0.500000 0.640660 0.999315
Cu3   Cu    Cu3+1 0.500010 1.000000 0.359340 1.035547
Cu4   Cu    Cu3+1 0.000010 0.500000 0.359340 1.025503
O9    O     O_R   0.590170 0.090170 0.618760 -0.582991
O10   O     O_R   0.590170 0.909830 0.618760 -0.554774
O11   O     O_R   0.090170 0.590170 0.618760 -0.562713
O12   O     O_R   0.090170 0.409830 0.618760 -0.584411
O13   O     O_R   0.590190 0.090180 0.381190 -0.582840
O14   O     O_R   0.590190 0.909820 0.381190 -0.548705
O15   O     O_R   0.090190 0.590180 0.381190 -0.545428
O16   O     O_R   0.090190 0.409820 0.381190 -0.594995
C5    C     C_R   0.612385 0.123240 0.500194 0.896508
C6    C     C_R   0.611497 0.876094 0.500549 0.907288
C7    C     C_R   0.109854 0.624890 0.500503 0.908628
C8    C     C_R   0.113770 0.377429 0.500567 0.895780
C9    C     C_R   0.350287 0.227148 0.739631 -0.220530
C10   C     C_R   0.325810 0.783114 0.753190 -0.165838
C11   C     C_R   0.834438 0.722811 0.748344 -0.257103
C12   C     C_R   0.823559 0.287087 0.756938 -0.167427
H1    H     H_    0.421268 0.210229 0.736676 0.152201
H2    H     H_    0.397166 0.799369 0.756905 0.173641
H3    H     H_    0.905543 0.705964 0.750307 0.162498
H4    H     H_    0.894762 0.303179 0.763880 0.171772
C13   C     C_R   0.309775 0.238770 0.867793 -0.172938
C14   C     C_R   0.283956 0.761904 0.877569 -0.085940
C15   C     C_R   0.792836 0.743488 0.873395 -0.179062
C16   C     C_R   0.776922 0.271297 0.879180 -0.070046
H5    H     H_    0.348907 0.227744 0.959199 0.168942
H6    H     H_    0.322832 0.765428 0.971012 0.182692
H7    H     H_    0.831521 0.741419 0.967134 0.203084
H8    H     H_    0.813014 0.276114 0.974430 0.192482
C17   C     C_R   0.700408 0.763339 0.878293 0.566739
C18   C     C_R   0.684952 0.249451 0.879592 0.489707
C19   C     C_R   0.217672 0.258713 0.876693 0.519521
C20   C     C_R   0.192892 0.736730 0.883516 0.570005
C21   C     C_R   0.654243 0.776115 0.754609 -0.198085
C22   C     C_R   0.646059 0.226378 0.753695 -0.318118
C23   C     C_R   0.172360 0.283186 0.756187 -0.265080
C24   C     C_R   0.146916 0.725068 0.757469 -0.249575
H9    H     H_    0.584029 0.796093 0.759427 0.142764
H10   H     H_    0.577385 0.202797 0.754677 0.139994
H11   H     H_    0.102008 0.300852 0.763456 0.141536
H12   H     H_    0.076747 0.705641 0.755407 0.125676
C25   C     C_R   0.700502 0.767560 0.627930 0.073458
C26   C     C_R   0.696981 0.233595 0.629262 0.091701
C27   C     C_R   0.215379 0.276980 0.626753 0.096888
C28   C     C_R   0.193865 0.735760 0.630814 0.084566
C29   C     C_R   0.297226 0.232538 0.619486 0.064613
C30   C     C_R   0.276571 0.780038 0.629151 0.046243
C31   C     C_R   0.783742 0.724578 0.625255 0.066159
C32   C     C_R   0.778927 0.279127 0.630285 0.048119
C33   C     C_R   0.316371 0.188040 0.498033 -0.235116
C34   C     C_R   0.303516 0.820733 0.504984 -0.225690
C35   C     C_R   0.809201 0.683424 0.501699 -0.230644
C36   C     C_R   0.809680 0.316468 0.505625 -0.211994
C37   C     C_R   0.260882 0.201996 0.380953 0.355920
C38   C     C_R   0.247604 0.809588 0.387446 0.314902
C39   C     C_R   0.754808 0.697076 0.383308 0.349871
C40   C     C_R   0.761190 0.299408 0.384600 0.316257
H13   H     H_    0.658555 0.776524 0.287453 0.216717
H14   H     H_    0.684250 0.205800 0.282862 0.203265
H15   H     H_    0.164818 0.281649 0.286135 0.200303
H16   H     H_    0.151174 0.729915 0.289604 0.228129
C41   C     C_R   0.692389 0.761346 0.381909 -0.209158
C42   C     C_R   0.706269 0.229574 0.380564 -0.291989
C43   C     C_R   0.199600 0.266960 0.380553 -0.276232
C44   C     C_R   0.186019 0.744133 0.383997 -0.188832
C45   C     C_R   0.667428 0.800475 0.503737 -0.156566
C46   C     C_R   0.671114 0.196756 0.503514 -0.112055
C47   C     C_R   0.176131 0.306213 0.503327 -0.132830
C48   C     C_R   0.162547 0.702696 0.505148 -0.163147
H17   H     H_    0.361740 0.969522 0.129655 0.230444
H18   H     H_    0.858305 0.493754 0.131281 0.224845
C49   C     C_R   0.661416 0.038167 0.144896 0.348361
C50   C     C_R   0.165270 0.470035 0.141156 0.340599
C51   C     C_R   0.723902 0.087666 0.079516 -0.331732
C52   C     C_R   0.228596 0.423367 0.071233 -0.349576
H19   H     H_    0.778855 0.112871 0.139606 0.194671
H20   H     H_    0.282426 0.396066 0.130487 0.189227
C53   C     C_R   0.739836 0.072151 0.942027 0.359568
C54   C     C_R   0.239327 0.436470 0.930420 0.381754
C55   C     C_R   0.671305 0.034267 0.862964 0.311280
C56   C     C_R   0.171062 0.477273 0.858742 0.330199
C57   C     C_R   0.582018 0.016944 0.925220 -0.076454
C58   C     C_R   0.083502 0.493393 0.924383 -0.111251
C59   C     C_R   0.580203 0.017093 0.074638 0.050111
C60   C     C_R   0.082407 0.491580 0.073913 0.036699
N1    N     N_R   0.501200 1.000000 0.147910 -0.233837
N2    N     N_R   0.001200 0.500000 0.147910 -0.237969
C61   C     C_R   0.423790 0.984377 0.074512 -0.073192
C62   C     C_R   0.921816 0.498967 0.074560 -0.077633
C63   C     C_R   0.423284 0.983787 0.927289 0.487687
C64   C     C_R   0.921217 0.495289 0.926744 0.496776
N3    N     N_R   0.501270 0.000000 0.852040 -0.225405
N4    N     N_R   0.001270 0.500000 0.852040 -0.233245
N5    N     N_R   0.252950 0.142937 0.273743 0.150942
O17   O     O_R   0.307886 0.144322 0.167999 -0.416117
O18   O     O_R   0.180231 0.097389 0.270200 -0.371782
N6    N     N_R   0.244807 0.869299 0.279449 0.101577
O19   O     O_R   0.230106 0.847587 0.153018 -0.403673
O20   O     O_R   0.235542 0.945523 0.312083 -0.334309
N7    N     N_R   0.749734 0.638602 0.274929 0.126611
O21   O     O_R   0.798732 0.648021 0.163963 -0.454464
O22   O     O_R   0.679876 0.589513 0.272188 -0.360727
N8    N     N_R   0.750046 0.362024 0.282654 0.103895
O23   O     O_R   0.742071 0.344409 0.153559 -0.419873
O24   O     O_R   0.729657 0.435306 0.322455 -0.326945
O25   O     O_3   0.828647 0.078417 0.891113 -0.574247
C65   C     C_3   0.884587 0.017521 0.952653 0.143466
H21   H     H_    0.924765 0.987911 0.869264 0.167704
H22   H     H_    0.845320 0.966706 0.002489 0.181787
C66   C     C_3   0.951341 0.056790 0.054346 -0.466181
H23   H     H_    0.017289 0.065762 0.001450 0.198349
H24   H     H_    0.925768 0.116894 0.087507 0.242981
C67   C     C_3   0.969679 0.006117 0.182917 -0.769056
H25   H     H_    0.905434 0.981878 0.228306 0.295325
H26   H     H_    0.003290 0.044812 0.261356 0.284271
H27   H     H_    0.016945 0.955878 0.157261 0.273662
O26   O     O_3   0.318910 0.418402 0.856154 -0.555973
C68   C     C_3   0.400774 0.431872 0.928297 0.082959
H28   H     H_    0.458018 0.415541 0.858077 0.158538
H29   H     H_    0.405104 0.389589 0.015280 0.137043
C69   C     C_3   0.415667 0.520807 0.972443 -0.359093
H30   H     H_    0.433389 0.558597 0.880706 0.240009
H31   H     H_    0.353386 0.546846 0.020233 0.270860
C70   C     C_3   0.492309 0.525584 0.077504 -0.858218
H32   H     H_    0.471587 0.493978 0.174367 0.289298
H33   H     H_    0.506517 0.589293 0.103303 0.263582
H34   H     H_    0.556126 0.498707 0.035598 0.263684
N9    N     N_R   0.707778 0.992210 0.746464 0.177917
O27   O     O_R   0.742712 0.921499 0.772487 -0.390711
O28   O     O_R   0.748905 0.034498 0.650384 -0.304243
N10   N     N_R   0.209122 0.524118 0.747812 0.176522
O29   O     O_R   0.238215 0.486621 0.638201 -0.281880
O30   O     O_R   0.255475 0.588121 0.782761 -0.406684
O31   O     O_3   0.348148 0.952634 0.860476 -0.603477
C71   C     C_3   0.276663 0.009842 0.855803 0.081283
H35   H     H_    0.302402 0.073101 0.840945 0.155937
H36   H     H_    0.235967 0.006514 0.953032 0.187490
C72   C     C_3   0.215705 0.987769 0.733630 -0.295488
H37   H     H_    0.257067 0.988900 0.637384 0.248401
H38   H     H_    0.187924 0.925163 0.748451 0.216070
C73   C     C_3   0.136632 0.046458 0.715095 -0.910104
H39   H     H_    0.088754 0.040895 0.803168 0.240577
H40   H     H_    0.099165 0.030961 0.619582 0.285521
H41   H     H_    0.162048 0.109958 0.705929 0.254329
O32   O     O_3   0.844990 0.465151 0.860588 -0.593758
C74   C     C_3   0.770345 0.518436 0.871005 0.066219
H42   H     H_    0.790396 0.579721 0.834252 0.172119
H43   H     H_    0.744364 0.522257 0.978795 0.185063
C75   C     C_3   0.693783 0.485456 0.779787 -0.299610
H44   H     H_    0.722976 0.462390 0.681282 0.254030
H45   H     H_    0.659294 0.433651 0.833501 0.207503
C76   C     C_3   0.623636 0.550711 0.745639 -0.915407
H46   H     H_    0.600948 0.582212 0.840478 0.244612
H47   H     H_    0.563542 0.522190 0.695769 0.276822
H48   H     H_    0.653743 0.596070 0.673206 0.268253
O33   O     O_3   0.661603 0.786683 0.001671 -0.565241
C77   C     C_3   0.585262 0.737053 0.033887 0.002919
H49   H     H_    0.608162 0.690866 0.109033 0.220645
H50   H     H_    0.554971 0.703919 0.945059 0.099139
C78   C     C_3   0.510608 0.789693 0.097666 -0.356955
H51   H     H_    0.541571 0.837849 0.161897 0.280534
H52   H     H_    0.472210 0.820095 0.013955 0.203863
C79   C     C_3   0.445344 0.739691 0.187605 -0.845900
H53   H     H_    0.409148 0.693211 0.125875 0.272906
H54   H     H_    0.393722 0.780627 0.232023 0.286383
H55   H     H_    0.482557 0.709815 0.273299 0.257218
O34   O     O_3   0.643849 0.235298 0.007018 -0.603442
C80   C     C_3   0.550104 0.254943 0.014108 0.043483
H56   H     H_    0.510559 0.196971 0.016958 0.166462
H57   H     H_    0.526014 0.291849 0.925223 0.085175
C81   C     C_3   0.533495 0.304115 0.146618 -0.299277
H58   H     H_    0.588855 0.295624 0.219628 0.278453
H59   H     H_    0.535274 0.369601 0.122870 0.212959
C82   C     C_3   0.446899 0.280921 0.224904 -0.898995
H60   H     H_    0.385693 0.286209 0.160115 0.268354
H61   H     H_    0.438280 0.321350 0.315572 0.263533
H62   H     H_    0.453498 0.217501 0.262011 0.295041
O35   O     O_3   0.175902 0.261585 0.005050 -0.602141
C83   C     C_3   0.095430 0.213962 0.005800 0.083345
H63   H     H_    0.095863 0.175077 0.098965 0.228736
H64   H     H_    0.091274 0.171205 0.917179 0.089272
C84   C     C_3   0.009987 0.267220 0.007221 -0.456179
H65   H     H_    0.020726 0.324443 0.948171 0.229828
H66   H     H_    0.955030 0.232236 0.957025 0.196595
C85   C     C_3   0.979513 0.289248 0.152259 -0.772788
H67   H     H_    0.967810 0.234198 0.217072 0.230529
H68   H     H_    0.915548 0.324591 0.147328 0.280078
H69   H     H_    0.032035 0.327999 0.199086 0.283592
O36   O     O_3   0.160860 0.711829 0.012720 -0.563468
C86   C     C_3   0.065159 0.704467 0.026710 0.111382
H70   H     H_    0.052820 0.671034 0.124818 0.205035
H71   H     H_    0.033863 0.663709 0.949526 0.094254
C87   C     C_3   0.018835 0.788441 0.032337 -0.430254
H72   H     H_    0.070492 0.838171 0.029315 0.268255
H73   H     H_    0.976274 0.796488 0.939330 0.183397
C88   C     C_3   0.960008 0.798132 0.162375 -0.823018
H74   H     H_    0.924662 0.740749 0.189959 0.286917
H75   H     H_    0.907070 0.845044 0.145071 0.277209
H76   H     H_    0.003347 0.815989 0.250755 0.258132
N11   N     N_R   0.703546 0.981911 0.236654 0.139751
O37   O     O_R   0.722878 0.909732 0.190161 -0.387952
O38   O     O_R   0.749416 0.009154 0.341340 -0.356294
N12   N     N_R   0.206845 0.521881 0.240248 0.153951
O39   O     O_R   0.254089 0.489610 0.339459 -0.335203
O40   O     O_R   0.226912 0.595989 0.202323 -0.371276

loop_
_geom_bond_atom_site_label_1
_geom_bond_atom_site_label_2
_geom_bond_distance
_ccdc_geom_bond_type
C83   H64   1.113983 S    
O33   C77   1.412087 S    
C55   N9    1.427871 S    
C87   H73   1.108514 S    
C82   H62   1.104280 S    
C70   H33   1.095325 S    
O10   C6    1.311615 A    
Cu1   N3    2.050967 S    
H18   C62   1.079393 S    
C67   H25   1.106839 S    
N6    O20   1.298731 A    
C74   H42   1.103035 S    
C58   N4    1.402901 A    
C76   H47   1.110285 S    
C41   C45   1.394391 A    
C86   H70   1.109483 S    
C3    C36   1.485464 S    
C16   C18   1.391861 A    
C63   N3    1.374450 A    
C22   H10   1.075705 S    
C66   H23   1.098675 S    
Cu1   O10   1.997781 S    
C32   C36   1.422154 A    
C75   H44   1.112213 S    
C53   O25   1.390276 S    
C14   H6    1.076052 S    
N11   O38   1.301991 A    
C10   C30   1.408891 A    
C33   C37   1.420226 A    
C70   H34   1.109688 S    
C64   O32   1.382735 S    
C2    C33   1.483574 S    
C83   C84   1.528842 S    
C9    C13   1.387452 A    
N9    O27   1.294402 A    
C5    C46   1.478867 S    
C9    H1    1.076922 S    
C21   C25   1.406182 A    
C10   C14   1.390937 A    
C28   C30   1.409335 A    
O8    Cu4   1.997683 S    
C84   H66   1.104120 S    
O2    Cu1   1.998522 S    
O34   C80   1.412301 S    
C54   C56   1.394045 A    
C40   C42   1.397776 A    
C24   C28   1.412826 A    
N5    O18   1.298908 A    
C57   C59   1.449634 A    
O6    Cu3   1.997683 S    
N8    O23   1.292741 A    
C24   H12   1.074693 S    
C37   N5    1.429791 S    
Cu3   O14   1.998743 S    
C88   H74   1.103149 S    
C50   N12   1.425118 S    
C85   H67   1.110007 S    
N7    O22   1.299617 A    
C71   C72   1.533362 S    
C56   C58   1.452445 A    
C66   C67   1.522175 S    
H16   C44   1.077946 S    
C25   C31   1.410625 A    
Cu2   Cu4   2.729252 S    
O15   C7    1.325578 A    
C72   H38   1.111391 S    
O11   C7    1.308021 A    
C16   H8    1.071344 S    
C23   H11   1.072990 S    
H17   C61   1.076904 S    
C77   C78   1.524723 S    
C44   C48   1.394879 A    
C15   C17   1.393613 A    
Cu2   N4    2.050967 S    
C83   H63   1.103990 S    
C85   H69   1.098242 S    
Cu4   O16   1.998743 S    
C8    C47   1.486046 S    
C51   C53   1.377260 A    
C65   H22   1.116648 S    
C84   H65   1.107506 S    
C69   C70   1.524146 S    
C17   O33   1.377280 S    
C62   C64   1.435701 A    
N6    O19   1.298246 A    
C74   H43   1.111926 S    
C77   H50   1.115082 S    
C18   C22   1.404722 A    
C52   C54   1.389463 A    
C76   H48   1.108678 S    
N10   O30   1.295789 A    
C86   H71   1.106993 S    
C23   C27   1.404435 A    
C26   C32   1.410723 A    
C4    C35   1.492695 S    
C9    C29   1.408743 A    
C27   C29   1.406692 A    
C10   H2    1.078020 S    
C38   C44   1.399957 A    
C22   C26   1.417801 A    
C11   C31   1.411490 A    
O1    C1    1.311386 A    
C12   C32   1.402810 A    
C26   C46   1.417550 A    
C78   H52   1.109302 S    
C80   C81   1.538983 S    
C87   H72   1.110245 S    
C76   H46   1.106654 S    
C30   C34   1.426529 A    
C78   C79   1.523242 S    
O26   C68   1.410041 S    
C19   C23   1.406716 A    
O12   C8    1.310454 A    
C54   O26   1.398373 S    
C36   C40   1.405726 A    
C73   H39   1.103884 S    
C51   H19   1.079472 S    
C84   C85   1.518275 S    
O7    C3    1.322025 A    
C80   H56   1.111443 S    
C31   C35   1.426082 A    
O5    C1    1.321359 A    
Cu2   O12   1.997781 S    
C68   C69   1.537627 S    
C80   H57   1.112047 S    
C42   C46   1.399709 A    
C52   H20   1.077160 S    
C78   H51   1.106397 S    
Cu3   O13   1.991960 S    
O8    C4    1.318380 A    
C60   N2    1.391414 A    
C17   C21   1.397462 A    
C39   N7    1.428716 S    
C61   C63   1.428460 A    
Cu3   N1    2.051141 S    
C72   C73   1.520106 S    
N2    C62   1.367869 A    
O25   C65   1.426451 S    
C50   C60   1.427168 A    
O3    Cu2   1.991743 S    
C38   N6    1.432030 S    
Cu4   N2    2.051141 S    
O7    Cu4   1.988017 S    
C59   N1    1.379698 A    
C50   C52   1.380638 A    
C6    C45   1.489663 S    
C58   C60   1.450809 A    
C12   C16   1.386377 A    
Cu1   Cu3   2.729252 S    
H14   C42   1.077902 S    
C68   H28   1.110096 S    
C71   H36   1.112508 S    
C37   C43   1.396021 A    
O4    C4    1.314022 A    
C81   H59   1.097895 S    
O2    C2    1.317617 A    
C67   H27   1.106296 S    
C12   H4    1.076989 S    
C39   C41   1.398256 A    
C74   C75   1.532319 S    
C63   O31   1.378954 S    
C77   H49   1.104168 S    
C69   H31   1.107666 S    
C66   H24   1.104514 S    
N10   O29   1.300518 A    
N1    C61   1.367386 A    
C86   C87   1.539074 S    
N9    O28   1.301526 A    
O13   C5    1.320283 A    
C7    C48   1.489747 S    
H13   C41   1.074054 S    
C88   H75   1.107765 S    
C14   C20   1.394704 A    
Cu2   O11   1.988113 S    
C19   O35   1.383850 S    
C73   H41   1.107686 S    
O16   C8    1.321137 A    
C27   C47   1.415101 A    
C69   H30   1.110644 S    
C67   H26   1.110049 S    
O6    C2    1.309576 A    
C79   H54   1.099717 S    
C70   H32   1.110624 S    
C55   C57   1.461699 A    
C65   H21   1.111108 S    
Cu4   O15   1.991960 S    
C56   N10   1.427660 S    
C20   O36   1.393554 S    
Cu1   O9    1.988113 S    
N12   O40   1.300351 A    
O9    C5    1.307617 A    
O32   C74   1.405577 S    
C18   O34   1.388587 S    
C65   C66   1.536237 S    
C75   H45   1.112117 S    
C72   H37   1.108730 S    
O4    Cu2   1.998522 S    
O31   C71   1.409541 S    
C1    C34   1.495218 S    
C43   C47   1.397699 A    
C28   C48   1.415636 A    
N12   O39   1.301752 A    
C34   C38   1.421232 A    
C64   N4    1.374568 A    
C81   C82   1.518644 S    
C87   C88   1.530872 S    
C21   H9    1.080948 S    
C11   H3    1.078483 S    
C73   H40   1.110667 S    
C11   C15   1.396820 A    
C13   C19   1.390961 A    
C35   C39   1.420513 A    
C75   C76   1.523848 S    
N11   O37   1.300506 A    
C13   H5    1.074781 S    
C82   H60   1.102291 S    
C25   C45   1.408430 A    
N8    O24   1.299579 A    
O5    Cu3   1.988017 S    
C79   H55   1.110964 S    
O3    C3    1.305641 A    
C57   N3    1.411310 A    
C49   C59   1.417714 A    
C29   C33   1.415607 A    
C20   C24   1.414122 A    
C88   H76   1.110559 S    
O1    Cu1   1.991743 S    
O36   C86   1.411148 S    
C15   H7    1.075818 S    
C53   C55   1.411787 A    
O35   C83   1.410861 S    
O14   C6    1.321337 A    
C40   N8    1.433482 S    
C68   H29   1.092354 S    
C49   C51   1.370440 A    
C49   N11   1.425141 S    
C71   H35   1.110974 S    
C82   H61   1.110754 S    
C81   H58   1.089765 S    
N5    O17   1.298381 A    
H15   C43   1.078513 S    
C85   H68   1.104772 S    
N7    O21   1.296984 A    
C79   H53   1.107676 S    
