data_mof_unit_53061.cif
_audit_creation_date              2013-03-05T15:43:39-0500
_audit_creation_method            fapswitch 2.2
_symmetry_space_group_name_H-M    P1
_symmetry_Int_Tables_number       1
_space_group_crystal_system       triclinic
_cell_length_a                    8.329702
_cell_length_b                    15.186637
_cell_length_c                    18.792234
_cell_angle_alpha                 99.726726
_cell_angle_beta                  91.344059
_cell_angle_gamma                 99.463453
_cell_volume                      2307.94875804

loop_
_atom_site_label
_atom_site_type_symbol
_atom_site_description
_atom_site_fract_x
_atom_site_fract_y
_atom_site_fract_z
_atom_type_partial_charge
P1    P     P_3+3 0.038110 0.412300 0.335300 0.484398
O1    O     O_2   0.871030 0.438240 0.324420 -0.391565
O2    O     O_3   0.120590 0.445310 0.413740 -0.320974
O3    O     O_3   0.663040 0.605930 0.370050 -0.327190
O4    O     O_2   0.774928 0.540481 0.244335 -0.417189
O5    O     O_3   0.018360 0.294283 0.310382 -0.608778
O6    O     O_3   0.695820 0.699791 0.252845 -0.545658
H1    H     H_    0.727694 0.781471 0.353827 0.151170
C1    C     C_3   0.631180 0.850167 0.274402 -0.084349
H2    H     H_    0.546430 0.832163 0.225685 0.188412
P2    P     P_3+3 0.679950 0.711710 0.558590 0.521445
P3    P     P_3+3 0.138808 0.771586 0.405690 0.563256
O7    O     O_2   0.855660 0.723510 0.537160 -0.384540
O8    O     O_3   0.086340 0.654970 0.406630 -0.319314
O9    O     O_2   0.015262 0.817700 0.452360 -0.308288
O10   O     O_3   0.691740 0.749939 0.652398 -0.547718
O11   O     O_3   0.098746 0.791645 0.318499 -0.460947
C2    C     C_3   0.126756 0.716924 0.267938 0.254339
H3    H     H_    0.043113 0.654665 0.275344 0.122572
H4    H     H_    0.254612 0.705790 0.273332 0.017361
C3    C     C_3   0.092113 0.733099 0.191426 -0.060338
H5    H     H_    0.090247 0.668991 0.152794 0.062816
H6    H     H_    0.970111 0.752600 0.186920 0.195032
C4    C     C_3   0.292178 0.760228 0.660998 0.358916
H7    H     H_    0.382670 0.721425 0.634877 0.141840
C5    C     C_3   0.376401 0.834622 0.723186 -0.043393
H8    H     H_    0.430358 0.801535 0.764097 0.086583
H9    H     H_    0.284207 0.871508 0.750917 0.162896
Ba1   Ba    Ba6+2 0.854120 0.540280 0.465540 1.652561
C6    C     C_3   0.897994 0.244549 0.344466 0.512222
H10   H     H_    0.799871 0.283001 0.361843 0.134747
C7    C     C_3   0.828613 0.158499 0.290656 -0.689053
H11   H     H_    0.802130 0.176144 0.237590 0.281570
H12   H     H_    0.716574 0.121967 0.310444 0.239870
H13   H     H_    0.919123 0.111980 0.281816 0.260064
C8    C     C_3   0.779110 0.701437 0.691858 0.612429
H14   H     H_    0.859885 0.662535 0.658132 0.103804
C9    C     C_3   0.657635 0.637847 0.726127 -0.914082
H15   H     H_    0.555443 0.671661 0.746509 0.249402
H16   H     H_    0.714517 0.616940 0.773006 0.197973
H17   H     H_    0.611630 0.578075 0.684297 0.275469
P4    P     P_3+3 0.151600 0.587780 0.664700 0.500484
O12   O     O_2   0.318670 0.561790 0.675630 -0.364026
O13   O     O_3   0.069120 0.554770 0.586270 -0.340056
O14   O     O_3   0.526680 0.394150 0.629950 -0.358924
O15   O     O_3   0.170848 0.705882 0.691918 -0.639264
P5    P     P_3+3 0.059747 0.227212 0.593660 0.571991
O16   O     O_3   0.607620 0.388570 0.462320 -0.378683
O17   O     O_3   0.103380 0.345110 0.593380 -0.338257
O18   O     O_2   0.166243 0.184987 0.535812 -0.319545
O19   O     O_3   0.145981 0.199743 0.671888 -0.478523
Ba2   Ba    Ba6+2 0.335710 0.459790 0.534460 1.629305
P6    P     P_3+3 0.640689 0.592041 0.275857 0.469641
C10   C     C_3   0.641781 0.764458 0.305399 0.237239
H18   H     H_    0.518044 0.739479 0.322035 0.024240
H19   H     H_    0.580787 0.899316 0.314729 0.088854
O20   O     O_3   0.582100 0.611510 0.537680 -0.338275
C11   C     C_3   0.435848 0.280870 0.308628 0.148692
H20   H     H_    0.332203 0.308160 0.335016 0.114239
H21   H     H_    0.530273 0.338279 0.299790 0.095558
C12   C     C_3   0.371687 0.221063 0.235216 0.285183
H22   H     H_    0.278142 0.164454 0.246531 0.153164
P7    P     P_3+3 0.515764 0.273329 0.443867 0.448921
O21   O     O_2   0.334040 0.276520 0.462890 -0.352048
O22   O     O_3   0.505339 0.227211 0.351024 -0.604203
C13   C     C_3   0.035925 0.200254 0.727842 0.722756
H23   H     H_    0.909370 0.170927 0.706820 -0.141842
C14   C     C_3   0.085643 0.143022 0.782314 -0.123431
H24   H     H_    0.214102 0.167968 0.802301 0.123852
H25   H     H_    0.009676 0.150965 0.830117 0.133664
P8    P     P_3+3 0.551338 0.402915 0.723321 0.500097
C15   C     C_3   0.585443 0.237711 0.720059 0.323890
H26   H     H_    0.714957 0.270132 0.731463 0.052801
O23   O     O_2   0.433446 0.464720 0.757772 -0.327302
O24   O     O_3   0.476963 0.296609 0.744890 -0.478295
H27   H     H_    0.562875 0.214828 0.660866 0.090791
H28   H     H_    0.644085 0.108870 0.736301 0.223629
C16   C     C_3   0.557252 0.154322 0.756495 -0.325067
H29   H     H_    0.432587 0.117048 0.741378 0.271652
C17   C     C_R   0.990469 0.462349 0.048305 0.031246
C18   C     C_R   0.895871 0.416020 0.096511 -0.163826
C19   C     C_R   0.769294 0.422892 0.951051 -0.179971
C20   C     C_R   0.930066 0.463371 0.976681 0.071389
C21   C     C_R   0.712673 0.422629 0.880925 -0.139266
C22   C     C_R   0.814387 0.460065 0.831627 0.059013
C23   C     C_R   0.973210 0.505516 0.856153 0.087692
C24   C     C_R   0.031071 0.508053 0.929226 0.067655
C25   C     C_R   0.763636 0.450745 0.758022 0.097123
C26   C     C_R   0.873747 0.482092 0.708894 -0.454439
C27   C     C_R   0.026573 0.533432 0.732392 0.298225
C28   C     C_R   0.074318 0.548291 0.807620 -0.006610
C29   C     C_R   0.152586 0.505085 0.071857 -0.006277
C30   C     C_R   0.211638 0.502641 0.143910 0.013180
C31   C     C_R   0.107756 0.461442 0.192838 -0.080579
C32   C     C_R   0.953661 0.415017 0.166213 -0.021384
H30   H     H_    0.834679 0.472719 0.652407 0.159796
H31   H     H_    0.588271 0.390673 0.865851 0.175737
H32   H     H_    0.875696 0.375229 0.198307 0.185365
C33   C     C_R   0.217100 0.606575 0.836812 -0.113638
C34   C     C_R   0.268099 0.613403 0.909094 -0.176253
C35   C     C_R   0.188843 0.555799 0.954019 0.062059
C36   C     C_R   0.256553 0.548411 0.023677 0.013945
C37   C     C_R   0.425458 0.577701 0.046658 0.314209
C38   C     C_R   0.375153 0.540065 0.166846 -0.110820
C39   C     C_R   0.478371 0.576314 0.117710 -0.136398
C40   C     C_R   0.434899 0.534167 0.236850 0.199730
C41   C     C_R   0.332334 0.488781 0.281710 -0.376752
C42   C     C_R   0.165635 0.462111 0.265185 0.220530
H33   H     H_    0.289737 0.649100 0.804814 0.144744
H34   H     H_    0.606316 0.599083 0.132781 0.184457
H35   H     H_    0.383078 0.475556 0.331553 0.188558
H36   H     H_    0.680980 0.391760 0.984087 0.136427
H37   H     H_    0.775825 0.377625 0.082006 0.152766
H38   H     H_    0.368404 0.666581 0.929080 0.167548
C43   C     C_R   0.745570 0.235869 0.542616 -0.526702
C44   C     C_R   0.844905 0.176642 0.562160 0.043895
C45   C     C_R   0.795008 0.081793 0.539145 0.202649
C46   C     C_R   0.632868 0.046445 0.509261 -0.016209
C47   C     C_R   0.539578 0.109375 0.489615 -0.241126
C48   C     C_R   0.601856 0.201858 0.500176 0.308961
C49   C     C_R   0.416844 0.908985 0.452287 -0.286045
C50   C     C_R   0.350686 0.816590 0.443397 0.071999
C51   C     C_R   0.583186 0.790025 0.512245 0.114729
C52   C     C_R   0.640804 0.883471 0.526867 -0.158392
C53   C     C_R   0.564898 0.945191 0.494398 0.124168
C54   C     C_R   0.438779 0.757799 0.470747 -0.016672
H39   H     H_    0.347252 0.950526 0.427544 0.193345
H40   H     H_    0.740068 0.906719 0.566836 0.206188
H41   H     H_    0.422071 0.088390 0.461426 0.174620
H42   H     H_    0.791040 0.308048 0.551668 0.175861
N1    N     N_R   0.503352 0.900247 0.699308 0.246615
O25   O     O_R   0.649723 0.913677 0.728901 -0.341599
O26   O     O_R   0.464142 0.959921 0.663017 -0.414074
C55   C     C_3   0.977670 0.216713 0.408063 -0.756577
H43   H     H_    0.010255 0.276546 0.451622 0.244022
H44   H     H_    0.893419 0.162218 0.426490 0.200922
H45   H     H_    0.088560 0.188510 0.391429 0.271609
C56   C     C_3   0.881759 0.768923 0.752224 -0.697133
H46   H     H_    0.802596 0.804949 0.789423 0.269784
H47   H     H_    0.955300 0.733391 0.784413 0.182517
H48   H     H_    0.964885 0.819795 0.728879 0.269131
N2    N     N_R   0.790953 0.892407 0.255547 0.282226
O27   O     O_R   0.817070 0.901086 0.188908 -0.320283
O28   O     O_R   0.902548 0.929696 0.306091 -0.306646
C57   C     C_3   0.290396 0.271988 0.184837 -1.005106
H49   H     H_    0.173073 0.286929 0.204882 0.264589
H50   H     H_    0.371553 0.335648 0.178702 0.255098
H51   H     H_    0.263548 0.229043 0.130504 0.293932
N3    N     N_R   0.503291 0.183378 0.197698 0.265732
O29   O     O_R   0.611205 0.235085 0.167240 -0.439224
O30   O     O_R   0.498438 0.096025 0.184870 -0.323919
N4    N     N_R   0.215743 0.803859 0.172327 0.265555
O31   O     O_R   0.229208 0.887060 0.206212 -0.281925
O32   O     O_R   0.305800 0.785243 0.118015 -0.387487
N5    N     N_R   0.042031 0.292749 0.766434 0.175272
O33   O     O_R   0.137555 0.359826 0.746655 -0.331114
O34   O     O_R   0.972366 0.306535 0.827519 -0.506384
N6    N     N_R   0.064297 0.047042 0.751348 0.263951
O35   O     O_R   0.167091 0.017280 0.706326 -0.335946
O36   O     O_R   0.964495 0.989351 0.779942 -0.361624
C58   C     C_3   0.579619 0.178156 0.838776 -0.788359
H52   H     H_    0.491682 0.221804 0.861112 0.258118
H53   H     H_    0.557990 0.114918 0.861975 0.270767
H54   H     H_    0.705355 0.213684 0.855362 0.279266
C59   C     C_3   0.561030 0.599245 0.996797 -1.005829
H55   H     H_    0.533182 0.559151 0.941620 0.260192
H56   H     H_    0.587291 0.673205 0.996491 0.274497
H57   H     H_    0.676367 0.581034 0.015836 0.245542
N7    N     N_R   0.918348 0.026222 0.528076 0.231944
O37   O     O_R   0.947096 0.990927 0.462652 -0.344418
O38   O     O_R   0.010720 0.016676 0.581860 -0.325154
N8    N     N_R   0.374218 0.664594 0.460581 0.260921
O39   O     O_R   0.285470 0.632561 0.509022 -0.342777
O40   O     O_R   0.368358 0.617865 0.396502 -0.439300
C60   C     C_3   0.206186 0.802698 0.606251 -0.673670
H58   H     H_    0.293040 0.848006 0.580114 0.220143
H59   H     H_    0.141489 0.748704 0.563996 0.263563
H60   H     H_    0.116071 0.842348 0.632013 0.265524

loop_
_geom_bond_atom_site_label_1
_geom_bond_atom_site_label_2
_geom_bond_distance
_ccdc_geom_bond_type
C13   C14   1.540752 S    
C39   H34   1.080351 S    
P7    O22   1.761297 S    
C17   C29   1.423852 A    
C35   C36   1.442227 A    
O3    P6    1.748677 S    
N5    O34   1.299333 A    
C2    C3    1.527806 S    
N7    O37   1.299844 A    
P1    O1    1.525795 D    
C20   C24   1.419686 A    
C15   H27   1.109753 S    
C57   H51   1.110953 S    
C55   H45   1.110292 S    
C38   C40   1.417771 A    
C57   H49   1.099875 S    
C32   H32   1.078463 S    
C51   C52   1.399231 A    
C60   H59   1.099066 S    
C36   C37   1.436875 A    
C22   C23   1.415159 A    
C31   C42   1.429662 A    
C5    H8    1.110909 S    
C59   H55   1.108454 S    
O1    Ba1   2.855661 S    
C21   H31   1.078866 S    
O7    Ba1   2.876927 S    
C8    H14   1.107979 S    
C9    H16   1.107158 S    
C4    C5    1.545687 S    
C49   H39   1.075619 S    
C23   C28   1.421086 A    
N3    O30   1.301324 A    
C13   N5    1.460219 S    
C18   C32   1.388262 A    
O12   Ba2   2.856384 S    
O14   P8    1.741815 S    
C40   C41   1.397189 A    
C11   H21   1.111723 S    
C43   C44   1.403814 A    
C33   H33   1.079119 S    
C44   C45   1.420859 A    
C2    H3    1.109570 S    
P4    O15   1.759495 S    
C3    N4    1.458723 S    
O2    Ba1   2.938385 S    
C12   C57   1.530503 S    
C46   C47   1.415444 A    
C34   C35   1.414105 A    
C15   C16   1.526605 S    
C57   H50   1.109673 S    
C24   C35   1.419057 A    
P6    C40   1.864438 S    
C60   H58   1.097844 S    
C14   H24   1.108740 S    
C6    C55   1.507737 S    
P3    O11   1.750796 S    
P4    C27   1.875710 S    
C41   C42   1.393161 A    
C46   C53   1.524563 S    
C60   H60   1.107965 S    
C1    H2    1.110349 S    
O3    Ba1   2.782052 S    
C29   C36   1.432968 A    
C52   H40   1.075987 S    
O13   Ba2   2.939363 S    
C11   C12   1.547975 S    
C13   H23   1.110093 S    
C59   H56   1.109466 S    
C3    H5    1.109422 S    
N6    O36   1.299214 A    
N7    O38   1.297807 A    
Ba2   O20   2.813683 S    
C31   C32   1.395724 A    
P4    O13   1.576453 S    
C15   O24   1.406716 S    
C14   N6    1.455398 S    
C30   C38   1.413884 A    
C38   C39   1.395796 A    
C58   H53   1.110451 S    
N8    O40   1.285746 A    
C58   H52   1.110043 S    
P5    O18   1.541636 D    
P5    C44   1.867493 S    
Ba1   O16   2.814123 S    
P1    O5    1.753405 S    
C6    C7    1.530369 S    
C7    H13   1.111959 S    
C34   H38   1.073421 S    
C21   C22   1.398469 A    
C9    H17   1.104143 S    
P5    O17   1.768386 S    
Ba2   O21   2.876999 S    
H1    C10   1.111888 S    
C16   H29   1.103622 S    
C17   C18   1.415320 A    
O16   P7    1.763736 S    
P5    O19   1.762759 S    
O14   Ba2   2.781401 S    
N1    O26   1.299532 A    
C11   H20   1.109644 S    
H28   C16   1.110029 S    
P7    O21   1.570068 D    
P1    O2    1.576618 S    
O19   C13   1.411000 S    
C7    H12   1.110290 S    
C50   C54   1.397340 A    
C49   C53   1.426080 A    
P4    Ba2   3.416001 S    
P2    O10   1.755481 S    
C11   O22   1.409501 S    
C33   C34   1.395412 A    
P3    O9    1.546122 D    
C1    N2    1.458224 S    
O17   Ba2   2.765521 S    
P1    Ba1   3.415363 S    
O11   C2    1.406434 S    
C37   C39   1.400894 A    
C1    H19   1.111063 S    
C4    H7    1.105466 S    
C47   C48   1.393748 A    
C49   C50   1.400953 A    
C56   H47   1.110836 S    
O5    C6    1.389435 S    
Ba1   O20   2.932004 S    
C37   C59   1.513938 S    
C59   H57   1.110036 S    
C19   C21   1.388360 A    
C3    H6    1.109520 S    
Ba1   O13   2.813219 S    
N6    O35   1.298200 A    
N2    O28   1.300247 A    
P4    O12   1.526192 D    
O6    P6    1.754103 S    
O8    Ba1   2.764956 S    
N1    O25   1.298263 A    
C58   H54   1.107808 S    
N8    O39   1.294125 A    
C17   C20   1.429302 A    
C22   C25   1.413762 A    
O4    P6    1.541620 D    
C10   H18   1.109319 S    
C23   C24   1.436813 A    
C41   H35   1.081307 S    
P2    C51   1.858772 S    
N4    O32   1.300968 A    
C15   H26   1.109511 S    
C51   C54   1.388526 A    
C56   H48   1.105269 S    
P8    O23   1.546617 D    
C55   H44   1.102089 S    
O2    Ba2   2.813701 S    
C43   C48   1.395919 A    
C55   H43   1.107491 S    
C1    C10   1.527398 S    
C30   C31   1.428052 A    
C5    H9    1.112078 S    
C4    O15   1.398397 S    
C7    H11   1.101979 S    
C26   H30   1.081901 S    
C8    C9    1.513460 S    
P3    O8    1.756185 S    
P2    O20   1.584106 S    
C45   C46   1.432394 A    
O10   C8    1.399141 S    
P8    O24   1.748852 S    
P7    C48   1.849455 S    
P2    O7    1.517314 D    
C27   C28   1.429659 A    
C6    H10   1.104855 S    
C8    C56   1.530305 S    
C9    H15   1.107956 S    
C29   C30   1.438215 A    
C47   H41   1.075312 S    
C2    H4    1.110421 S    
C12   H22   1.113880 S    
C54   N8    1.408105 S    
C56   H46   1.110794 S    
P1    C42   1.890745 S    
P8    C25   1.855660 S    
C45   N7    1.430679 S    
O16   Ba2   2.931166 S    
P3    C50   1.861476 S    
C25   C26   1.401737 A    
P2    Ba1   3.429744 S    
C16   C58   1.527021 S    
C14   H25   1.112262 S    
C19   C20   1.415013 A    
C18   H37   1.075152 S    
N5    O33   1.297787 A    
N2    O27   1.300803 A    
N4    O31   1.301068 A    
O6    C10   1.407454 S    
C28   C33   1.399311 A    
C26   C27   1.397973 A    
N3    O29   1.302359 A    
C4    C60   1.526140 S    
C12   N3    1.460322 S    
Ba1   Ba2   4.600813 S    
C5    N1    1.462759 S    
C19   H36   1.075331 S    
C52   C53   1.421496 A    
C43   H42   1.082305 S    
