data_mof_unit_41323.cif
_audit_creation_date              2012-12-11T16:53:48-0500
_audit_creation_method            fapswitch 2.2
_symmetry_space_group_name_H-M    P1
_symmetry_Int_Tables_number       1
_space_group_crystal_system       triclinic
_cell_length_a                    14.892318
_cell_length_b                    14.768689
_cell_length_c                    17.013896
_cell_angle_alpha                 108.918457
_cell_angle_beta                  106.354069
_cell_angle_gamma                 108.286331
_cell_volume                      3039.72077493

loop_
_atom_site_label
_atom_site_type_symbol
_atom_type_description
_atom_site_fract_x
_atom_site_fract_y
_atom_site_fract_z
_atom_type_partial_charge
C1    C     C_R   0.088433 0.283577 0.071737 -0.109839
C2    C     C_R   0.064514 0.538277 0.266023 -0.100251
C3    C     C_R   0.278724 0.786607 0.177053 -0.134826
C4    C     C_R   0.935939 0.525332 0.750220 -0.161142
C5    C     C_R   0.733721 0.462476 0.044762 -0.123451
C6    C     C_R   0.334765 0.784049 0.255949 0.066107
C7    C     C_R   0.709932 0.541840 0.032597 0.071336
C8    C     C_R   0.971598 0.513098 0.275990 0.056035
C9    C     C_R   0.000264 0.816775 0.965636 0.052155
C10   C     C_R   0.523386 0.655758 0.043010 0.155305
C11   C     C_R   0.472529 0.600600 0.083055 0.035003
C12   C     C_R   0.027269 0.588776 0.749938 0.108973
C13   C     C_R   0.528859 0.567963 0.140134 -0.196651
C14   C     C_R   0.619248 0.563011 0.134729 -0.195927
C15   C     C_R   0.651493 0.589976 0.071809 0.037941
C16   C     C_R   0.776360 0.200902 0.812311 -0.132688
C17   C     C_R   0.612156 0.650395 0.037357 0.156572
C18   C     C_3   0.580967 0.646411 0.944110 -0.527908
C19   C     C_3   0.484006 0.652456 0.950264 -0.501375
C20   C     C_R   0.960128 0.553108 0.361388 0.124580
C21   C     C_R   0.033095 0.632637 0.683973 0.043917
C22   C     C_R   0.132525 0.704767 0.609251 -0.396936
C23   C     C_R   0.759972 0.195232 0.725761 0.059392
C24   C     C_R   0.129274 0.698621 0.689053 0.535262
C25   C     C_R   0.940361 0.594130 0.606387 -0.370576
C26   C     C_R   0.944379 0.596219 0.526826 0.197011
C27   C     C_R   0.041980 0.645964 0.526905 0.153501
C28   C     C_R   0.300067 0.594203 0.001906 -0.148764
C29   C     C_R   0.048830 0.626826 0.443888 -0.233674
C30   C     C_R   0.861318 0.514694 0.362032 -0.178512
C31   C     C_R   0.853420 0.537300 0.444742 -0.202586
C32   C     C_R   0.718559 0.098953 0.639036 0.130483
C33   C     C_R   0.443544 0.857924 0.322740 0.129323
C34   C     C_R   0.360073 0.561527 0.052805 0.074866
C35   C     C_R   0.589233 0.034081 0.395771 -0.220280
C36   C     C_R   0.496572 0.953954 0.320983 -0.175301
C37   C     C_R   0.491182 0.837944 0.394855 -0.279290
C38   C     C_R   0.579906 0.919883 0.472190 0.189122
C39   C     C_R   0.626675 0.020108 0.474007 0.187255
C40   C     C_R   0.782798 0.297901 0.735321 -0.123851
C41   C     C_R   0.700311 0.108021 0.556992 -0.275097
C42   C     C_R   0.682066 0.997011 0.635390 -0.170294
C43   C     C_R   0.614304 0.907190 0.551619 -0.224269
C44   C     C_R   0.087045 0.113018 0.138450 0.123905
C45   C     C_R   0.272903 0.690114 0.253538 -0.140903
C46   C     C_R   0.998236 0.105900 0.075330 0.013953
C47   C     C_R   0.902810 0.016711 0.047839 -0.193772
C48   C     C_R   0.899707 0.943762 0.085947 -0.194197
C49   C     C_R   0.991461 0.956426 0.151291 0.069582
C50   C     C_R   0.083352 0.041639 0.173428 0.098459
C51   C     C_3   0.196516 0.098583 0.236098 -0.593575
C52   C     C_R   0.296058 0.497602 0.078417 -0.125360
C53   C     C_3   0.201642 0.180509 0.197702 0.312850
C54   C     C_R   0.108940 0.606185 0.825833 -0.103128
C55   C     C_R   0.915382 0.199723 0.997061 -0.135937
C56   C     C_R   0.749806 0.565439 0.974035 -0.144908
C57   C     C_R   0.001619 0.188600 0.042971 0.068063
C58   C     C_R   0.890795 0.444501 0.189217 -0.127244
C59   C     C_R   0.085119 0.803818 0.010798 -0.110447
C60   C     C_R   0.914035 0.719220 0.930690 -0.129854
H1    H     H_    0.167262 0.309912 0.119683 0.130511
H2    H     H_    0.654354 0.525166 0.170044 0.125017
H3    H     H_    0.634613 0.718778 0.944548 0.187603
H4    H     H_    0.856974 0.508037 0.709734 0.092547
H5    H     H_    0.562820 0.568774 0.888726 0.203742
H6    H     H_    0.481903 0.728395 0.954355 0.194472
H7    H     H_    0.411650 0.578353 0.898213 0.205627
H8    H     H_    0.124772 0.662197 0.444588 0.118711
H9    H     H_    0.790371 0.462512 0.299504 0.110130
H10   H     H_    0.206733 0.748007 0.609852 0.138563
H11   H     H_    0.777470 0.500931 0.444061 0.120944
H12   H     H_    0.746917 0.623973 0.950339 0.106555
H13   H     H_    0.864872 0.549840 0.602518 0.141442
H14   H     H_    0.732611 0.185015 0.557754 0.118938
H15   H     H_    0.766160 0.136183 0.830586 0.093291
H16   H     H_    0.698786 0.986793 0.697162 0.115529
H17   H     H_    0.625472 0.110282 0.395870 0.127042
H18   H     H_    0.580637 0.830036 0.550659 0.127189
H19   H     H_    0.463676 0.970580 0.265113 0.113827
H20   H     H_    0.454308 0.763141 0.396273 0.116353
H21   H     H_    0.830104 0.003427 0.998217 0.123626
H22   H     H_    0.825814 0.877615 0.064948 0.127575
H23   H     H_    0.810358 0.398912 0.172965 0.083158
H24   H     H_    0.210905 0.130439 0.309624 0.226916
H25   H     H_    0.238727 0.051498 0.216117 0.163081
H26   H     H_    0.327156 0.658962 0.984886 0.103799
H27   H     H_    0.249502 0.185376 0.157998 0.034499
H28   H     H_    0.779124 0.324940 0.683300 0.096084
H29   H     H_    0.320183 0.470293 0.128788 0.087176
H30   H     H_    0.190563 0.660362 0.854358 0.165042
H31   H     H_    0.834748 0.149816 0.978742 0.089387
H32   H     H_    0.295867 0.653365 0.295959 0.090686
H33   H     H_    0.278056 0.795113 0.760997 0.314072
H34   H     H_    0.166373 0.860048 0.038900 0.092632
H35   H     H_    0.298907 0.318163 0.300018 0.313264
H36   H     H_    0.836590 0.696721 0.882141 0.091184
H37   H     H_    0.143448 0.586561 0.318938 0.093474
H38   H     H_    0.308063 0.840077 0.149700 0.084142
H39   H     H_    0.704490 0.417940 0.078312 0.086069
H40   H     H_    0.496950 0.533130 0.178920 0.124057
N1    N     N_R   0.055640 0.348550 0.045600 -0.044722
N2    N     N_R   0.811290 0.303400 0.871650 -0.041621
N3    N     N_R   0.205180 0.552990 0.997660 -0.040880
N4    N     N_R   0.814810 0.361830 0.823710 -0.041836
N5    N     N_R   0.201660 0.494570 0.045600 -0.040135
N6    N     N_R   0.068420 0.560530 0.871650 -0.052667
N7    N     N_R   0.948050 0.295860 0.997660 -0.041514
N8    N     N_R   0.185190 0.638170 0.176290 -0.039751
N9    N     N_R   0.798340 0.505430 0.954400 -0.040826
N10   N     N_R   0.931580 0.439470 0.128350 -0.039428
N11   N     N_R   0.051950 0.704140 0.002340 -0.041165
N12   N     N_R   0.944360 0.651450 0.954400 -0.039603
N13   N     N_R   0.039170 0.492150 0.176290 -0.039189
N14   N     N_R   0.188710 0.696600 0.128350 -0.038576
N15   N     N_R   0.794820 0.447010 0.002340 -0.041066
N16   N     N_R   0.960830 0.507850 0.823710 -0.039593
Ni1   Ni    Ni4+2 0.119330 0.493420 0.109950 0.223462
Ni2   Ni    Ni4+2 0.880670 0.506580 0.890050 0.208961
Ni3   Ni    Ni4+2 0.872590 0.372590 0.000000 0.215615
Ni4   Ni    Ni4+2 0.127410 0.627410 0.000000 0.210091
O1    O     O_3   0.218832 0.753292 0.770254 -0.802921
O2    O     O_3   0.221910 0.279658 0.263738 -0.738729

loop_
_geom_bond_atom_site_label_1
_geom_bond_atom_site_label_2
_ccdc_geom_bond_type
N1    N7    A    
C6    C45   A    
C27   C29   A    
C16   H15   S    
N3    Ni4   S    
C28   N3    A    
C3    C6    A    
C51   H25   S    
C39   C41   A    
C20   C30   A    
C18   H5    S    
C26   C27   A    
C8    C20   S    
H33   O1    S    
C54   H30   S    
C53   O2    S    
C30   C31   A    
C2    N13   A    
C18   H3    S    
C10   C17   A    
C23   C40   A    
C14   H2    S    
C33   C36   A    
C19   H6    S    
C18   C19   S    
N8    N14   A    
C45   H32   S    
C55   H31   S    
C8    C58   A    
C41   H14   S    
C44   C53   S    
C5    H39   S    
C2    H37   S    
C48   H22   S    
C56   H12   S    
C59   N11   A    
C32   C41   A    
C19   H7    S    
C59   H34   S    
C4    C12   A    
C45   N8    A    
C31   H11   S    
C28   C34   A    
C26   C31   A    
C3    N14   A    
C13   C14   A    
C5    N15   A    
N5    Ni1   S    
C52   H29   S    
C7    C56   A    
N7    Ni3   S    
C44   C46   A    
N9    Ni2   S    
C50   C51   S    
N4    Ni2   S    
C20   C29   A    
C37   H20   S    
C54   N6    A    
C53   H27   S    
C5    C7    A    
C25   C26   A    
C12   C21   S    
C35   H17   S    
C33   C37   A    
C55   N7    A    
N11   Ni4   S    
C43   H18   S    
C35   C36   A    
C35   C39   A    
C37   C38   A    
C60   N12   A    
C1    C57   A    
C40   N4    A    
C29   H8    S    
C47   C48   A    
C10   C19   S    
C17   C18   S    
N3    N5    A    
N2    N4    A    
N10   N13   A    
N13   Ni1   S    
C60   H36   S    
H35   O2    S    
C16   N2    A    
C48   C49   A    
C52   N5    A    
C16   C23   A    
N15   Ni3   S    
C22   C27   A    
C55   C57   A    
C46   C57   S    
C28   H26   S    
C22   C24   A    
C42   C43   A    
C1    N1    A    
C56   N9    A    
C30   H9    S    
C44   C50   A    
C15   C17   A    
C21   C25   A    
C46   C47   A    
N11   N12   A    
N6    Ni4   S    
C58   N10   A    
C34   C52   A    
N8    Ni1   S    
C4    N16   A    
C11   C34   S    
C2    C8    A    
C36   H19   S    
C1    H1    S    
N10   Ni3   S    
C4    H4    S    
C42   H16   S    
C6    C33   S    
C9    C60   A    
N1    Ni1   S    
C23   C32   S    
C40   H28   S    
C13   H40   S    
C38   C43   A    
C58   H23   S    
N12   Ni2   S    
C11   C13   A    
C3    H38   S    
C38   C39   A    
C7    C15   S    
C24   O1    S    
N16   Ni2   S    
C25   H13   S    
C47   H21   S    
C12   C54   A    
C10   C11   A    
N9    N15   A    
C49   C50   A    
C21   C24   A    
N6    N16   A    
C32   C42   A    
C14   C15   A    
C51   C53   S    
C9    C59   A    
C51   H24   S    
C22   H10   S    
N14   Ni4   S    
N2    Ni3   S    
