data_mof_unit_19156.cif
_audit_creation_date              2012-12-10T20:57:51-0500
_audit_creation_method            fapswitch 2.2
_symmetry_space_group_name_H-M    P1
_symmetry_Int_Tables_number       1
_space_group_crystal_system       triclinic
_cell_length_a                    15.116464
_cell_length_b                    15.144188
_cell_length_c                    15.887189
_cell_angle_alpha                 92.758575
_cell_angle_beta                  93.270006
_cell_angle_gamma                 68.350228
_cell_volume                      3373.4907673

loop_
_atom_site_label
_atom_site_type_symbol
_atom_type_description
_atom_site_fract_x
_atom_site_fract_y
_atom_site_fract_z
_atom_type_partial_charge
C1    C     C_R   0.497477 0.499772 0.338840 0.881002
C2    C     C_R   0.503241 0.497649 0.661312 0.896432
C3    C     C_R   0.558673 0.935704 0.640022 0.436295
C4    C     C_R   0.362988 0.127613 0.538540 0.516090
C5    C     C_R   0.628918 0.976314 0.651879 0.484872
C6    C     C_R   0.296366 0.083246 0.520570 0.425719
C7    C     C_R   0.573970 0.512089 0.964614 0.342175
C8    C     C_R   0.448024 0.441024 0.036649 0.365353
C9    C     C_R   0.517934 0.473023 0.913355 -0.229980
C10   C     C_R   0.501794 0.483168 0.086912 -0.239806
C11   C     C_R   0.457099 0.434147 0.948843 0.384408
C12   C     C_R   0.565442 0.517900 0.051996 0.386968
C13   C     C_1   0.518158 0.478710 0.824233 0.130005
C14   C     C_1   0.493534 0.489793 0.175518 0.126146
C15   C     C_1   0.493004 0.495076 0.250349 -0.230977
C16   C     C_1   0.512528 0.487028 0.749586 -0.236879
C17   C     C_R   0.957201 0.476130 0.426610 0.335565
C18   C     C_R   0.044098 0.522898 0.575329 0.318435
C19   C     C_R   0.906292 0.497457 0.501676 -0.279861
C20   C     C_R   0.094613 0.501194 0.499837 -0.278570
C21   C     C_R   0.951056 0.518450 0.576529 0.357347
C22   C     C_R   0.049976 0.478887 0.425753 0.353967
C23   C     C_R   0.559092 0.322316 0.499896 0.942257
C24   C     C_R   0.440487 0.678172 0.498990 0.905343
C25   C     C_1   0.807479 0.499091 0.501317 0.199018
C26   C     C_1   0.193072 0.499836 0.499138 0.203632
C27   C     C_R   0.595879 0.220920 0.517958 -0.342231
C28   C     C_R   0.400096 0.783501 0.502964 -0.308452
C29   C     C_R   0.690093 0.098058 0.613959 -0.233219
C30   C     C_R   0.266097 0.935183 0.497772 -0.215711
C31   C     C_R   0.678696 0.179675 0.569994 0.419061
C32   C     C_R   0.300918 0.835640 0.491418 0.414944
C33   C     C_R   0.534364 0.172148 0.501024 0.429508
C34   C     C_R   0.460960 0.833519 0.521599 0.358886
C35   C     C_R   0.537079 0.100862 0.555326 -0.092224
C36   C     C_R   0.422549 0.929911 0.547014 -0.040711
C37   C     C_R   0.620105 0.057229 0.606603 -0.165252
C38   C     C_R   0.327285 0.983340 0.522225 -0.146553
C39   C     C_R   0.460177 0.070064 0.557690 -0.177774
C40   C     C_R   0.481453 0.976784 0.581385 -0.143607
H1    H     H_    0.752393 0.069118 0.655724 0.201823
H2    H     H_    0.191059 0.974321 0.484608 0.193346
N1    N     N_1   0.270550 0.499970 0.500020 -0.113747
N2    N     N_1   0.729450 0.500030 0.499980 -0.107316
O1    O     O_R   0.573650 0.500000 0.378020 -0.621814
O2    O     O_R   0.426350 0.500000 0.621980 -0.632877
O3    O     O_R   0.426300 0.500040 0.378020 -0.623613
O4    O     O_R   0.573700 0.499960 0.621980 -0.591776
O5    O     O_R   0.615760 0.367720 0.500000 -0.591215
O6    O     O_R   0.384240 0.632280 0.500000 -0.584486
O7    O     O_R   0.468410 0.367760 0.500000 -0.577558
O8    O     O_R   0.531590 0.632240 0.500000 -0.563224
Zn1   Zn    Zn3+2 0.598380 0.499970 0.500000 0.975186
Zn2   Zn    Zn3+2 0.401620 0.500030 0.500000 0.951740
O9    O     O_3   0.699767 0.943142 0.714331 -0.567707
C41   C     C_3   0.781138 0.875559 0.677942 -0.381367
H3    H     H_    0.804755 0.903693 0.623557 0.147744
H4    H     H_    0.768400 0.810214 0.657712 0.145606
H5    H     H_    0.840479 0.855761 0.726226 0.204301
O10   O     O_3   0.206696 0.135127 0.486316 -0.608402
C42   C     C_3   0.145087 0.181009 0.551493 -0.341792
H6    H     H_    0.157166 0.246088 0.574688 0.204337
H7    H     H_    0.150777 0.132945 0.604191 0.156606
H8    H     H_    0.070759 0.204849 0.525412 0.182275
O11   O     O_3   0.557672 0.789368 0.509623 -0.634584
C43   C     C_3   0.578398 0.814814 0.430685 0.109039
H9    H     H_    0.577293 0.888710 0.434399 0.117829
H10   H     H_    0.526132 0.809892 0.379864 0.089761
C44   C     C_3   0.677097 0.747301 0.405067 -0.287953
H11   H     H_    0.678203 0.673490 0.398862 0.234023
H12   H     H_    0.691472 0.767699 0.342472 0.170521
C45   C     C_3   0.755730 0.750488 0.468515 -0.845387
H13   H     H_    0.752048 0.824710 0.479759 0.234781
H14   H     H_    0.826333 0.707243 0.443543 0.242416
H15   H     H_    0.749113 0.720282 0.529015 0.257889
O12   O     O_3   0.470505 0.196173 0.432231 -0.600659
C46   C     C_3   0.505704 0.125312 0.368293 0.065890
H16   H     H_    0.518033 0.053265 0.391446 0.128906
H17   H     H_    0.573808 0.126289 0.345688 0.126777
C47   C     C_3   0.433144 0.144178 0.294287 -0.327617
H18   H     H_    0.363117 0.150183 0.317557 0.237792
H19   H     H_    0.426005 0.211869 0.265407 0.235791
C48   C     C_3   0.463651 0.064393 0.227240 -0.946193
H20   H     H_    0.469397 0.995952 0.254027 0.255506
H21   H     H_    0.533470 0.057199 0.202825 0.270967
H22   H     H_    0.409777 0.080922 0.173992 0.273072
O13   O     O_3   0.236736 0.790548 0.475957 -0.643566
C49   C     C_3   0.229337 0.769950 0.388553 0.127748
H23   H     H_    0.221792 0.699631 0.381795 0.179271
H24   H     H_    0.293716 0.763282 0.353595 0.102207
C50   C     C_3   0.140516 0.844838 0.348449 -0.382363
H25   H     H_    0.077887 0.854512 0.386402 0.236698
H26   H     H_    0.150648 0.913784 0.347530 0.220305
C51   C     C_3   0.120661 0.815284 0.258439 -0.949747
H27   H     H_    0.182721 0.803846 0.219241 0.265848
H28   H     H_    0.057440 0.871992 0.230335 0.270667
H29   H     H_    0.105737 0.748765 0.258527 0.271736
O14   O     O_3   0.745572 0.221854 0.583686 -0.615170
C52   C     C_3   0.805548 0.200361 0.514151 0.137465
H30   H     H_    0.832551 0.258958 0.509873 0.153035
H31   H     H_    0.767331 0.197318 0.452424 0.112675
C53   C     C_3   0.891140 0.107482 0.527526 -0.390692
H32   H     H_    0.934066 0.115712 0.584431 0.231324
H33   H     H_    0.866258 0.048512 0.537630 0.214278
C54   C     C_3   0.953842 0.080933 0.451402 -0.974178
H34   H     H_    0.913866 0.066195 0.395094 0.268080
H35   H     H_    0.017211 0.016076 0.464766 0.269982
H36   H     H_    0.978003 0.139362 0.437718 0.269121
O15   O     O_3   0.545951 0.885841 0.706283 -0.623894
C55   C     C_3   0.584516 0.787175 0.689805 0.154074
H37   H     H_    0.641222 0.765215 0.643072 0.153120
H38   H     H_    0.525842 0.763101 0.667844 0.169518
C56   C     C_3   0.628769 0.736342 0.770582 -0.386504
H39   H     H_    0.692846 0.752675 0.789667 0.226460
H40   H     H_    0.577808 0.761817 0.822186 0.260288
C57   C     C_3   0.655611 0.629458 0.756379 -0.863306
H41   H     H_    0.593512 0.611206 0.768899 0.287679
H42   H     H_    0.716070 0.590519 0.799072 0.270686
H43   H     H_    0.677085 0.605843 0.690822 0.265096
O16   O     O_3   0.329085 0.226484 0.539269 -0.608092
C58   C     C_3   0.349566 0.266412 0.617591 0.143103
H44   H     H_    0.313803 0.344700 0.613580 0.152243
H45   H     H_    0.425964 0.255659 0.626126 0.155296
C59   C     C_3   0.312487 0.236209 0.696116 -0.500515
H46   H     H_    0.259647 0.300044 0.726578 0.217710
H47   H     H_    0.275702 0.186311 0.679523 0.224221
C60   C     C_3   0.392936 0.188981 0.760822 -0.795797
H48   H     H_    0.443285 0.121055 0.734429 0.268683
H49   H     H_    0.362849 0.173707 0.818068 0.268281
H50   H     H_    0.432404 0.236355 0.779176 0.287560
O17   O     O_3   0.613283 0.566029 0.101015 -0.573724
C61   C     C_3   0.683985 0.503184 0.154970 -0.309413
H51   H     H_    0.702474 0.426291 0.137927 0.129126
H52   H     H_    0.661288 0.516859 0.220988 0.200751
H53   H     H_    0.750088 0.518490 0.153457 0.188903
O18   O     O_3   0.415294 0.379636 0.900868 -0.569457
C62   C     C_3   0.343548 0.436156 0.844038 -0.355281
H54   H     H_    0.369002 0.421815 0.778881 0.192080
H55   H     H_    0.318526 0.513929 0.859416 0.140554
H56   H     H_    0.280998 0.414627 0.845007 0.184849
O19   O     O_3   0.633550 0.549393 0.928722 -0.611806
C63   C     C_3   0.730419 0.490453 0.944164 0.140324
H57   H     H_    0.759429 0.453769 0.883904 0.140991
H58   H     H_    0.741932 0.433315 0.990091 0.118636
C64   C     C_3   0.787246 0.551996 0.975627 -0.309641
H59   H     H_    0.785693 0.602219 0.926616 0.217642
H60   H     H_    0.754094 0.595803 0.031511 0.264845
C65   C     C_3   0.890611 0.491272 0.998933 -1.000217
H61   H     H_    0.893918 0.444637 0.051844 0.266217
H62   H     H_    0.930284 0.538068 0.018959 0.275591
H63   H     H_    0.925385 0.446522 0.943878 0.265079
O20   O     O_3   0.392886 0.400430 0.075572 -0.610698
C66   C     C_3   0.294302 0.452395 0.060241 0.122569
H64   H     H_    0.255256 0.411539 0.086694 0.162104
H65   H     H_    0.273963 0.457301 0.992301 0.160834
C67   C     C_3   0.260228 0.552304 0.102141 -0.420150
H66   H     H_    0.281556 0.547798 0.170266 0.240541
H67   H     H_    0.293167 0.596918 0.072341 0.213617
C68   C     C_3   0.152132 0.600487 0.092042 -0.940737
H68   H     H_    0.128897 0.603138 0.024278 0.258008
H69   H     H_    0.129638 0.674338 0.118102 0.274773
H70   H     H_    0.116772 0.561291 0.126366 0.275079
O21   O     O_3   0.094044 0.466947 0.349998 -0.589156
C69   C     C_3   0.152440 0.370365 0.338078 0.140107
H71   H     H_    0.107988 0.327879 0.320046 0.121939
H72   H     H_    0.196787 0.339421 0.395706 0.171643
C70   C     C_3   0.217710 0.361470 0.265843 -0.399316
H73   H     H_    0.251753 0.285574 0.246354 0.176220
H74   H     H_    0.174722 0.400008 0.210727 0.228918
C71   C     C_3   0.294437 0.401649 0.291821 -0.746086
H75   H     H_    0.336409 0.365512 0.348315 0.284289
H76   H     H_    0.261410 0.479136 0.306196 0.273302
H77   H     H_    0.343755 0.389928 0.239788 0.252953
O22   O     O_3   0.907659 0.521861 0.651908 -0.620485
C72   C     C_3   0.889988 0.609236 0.696702 0.139384
H78   H     H_    0.812259 0.645906 0.699555 0.136703
H79   H     H_    0.913983 0.660165 0.665777 0.099350
C73   C     C_3   0.932772 0.589157 0.786753 -0.295455
H80   H     H_    0.897435 0.548009 0.818204 0.214570
H81   H     H_    0.009735 0.544744 0.785531 0.261903
C74   C     C_3   0.921049 0.679988 0.838475 -0.997521
H82   H     H_    0.844756 0.725357 0.842783 0.271879
H83   H     H_    0.958978 0.720534 0.809757 0.260143
H84   H     H_    0.951787 0.661376 0.903311 0.272284
O23   O     O_3   0.916166 0.455412 0.351788 -0.605209
C75   C     C_3   0.917381 0.361432 0.352778 0.084083
H85   H     H_    0.853286 0.361364 0.383602 0.136969
H86   H     H_    0.981916 0.311839 0.386895 0.115593
C76   C     C_3   0.914763 0.323978 0.261990 -0.322134
H87   H     H_    0.847942 0.369251 0.229118 0.212615
H88   H     H_    0.975575 0.327668 0.228160 0.224313
C77   C     C_3   0.919258 0.221585 0.258662 -0.987371
H89   H     H_    0.988140 0.173941 0.287171 0.275864
H90   H     H_    0.913503 0.198117 0.191970 0.269891
H91   H     H_    0.859578 0.216015 0.292945 0.263847
O24   O     O_3   0.089173 0.536594 0.650686 -0.636398
C78   C     C_3   0.106353 0.622879 0.651804 0.066549
H92   H     H_    0.049150 0.679800 0.684857 0.133666
H93   H     H_    0.108581 0.649911 0.588285 0.141763
C79   C     C_3   0.199676 0.608676 0.701614 -0.349567
H94   H     H_    0.189659 0.599762 0.768938 0.205739
H95   H     H_    0.256225 0.543165 0.678017 0.243474
C80   C     C_3   0.231012 0.692862 0.694570 -0.889884
H96   H     H_    0.244261 0.701218 0.627940 0.303997
H97   H     H_    0.298084 0.680316 0.732895 0.252391
H98   H     H_    0.175440 0.759249 0.718179 0.253358

loop_
_geom_bond_atom_site_label_1
_geom_bond_atom_site_label_2
_ccdc_geom_bond_type
C24   O8    A    
C43   H10   S    
O13   C49   S    
C45   H14   S    
C12   O17   S    
C5    C37   A    
C42   H8    S    
C18   C21   A    
O21   C69   S    
C65   H63   S    
C80   H96   S    
C64   H59   S    
C69   H72   S    
C70   H74   S    
C74   H82   S    
C27   C33   A    
C54   H35   S    
O6    Zn2   S    
C20   C26   S    
C48   H20   S    
C69   H71   S    
C8    O20   S    
C65   H62   S    
C47   C48   S    
C68   H68   S    
C14   C15   T    
C53   H33   S    
C23   O5    A    
C43   C44   S    
C71   H75   S    
C78   H92   S    
O24   C78   S    
C57   H41   S    
C30   C38   A    
C53   C54   S    
C44   H12   S    
C31   O14   S    
C42   H7    S    
C9    C13   S    
O22   C72   S    
C58   C59   S    
N1    Zn2   S    
C64   H60   S    
C55   H37   S    
N2    Zn1   S    
C72   H78   S    
C76   C77   S    
C17   O23   S    
C79   H94   S    
C52   C53   S    
C6    C38   A    
C1    C15   S    
C23   C27   S    
C66   H65   S    
C2    C16   S    
O15   C55   S    
C18   C20   A    
C56   C57   S    
C29   H1    S    
C49   H23   S    
C74   H83   S    
C43   H9    S    
O1    Zn1   S    
C70   H73   S    
C63   C64   S    
C44   H11   S    
C21   O22   S    
C45   H15   S    
C34   O11   S    
C62   H56   S    
C26   N1    T    
C73   H80   S    
C72   C73   S    
C46   H17   S    
C24   O6    A    
O4    Zn1   S    
C80   H98   S    
C27   C31   A    
C53   H32   S    
C77   H91   S    
C6    O10   S    
C28   C32   A    
O12   C46   S    
C72   H79   S    
C10   C14   S    
C50   H25   S    
C47   H18   S    
C51   H29   S    
C2    O4    A    
C46   H16   S    
C32   O13   S    
C18   O24   S    
C61   H52   S    
C2    O2    A    
O10   C42   S    
C77   H90   S    
C78   C79   S    
C35   C39   A    
C60   H49   S    
C4    O16   S    
C50   H26   S    
C62   H55   S    
C33   O12   S    
C23   O7    A    
C52   H30   S    
C67   H67   S    
C4    C39   A    
C36   C40   A    
O2    Zn2   S    
O9    C41   S    
C68   H69   S    
C68   H70   S    
C51   H27   S    
C54   H36   S    
C65   H61   S    
C66   C67   S    
C51   H28   S    
C9    C11   A    
C55   C56   S    
C58   H44   S    
C10   C12   A    
C57   H42   S    
C59   C60   S    
C70   C71   S    
C47   H19   S    
C48   H21   S    
C20   C22   A    
C3    C40   A    
O11   C43   S    
O3    Zn2   S    
C63   H58   S    
C7    C12   A    
C4    C6    A    
C41   H3    S    
C75   H86   S    
O17   C61   S    
C7    O19   S    
C64   C65   S    
O8    Zn1   S    
C35   C37   A    
C59   H47   S    
C56   H39   S    
C62   H54   S    
C74   H84   S    
C76   H87   S    
C7    C9    A    
C67   H66   S    
C19   C21   A    
C63   H57   S    
C5    O9    S    
C67   C68   S    
C1    O3    A    
C24   C28   S    
C49   H24   S    
C45   H13   S    
C3    C5    A    
C80   H97   S    
C73   H81   S    
C57   H43   S    
C54   H34   S    
C17   C22   A    
C41   H5    S    
C79   C80   S    
O7    Zn2   S    
C77   H89   S    
C75   C76   S    
C78   H93   S    
C66   H64   S    
C60   H50   S    
C29   C31   A    
O19   C63   S    
C50   C51   S    
C30   C32   A    
C22   O21   S    
C46   C47   S    
C1    O1    A    
O23   C75   S    
C49   C50   S    
C71   H76   S    
C3    O15   S    
C8    C11   A    
O5    Zn1   S    
C36   C38   A    
C61   H53   S    
C33   C35   A    
C41   H4    S    
C61   H51   S    
C34   C36   A    
C69   C70   S    
C25   N2    T    
C42   H6    S    
C19   C25   S    
C55   H38   S    
C58   H45   S    
C73   C74   S    
C28   C34   A    
C39   C40   A    
C17   C19   A    
C48   H22   S    
O20   C66   S    
C8    C10   A    
O14   C52   S    
C13   C16   T    
C29   C37   A    
O16   C58   S    
C30   H2    S    
C44   C45   S    
C76   H88   S    
C75   H85   S    
C11   O18   S    
C52   H31   S    
C79   H95   S    
O18   C62   S    
C60   H48   S    
C59   H46   S    
C56   H40   S    
C71   H77   S    
