data_mof_unit_20158.cif
_audit_creation_date              2012-12-11T15:45:02-0500
_audit_creation_method            fapswitch 2.2
_symmetry_space_group_name_H-M    P1
_symmetry_Int_Tables_number       1
_space_group_crystal_system       triclinic
_cell_length_a                    6.927131
_cell_length_b                    16.841976
_cell_length_c                    17.033
_cell_angle_alpha                 100.327674
_cell_angle_beta                  90.89216
_cell_angle_gamma                 89.199645
_cell_volume                      1954.62336732

loop_
_atom_site_label
_atom_site_type_symbol
_atom_type_description
_atom_site_fract_x
_atom_site_fract_y
_atom_site_fract_z
_atom_type_partial_charge
O1    O     O_R   0.494370 0.415690 0.413450 -0.544676
O2    O     O_R   0.819420 0.429360 0.578420 -0.541883
O3    O     O_R   0.994280 0.584310 0.586550 -0.525296
C1    C     C_R   0.653782 0.413452 0.605197 0.753287
O4    O     O_R   0.823790 0.406230 0.413570 -0.547428
O5    O     O_R   0.998670 0.561000 0.420530 -0.542844
C2    C     C_R   0.654773 0.383049 0.384845 0.679625
O6    O     O_R   0.489970 0.439000 0.579470 -0.529766
O7    O     O_3   0.662300 0.550810 0.502470 -0.359645
V1    V     V_3+5 0.935380 0.490570 0.499540 1.445750
O8    O     O_R   0.328650 0.570640 0.421580 -0.538894
C3    C     C_R   0.156861 0.585839 0.394495 0.704559
O9    O     O_R   0.324290 0.593770 0.586430 -0.534218
C4    C     C_R   0.154943 0.615300 0.616670 0.728266
V2    V     V_3+5 0.435930 0.509430 0.500460 1.458078
O10   O     O_3   0.159140 0.449190 0.497530 -0.375122
C5    C     C_R   0.292753 0.738513 0.702880 -0.154934
H1    H     H_    0.418191 0.732807 0.665032 0.143479
C6    C     C_R   0.283412 0.803188 0.767224 -0.135380
C7    C     C_R   0.121292 0.814596 0.816791 -0.079769
C8    C     C_R   0.971006 0.758955 0.801617 -0.157130
C9    C     C_R   0.980639 0.692884 0.738702 0.154454
C10   C     C_R   0.141869 0.682540 0.686889 -0.086078
C11   C     C_R   0.132007 0.637045 0.332205 -0.096565
C12   C     C_R   0.132067 0.864864 0.170027 -0.112374
C13   C     C_R   0.325399 0.823980 0.277790 -0.151847
C14   C     C_R   0.286390 0.878466 0.226490 0.154847
C15   C     C_R   0.012226 0.798118 0.170594 -0.201546
C16   C     C_R   0.049096 0.743691 0.223768 0.106482
C17   C     C_R   0.210573 0.756280 0.276570 0.102416
C18   C     C_R   0.252723 0.702461 0.329326 -0.194403
C19   C     C_R   0.971455 0.624933 0.279865 -0.170738
C20   C     C_R   0.929810 0.676852 0.225924 0.160120
H2    H     H_    0.374656 0.713407 0.370374 0.125450
H3    H     H_    0.875567 0.575005 0.281512 0.148222
C21   C     C_R   0.661326 0.362429 0.668160 -0.098378
C22   C     C_R   0.604326 0.138325 0.832491 -0.074818
C23   C     C_R   0.420289 0.186049 0.726263 -0.134444
C24   C     C_R   0.444693 0.132688 0.779712 -0.142409
C25   C     C_R   0.741527 0.198462 0.830032 -0.193308
C26   C     C_R   0.716699 0.254061 0.777108 0.104349
C27   C     C_R   0.553384 0.247552 0.724842 0.142419
C28   C     C_R   0.525640 0.302148 0.671509 -0.215351
C29   C     C_R   0.821166 0.369142 0.720915 -0.146112
C30   C     C_R   0.848990 0.316605 0.775243 0.143148
H4    H     H_    0.862492 0.203018 0.871395 0.155821
C31   C     C_R   0.812186 0.276568 0.282002 -0.141607
C32   C     C_R   0.801177 0.212966 0.216730 -0.126629
H5    H     H_    0.934201 0.185006 0.192402 0.121801
C33   C     C_R   0.621288 0.185791 0.183514 -0.038234
C34   C     C_R   0.452712 0.223942 0.217498 -0.118761
C35   C     C_R   0.463714 0.287532 0.282779 -0.135834
H6    H     H_    0.330675 0.315430 0.307153 0.117287
C36   C     C_R   0.643611 0.314755 0.315968 -0.046384
O11   O     O_R   0.774880 0.061150 0.920630 -0.542449
O12   O     O_R   0.440980 0.093710 0.086500 -0.536542
O13   O     O_R   0.266190 0.938890 0.079390 -0.520650
C37   C     C_R   0.610093 0.117425 0.114721 0.733357
O14   O     O_R   0.445420 0.070740 0.921670 -0.542523
O15   O     O_R   0.270660 0.915760 0.913380 -0.541334
C38   C     C_R   0.611060 0.086445 0.894718 0.689751
O16   O     O_R   0.770400 0.084270 0.086640 -0.541347
O17   O     O_3   0.602590 0.949210 0.997500 -0.358303
V3    V     V_3+5 0.329470 0.009420 0.000470 1.472214
O18   O     O_R   0.940650 0.906250 0.913470 -0.547426
C39   C     C_R   0.109874 0.883402 0.884804 0.690146
O19   O     O_R   0.936210 0.929220 0.078300 -0.532436
C40   C     C_R   0.107894 0.915425 0.106719 0.751270
V4    V     V_3+5 0.828930 0.990510 0.999490 1.463027
O20   O     O_3   0.105680 0.050790 0.002500 -0.373529
H7    H     H_    0.894236 0.787989 0.127815 0.170363
H8    H     H_    0.402869 0.295801 0.630694 0.125023
H9    H     H_    0.927269 0.415498 0.719448 0.167301
H10   H     H_    0.294923 0.180005 0.686872 0.121245
I1    I     I_    0.096143 0.336644 0.851506 -0.382900
H11   H     H_    0.336306 0.087074 0.780436 0.118321
H12   H     H_    0.953185 0.295806 0.305763 0.116654
H13   H     H_    0.311720 0.204632 0.193786 0.121041
H14   H     H_    0.402243 0.845072 0.777417 0.120707
H15   H     H_    0.846885 0.765594 0.840256 0.151184
I2    I     I_    0.749053 0.610442 0.733950 -0.382930
H16   H     H_    0.445566 0.835255 0.319668 0.143027
I3    I     I_    0.678183 0.651391 0.153119 -0.382411
I4    I     I_    0.463703 0.982228 0.244231 -0.426908

loop_
_geom_bond_atom_site_label_1
_geom_bond_atom_site_label_2
_ccdc_geom_bond_type
C37   O16   A    
C1    C21   S    
C25   C26   A    
C28   H8    S    
C26   C27   A    
C6    C7    A    
C1    O6    A    
C35   H6    S    
C12   C15   A    
C25   H4    S    
C13   C14   A    
C5    C10   A    
C7    C39   S    
C15   C16   A    
C23   C27   A    
C22   C25   A    
O5    C3    A    
C17   C18   A    
V2    O10   S    
C16   C20   A    
O8    V2    S    
O17   V4    S    
O12   V3    S    
O1    V2    S    
V3    O20   S    
O7    V1    S    
C32   C33   A    
O15   C39   A    
C13   H16   S    
C8    C9    A    
V4    O20   S    
C12   C40   S    
C35   C36   A    
C5    H1    S    
O14   C38   A    
O19   C40   A    
C33   C37   S    
C9    I2    S    
O4    C2    A    
C34   C35   A    
O16   V4    S    
O19   V4    S    
C4    C10   S    
O2    C1    A    
C11   C19   A    
C16   C17   A    
C31   C32   A    
C33   C34   A    
O14   V3    S    
C18   H2    S    
C24   H11   S    
C6    H14   S    
C20   I3    S    
O11   V4    S    
O3    C4    A    
C31   C36   A    
C32   H5    S    
C13   C17   A    
O6    V2    S    
O9    V2    S    
C21   C29   A    
C15   H7    S    
C27   C28   A    
C31   H12   S    
O13   C40   A    
O2    V1    S    
C29   C30   A    
O13   V3    S    
C23   H10   S    
C14   I4    S    
O1    C2    A    
C19   H3    S    
O5    V1    S    
C22   C38   S    
O8    C3    A    
C12   C14   A    
C3    C11   S    
O15   V3    S    
C30   I1    S    
C19   C20   A    
O7    V2    S    
C34   H13   S    
O4    V1    S    
C22   C24   A    
O3    V1    S    
V1    O10   S    
C23   C24   A    
O18   V4    S    
O11   C38   A    
C8    H15   S    
C5    C6    A    
O12   C37   A    
C29   H9    S    
C11   C18   A    
O17   V3    S    
C7    C8    A    
O18   C39   A    
C26   C30   A    
C9    C10   A    
C21   C28   A    
C2    C36   S    
O9    C4    A    
