data_mof_unit_34522.cif
_audit_creation_date              2012-10-26T20:34:01-0400
_audit_creation_method            fapswitch 2.2
_symmetry_space_group_name_H-M    P1
_symmetry_Int_Tables_number       1
_space_group_crystal_system       triclinic
_cell_length_a                    15.926471
_cell_length_b                    9.071768
_cell_length_c                    7.83648
_cell_angle_alpha                 90.025344
_cell_angle_beta                  89.616865
_cell_angle_gamma                 89.967128
_cell_volume                      1132.19881282

loop_
_atom_site_label
_atom_site_type_symbol
_atom_type_description
_atom_site_fract_x
_atom_site_fract_y
_atom_site_fract_z
_atom_type_partial_charge
C1    C     C_R   0.500040 0.220253 0.499977 0.547656
C2    C     C_3   0.049061 0.457549 0.327852 -0.011574
C3    C     C_3   0.948596 0.402216 0.629901 -0.000065
C4    C     C_3   0.951499 0.481425 0.321331 -0.013517
C5    C     C_1   0.749181 0.507204 0.498358 -0.059015
C6    C     C_1   0.250721 0.503890 0.502209 -0.045956
C7    C     C_3   0.083234 0.517278 0.503595 0.083307
C8    C     C_3   0.916525 0.525997 0.503980 0.074587
C9    C     C_3   0.949137 0.687290 0.559936 0.374752
C10   C     C_3   0.051716 0.685411 0.536839 0.360092
C11   C     C_3   0.100261 0.707090 0.856347 -0.267911
C12   C     C_1   0.824334 0.516223 0.499391 -0.074427
C13   C     C_3   0.085632 0.932952 0.396646 -0.326228
C14   C     C_3   0.930932 0.866923 0.805158 -0.293760
C15   C     C_3   0.821107 0.842669 0.469508 -0.308088
C16   C     C_1   0.175479 0.508947 0.503486 -0.053794
C17   C     C_R   0.340018 0.500106 0.500588 0.540881
C18   C     C_R   0.659973 0.500284 0.499447 0.537277
C19   C     C_1   0.500093 0.934538 0.500031 -0.055485
C20   C     C_1   0.500083 0.065458 0.499968 -0.054998
C21   C     C_R   0.500061 0.779750 0.500022 0.546634
C22   C     C_3   0.046717 0.399228 0.633007 0.010676
Cu1   Cu    Cu3+1 0.500000 0.500010 0.669080 1.011308
Cu2   Cu    Cu3+1 0.500000 0.500010 0.330920 1.013908
H1    H     H_    0.928053 0.294235 0.575477 0.080316
H2    H     H_    0.081243 0.983235 0.267661 0.112444
H3    H     H_    0.148647 0.960611 0.446669 0.150716
H4    H     H_    0.036539 0.983604 0.478508 0.160251
H5    H     H_    0.869739 0.669343 0.778628 0.259919
H6    H     H_    0.942552 0.862209 0.944574 0.132656
H7    H     H_    0.871283 0.927727 0.786613 0.126139
H8    H     H_    0.982176 0.930470 0.744127 0.178621
H9    H     H_    0.929698 0.821976 0.330649 0.269984
H10   H     H_    0.785225 0.796895 0.360618 0.144172
H11   H     H_    0.815285 0.964550 0.465693 0.131235
H12   H     H_    0.923095 0.372921 0.286525 0.102803
H13   H     H_    0.791961 0.802991 0.589505 0.155534
H14   H     H_    0.123124 0.419087 0.115700 0.229362
H15   H     H_    0.144577 0.578517 0.203090 0.247923
H16   H     H_    0.063227 0.309322 0.870153 0.219792
H17   H     H_    0.147278 0.392158 0.795446 0.219215
H18   H     H_    0.945703 0.543516 0.071039 0.295164
H19   H     H_    0.861253 0.589773 0.182380 0.233073
H20   H     H_    0.846096 0.409425 0.793813 0.221551
H21   H     H_    0.925032 0.312597 0.866416 0.218190
H22   H     H_    0.065292 0.287468 0.585795 0.073732
H23   H     H_    0.057328 0.335185 0.325359 0.085340
H24   H     H_    0.158137 0.787952 0.645717 0.254540
H25   H     H_    0.157423 0.640492 0.880498 0.161434
H26   H     H_    0.043727 0.646837 0.895331 0.261859
H27   H     H_    0.104717 0.806470 0.938455 0.120821
H28   H     H_    0.049487 0.744336 0.270139 0.286142
N1    N     N_1   0.500000 0.499970 0.076820 -0.081795
N2    N     N_3   0.911507 0.410517 0.801906 -0.630158
N3    N     N_1   0.500000 0.499970 0.923180 -0.081848
N4    N     N_2   0.098724 0.752984 0.679859 -0.495216
N5    N     N_2   0.075151 0.773614 0.384669 -0.522752
N6    N     N_2   0.925017 0.717202 0.738440 -0.469761
N7    N     N_2   0.909259 0.802744 0.452777 -0.499858
N8    N     N_3   0.094279 0.509472 0.174400 -0.643934
N9    N     N_3   0.082129 0.404035 0.804373 -0.617297
N10   N     N_3   0.926751 0.586009 0.188418 -0.649376
O1    O     O_R   0.500000 0.288400 0.642760 -0.495317
O2    O     O_R   0.500000 0.288400 0.357240 -0.495052
O3    O     O_R   0.379440 0.500020 0.642850 -0.499814
O4    O     O_R   0.379440 0.500020 0.357150 -0.496970
O5    O     O_R   0.620560 0.500020 0.642850 -0.500366
O6    O     O_R   0.620560 0.500020 0.357150 -0.498687
O7    O     O_R   0.500000 0.711620 0.642810 -0.495694
O8    O     O_R   0.500000 0.711620 0.357190 -0.495291

loop_
_geom_bond_atom_site_label_1
_geom_bond_atom_site_label_2
_ccdc_geom_bond_type
C7    C10   S    
C2    C4    S    
Cu1   Cu2   S    
C4    H12   S    
C13   H4    S    
Cu1   N3    S    
C11   H25   S    
Cu2   O4    S    
C2    H23   S    
C7    C22   S    
C10   N4    S    
C9    C10   S    
H18   N10   S    
C15   H10   S    
C17   O3    A    
C19   C20   T    
H20   N2    S    
H17   N9    S    
C21   O8    A    
C4    C8    S    
Cu1   O3    S    
C14   H7    S    
Cu1   O1    S    
Cu2   N1    S    
Cu2   O8    S    
Cu2   O2    S    
C11   H26   S    
C22   N9    S    
H16   N9    S    
C17   O4    A    
C15   N7    S    
C14   H6    S    
H14   N8    S    
H15   N8    S    
C1    O1    A    
C1    C20   S    
C15   H11   S    
C7    C16   S    
C19   C21   S    
H21   N2    S    
C3    C8    S    
N1    N3    T    
C14   N6    S    
C3    N2    S    
C2    N8    S    
C13   H2    S    
C14   H8    S    
C13   N5    S    
H28   N5    S    
Cu2   O6    S    
C18   O6    A    
C1    O2    A    
C4    N10   S    
C3    H1    S    
C10   N5    S    
C11   H27   S    
H5    N6    S    
C5    C12   T    
H9    N7    S    
C9    N6    S    
Cu1   O5    S    
H24   N4    S    
C6    C17   S    
Cu1   O7    S    
C13   H3    S    
C3    C22   S    
C5    C18   S    
C22   H22   S    
C18   O5    A    
C6    C16   T    
C8    C12   S    
C15   H13   S    
C11   N4    S    
C2    C7    S    
H19   N10   S    
C21   O7    A    
C8    C9    S    
C9    N7    S    
