data_mof_unit_24606.cif
_audit_creation_date              2012-12-11T15:17:38-0500
_audit_creation_method            fapswitch 2.2
_symmetry_space_group_name_H-M    P1
_symmetry_Int_Tables_number       1
_space_group_crystal_system       monoclinic
_cell_length_a                    6.913421
_cell_length_b                    20.339994
_cell_length_c                    22.323882
_cell_angle_alpha                 90.0
_cell_angle_beta                  89.99999
_cell_angle_gamma                 90.0
_cell_volume                      3139.16066057

loop_
_atom_site_label
_atom_site_type_symbol
_atom_type_description
_atom_site_fract_x
_atom_site_fract_y
_atom_site_fract_z
_atom_type_partial_charge
O1    O     O_R   0.620180 0.810610 0.187990 -0.538331
O2    O     O_R   0.379820 0.189390 0.812010 -0.538331
O3    O     O_R   0.379820 0.189390 0.687990 -0.538331
O4    O     O_R   0.620180 0.810610 0.312010 -0.538331
O5    O     O_R   0.120180 0.689390 0.312010 -0.538331
O6    O     O_R   0.879820 0.310610 0.687990 -0.538331
O7    O     O_R   0.879820 0.310610 0.812010 -0.538331
O8    O     O_R   0.120180 0.689390 0.187990 -0.538331
O9    O     O_R   0.290420 0.818570 0.311590 -0.527927
O10   O     O_R   0.709580 0.181430 0.688410 -0.527927
O11   O     O_R   0.709580 0.181430 0.811590 -0.527927
O12   O     O_R   0.290420 0.818570 0.188410 -0.527927
O13   O     O_R   0.790420 0.681430 0.188410 -0.527927
O14   O     O_R   0.209580 0.318570 0.811590 -0.527927
O15   O     O_R   0.209580 0.318570 0.688410 -0.527927
O16   O     O_R   0.790420 0.681430 0.311590 -0.527927
H1    H     H_    0.433697 0.521784 0.586448 0.135656
H2    H     H_    0.566303 0.478216 0.413552 0.135656
H3    H     H_    0.566303 0.478216 0.086448 0.135657
H4    H     H_    0.433697 0.521784 0.913552 0.135657
H5    H     H_    0.933697 0.978216 0.913552 0.135657
H6    H     H_    0.066303 0.021784 0.086448 0.135657
H7    H     H_    0.066303 0.021784 0.413552 0.135656
H8    H     H_    0.933697 0.978216 0.586448 0.135656
C1    C     C_R   0.459876 0.833296 0.333400 0.724857
C2    C     C_R   0.540124 0.166704 0.666600 0.724858
C3    C     C_R   0.540124 0.166704 0.833400 0.724857
C4    C     C_R   0.459876 0.833296 0.166600 0.724858
C5    C     C_R   0.959876 0.666704 0.166600 0.724858
C6    C     C_R   0.040124 0.333296 0.833400 0.724857
C7    C     C_R   0.040124 0.333296 0.666600 0.724858
C8    C     C_R   0.959876 0.666704 0.333400 0.724857
H9    H     H_    0.293335 0.429261 0.639669 0.152545
H10   H     H_    0.706665 0.570739 0.360331 0.152545
H11   H     H_    0.706665 0.570739 0.139669 0.152545
H12   H     H_    0.293335 0.429261 0.860331 0.152545
H13   H     H_    0.793335 0.070739 0.860331 0.152545
H14   H     H_    0.206665 0.929261 0.139669 0.152545
H15   H     H_    0.206665 0.929261 0.360331 0.152545
H16   H     H_    0.793335 0.070739 0.639669 0.152545
H17   H     H_    0.419256 0.604087 0.508545 0.159918
H18   H     H_    0.580744 0.395913 0.491455 0.159918
H19   H     H_    0.580744 0.395913 0.008545 0.159918
H20   H     H_    0.419256 0.604087 0.991455 0.159918
H21   H     H_    0.919256 0.895913 0.991455 0.159918
H22   H     H_    0.080744 0.104087 0.008545 0.159918
H23   H     H_    0.080744 0.104087 0.491455 0.159918
H24   H     H_    0.919256 0.895913 0.508545 0.159918
O17   O     O_3   0.453640 0.707610 0.250000 -0.364735
O18   O     O_3   0.546360 0.292390 0.750000 -0.364735
O19   O     O_3   0.953640 0.792390 0.250000 -0.364736
O20   O     O_3   0.046360 0.207610 0.750000 -0.364736
V1    V     V_3+5 0.178800 0.757860 0.250000 1.560872
V2    V     V_3+5 0.821200 0.242140 0.750000 1.560872
V3    V     V_3+5 0.678800 0.742140 0.250000 1.560872
V4    V     V_3+5 0.321200 0.257860 0.750000 1.560872
C9    C     C_R   0.868204 0.380510 0.574956 -0.073211
C10   C     C_R   0.131796 0.619490 0.425044 -0.073211
C11   C     C_R   0.131796 0.619490 0.074956 -0.073211
C12   C     C_R   0.868204 0.380510 0.925044 -0.073211
C13   C     C_R   0.368204 0.119490 0.925044 -0.073211
C14   C     C_R   0.631796 0.880510 0.074956 -0.073211
C15   C     C_R   0.631796 0.880510 0.425044 -0.073211
C16   C     C_R   0.368204 0.119490 0.574956 -0.073211
C17   C     C_R   0.026372 0.381093 0.615899 -0.167857
C18   C     C_R   0.973628 0.618907 0.384101 -0.167857
C19   C     C_R   0.973628 0.618907 0.115899 -0.167857
C20   C     C_R   0.026372 0.381093 0.884101 -0.167857
C21   C     C_R   0.526372 0.118907 0.884101 -0.167857
C22   C     C_R   0.473628 0.881092 0.115899 -0.167857
C23   C     C_R   0.473628 0.881092 0.384101 -0.167857
C24   C     C_R   0.526372 0.118907 0.615899 -0.167857
C25   C     C_R   0.172369 0.428395 0.608760 -0.169528
C26   C     C_R   0.827631 0.571605 0.391240 -0.169528
C27   C     C_R   0.827631 0.571605 0.108760 -0.169528
C28   C     C_R   0.172369 0.428395 0.891239 -0.169528
C29   C     C_R   0.672369 0.071605 0.891239 -0.169528
C30   C     C_R   0.327631 0.928395 0.108760 -0.169528
C31   C     C_R   0.327631 0.928395 0.391240 -0.169528
C32   C     C_R   0.672369 0.071605 0.608760 -0.169528
C33   C     C_R   0.163110 0.475276 0.562839 0.090660
C34   C     C_R   0.836890 0.524724 0.437161 0.090660
C35   C     C_R   0.836890 0.524724 0.062839 0.090660
C36   C     C_R   0.163110 0.475276 0.937161 0.090660
C37   C     C_R   0.663110 0.024724 0.937161 0.090660
C38   C     C_R   0.336890 0.975276 0.062839 0.090660
C39   C     C_R   0.336890 0.975276 0.437161 0.090660
C40   C     C_R   0.663110 0.024724 0.562839 0.090660
C41   C     C_R   0.004418 0.476056 0.523114 0.053813
C42   C     C_R   0.995582 0.523944 0.476886 0.053813
C43   C     C_R   0.995582 0.523944 0.023114 0.053813
C44   C     C_R   0.004418 0.476056 0.976886 0.053813
C45   C     C_R   0.504418 0.023944 0.976886 0.053813
C46   C     C_R   0.495582 0.976056 0.023114 0.053813
C47   C     C_R   0.495582 0.976056 0.476886 0.053813
C48   C     C_R   0.504418 0.023944 0.523114 0.053813
C49   C     C_R   0.855450 0.428847 0.529201 0.022858
C50   C     C_R   0.144550 0.571153 0.470799 0.022858
C51   C     C_R   0.144550 0.571153 0.029201 0.022857
C52   C     C_R   0.855450 0.428847 0.970799 0.022857
C53   C     C_R   0.355450 0.071153 0.970799 0.022858
C54   C     C_R   0.644550 0.928847 0.029201 0.022857
C55   C     C_R   0.644550 0.928847 0.470799 0.022858
C56   C     C_R   0.355450 0.071153 0.529201 0.022857
C57   C     C_R   0.310490 0.521878 0.556416 -0.176771
C58   C     C_R   0.689510 0.478122 0.443584 -0.176771
C59   C     C_R   0.689510 0.478122 0.056416 -0.176772
C60   C     C_R   0.310490 0.521878 0.943584 -0.176772
C61   C     C_R   0.810490 0.978122 0.943584 -0.176772
C62   C     C_R   0.189510 0.021878 0.056416 -0.176772
C63   C     C_R   0.189510 0.021878 0.443584 -0.176771
C64   C     C_R   0.810490 0.978122 0.556416 -0.176771
C65   C     C_R   0.301395 0.569236 0.511320 -0.161293
C66   C     C_R   0.698605 0.430764 0.488680 -0.161293
C67   C     C_R   0.698605 0.430764 0.011320 -0.161293
C68   C     C_R   0.301395 0.569236 0.988680 -0.161293
C69   C     C_R   0.801395 0.930764 0.988680 -0.161293
C70   C     C_R   0.198605 0.069236 0.011320 -0.161293
C71   C     C_R   0.198605 0.069236 0.488680 -0.161293
C72   C     C_R   0.801395 0.930764 0.511320 -0.161293
C73   C     C_2   0.724993 0.326555 0.576670 0.769585
O21   O     O_2   0.562909 0.336495 0.596537 -0.554656
O22   O     O_R   0.776239 0.264712 0.554692 -0.654343
H25   H     H_    0.665452 0.232259 0.556102 0.315956
C74   C     C_2   0.275007 0.673445 0.423330 0.769585
O23   O     O_2   0.437090 0.663505 0.403463 -0.554656
O24   O     O_R   0.223761 0.735288 0.445308 -0.654343
H26   H     H_    0.334548 0.767741 0.443898 0.315956
C75   C     C_2   0.275007 0.673445 0.076670 0.769585
O25   O     O_2   0.437090 0.663505 0.096537 -0.554656
O26   O     O_R   0.223761 0.735288 0.054692 -0.654343
H27   H     H_    0.334549 0.767741 0.056101 0.315956
C76   C     C_2   0.724993 0.326555 0.923330 0.769585
O27   O     O_2   0.562909 0.336495 0.903463 -0.554656
O28   O     O_R   0.776239 0.264712 0.945308 -0.654343
H28   H     H_    0.665451 0.232259 0.943898 0.315956
C77   C     C_2   0.224993 0.173445 0.923330 0.769585
O29   O     O_2   0.062909 0.163505 0.903463 -0.554656
O30   O     O_R   0.276239 0.235288 0.945308 -0.654343
H29   H     H_    0.165451 0.267741 0.943898 0.315956
C78   C     C_2   0.775007 0.826554 0.076670 0.769586
O31   O     O_2   0.937091 0.836495 0.096536 -0.554656
O32   O     O_R   0.723761 0.764712 0.054692 -0.654343
H30   H     H_    0.834549 0.732259 0.056102 0.315956
C79   C     C_2   0.775007 0.826554 0.423330 0.769585
O33   O     O_2   0.937090 0.836495 0.403463 -0.554656
O34   O     O_R   0.723761 0.764712 0.445308 -0.654343
H31   H     H_    0.834548 0.732259 0.443898 0.315956
C80   C     C_2   0.224993 0.173445 0.576670 0.769585
O35   O     O_2   0.062910 0.163505 0.596537 -0.554656
O36   O     O_R   0.276239 0.235288 0.554692 -0.654343
H32   H     H_    0.165452 0.267741 0.556102 0.315956

loop_
_geom_bond_atom_site_label_1
_geom_bond_atom_site_label_2
_ccdc_geom_bond_type
O14   V4    S    
C40   C48   A    
C45   C46   A    
C14   C54   A    
C22   C30   A    
C11   C51   A    
C21   C29   A    
C47   C48   A    
C10   C50   A    
C60   C68   A    
C27   C35   A    
C62   C70   A    
C23   C31   A    
O4    C1    A    
O9    C1    A    
O28   H28   S    
H24   C72   S    
C77   O30   S    
H11   C27   S    
O18   V2    S    
C58   C66   A    
C53   C70   A    
H20   C68   S    
C57   C65   A    
C38   C62   A    
C26   C34   A    
C37   C61   A    
C78   O32   S    
C39   C63   A    
C13   C21   A    
O32   H30   S    
C18   C26   A    
C17   C25   A    
C14   C22   A    
C63   C71   A    
C25   C33   A    
C38   C46   A    
O34   H31   S    
C11   C19   A    
C5    C19   S    
C37   C45   A    
H18   C66   S    
C55   C72   A    
C34   C58   A    
O20   V2    S    
H6    C62   S    
H8    C64   S    
O1    C4    A    
O36   H32   S    
H16   C32   S    
O2    C3    A    
C1    C23   S    
C15   C79   S    
H12   C28   S    
C4    C22   S    
O12   V1    S    
C3    C21   S    
C56   C71   A    
H19   C67   S    
C30   C38   A    
H23   C71   S    
O6    C7    A    
C29   C37   A    
O7    C6    A    
C76   O28   S    
C28   C36   A    
C52   C67   A    
O6    V2    S    
C31   C39   A    
C79   O34   S    
C47   C55   A    
C79   O33   D    
C33   C57   A    
C61   C69   A    
O22   H25   S    
C15   C55   A    
C45   C53   A    
C51   C68   A    
C64   C72   A    
C50   C65   A    
H14   C30   S    
O17   V3    S    
H13   C29   S    
O18   V4    S    
C41   C49   A    
O19   V1    S    
H15   C31   S    
C13   C53   A    
H2    C58   S    
H1    C57   S    
O3    V4    S    
C8    C18   S    
O11   C3    A    
C9    C49   A    
O10   C2    A    
O8    C5    A    
C2    C24   S    
O11   V2    S    
C59   C67   A    
C73   O21   D    
C15   C23   A    
C54   C69   A    
H10   C26   S    
H9    C25   S    
O12   C4    A    
C48   C56   A    
O4    V3    S    
C74   O23   D    
H22   C70   S    
C19   C27   A    
O13   C5    A    
C14   C78   S    
O26   H27   S    
C41   C42   A    
C43   C44   A    
H7    C63   S    
C44   C52   A    
C10   C18   A    
C75   O25   D    
O5    V1    S    
C7    C17   S    
C39   C47   A    
C11   C75   S    
O3    C2    A    
C16   C56   A    
H17   C65   S    
C12   C52   A    
O8    V1    S    
H5    C61   S    
O30   H29   S    
O15   C7    A    
O16   C8    A    
C35   C43   A    
C77   O29   D    
C34   C42   A    
C16   C80   S    
C43   C51   A    
O15   V4    S    
O5    C8    A    
C80   O36   S    
O1    V3    S    
O16   V3    S    
C33   C41   A    
C32   C40   A    
O2    V4    S    
C80   O35   D    
C20   C28   A    
C13   C77   S    
C76   O27   D    
O17   V1    S    
C9    C17   A    
C36   C60   A    
C35   C59   A    
O19   V3    S    
C16   C24   A    
O10   V2    S    
C6    C20   S    
H21   C69   S    
C73   O22   S    
C9    C73   S    
C40   C64   A    
O20   V4    S    
O9    V1    S    
C12   C20   A    
C10   C74   S    
C24   C32   A    
C74   O24   S    
C36   C44   A    
O7    V2    S    
C75   O26   S    
C49   C66   A    
C78   O31   D    
C12   C76   S    
C42   C50   A    
O14   C6    A    
O24   H26   S    
C46   C54   A    
H4    C60   S    
O13   V3    S    
H3    C59   S    
