data_mof_unit_40410.cif
_audit_creation_date              2013-03-05T15:48:11-0500
_audit_creation_method            fapswitch 2.2
_symmetry_space_group_name_H-M    P1
_symmetry_Int_Tables_number       1
_space_group_crystal_system       triclinic
_cell_length_a                    20.941779
_cell_length_b                    7.126004
_cell_length_c                    14.002989
_cell_angle_alpha                 90.012007
_cell_angle_beta                  98.160845
_cell_angle_gamma                 89.984934
_cell_volume                      2068.52152604

loop_
_atom_site_label
_atom_site_type_symbol
_atom_site_description
_atom_site_fract_x
_atom_site_fract_y
_atom_site_fract_z
_atom_type_partial_charge
O1    O     O_R   0.447130 0.507140 0.597350 -0.597588
O2    O     O_R   0.552870 0.007140 0.402650 -0.597311
O3    O     O_R   0.578910 0.181280 0.586990 -0.588125
O4    O     O_R   0.421090 0.681280 0.413010 -0.588500
C1    C     C_R   0.604483 0.344483 0.607415 0.994017
C2    C     C_R   0.395517 0.844500 0.392585 0.994308
O5    O     O_R   0.449230 0.177860 0.608640 -0.573250
O6    O     O_R   0.550770 0.677860 0.391360 -0.573869
O7    O     O_R   0.422260 0.000770 0.424450 -0.567751
O8    O     O_R   0.577740 0.500770 0.575550 -0.567859
C3    C     C_R   0.432735 0.346479 0.634567 1.052597
C4    C     C_R   0.567248 0.846409 0.365417 1.052864
O9    O     O_3   0.491310 0.336980 0.439550 -0.278262
O10   O     O_3   0.508690 0.836980 0.560450 -0.277886
V1    V     V_3+5 0.501610 0.064760 0.511210 1.285899
V2    V     V_3+5 0.498390 0.564760 0.488790 1.285345
C5    C     C_R   0.621324 0.939838 0.125942 0.432273
C6    C     C_R   0.378470 0.444084 0.873545 0.431654
H1    H     H_    0.533522 0.971812 0.187418 0.187432
H2    H     H_    0.466176 0.475965 0.811806 0.187836
C7    C     C_R   0.609040 0.857404 0.290475 -0.304866
C8    C     C_R   0.390967 0.357836 0.709546 -0.304873
C9    C     C_R   0.920471 0.872947 0.305939 -0.176835
C10   C     C_R   0.079517 0.370475 0.694038 -0.176722
C11   C     C_R   0.883013 0.884800 0.379928 -0.099224
C12   C     C_R   0.116954 0.381204 0.619984 -0.099423
C13   C     C_R   0.816003 0.880082 0.359254 -0.068864
C14   C     C_R   0.183973 0.377356 0.640669 -0.069051
C15   C     C_R   0.784601 0.855606 0.263618 0.147977
C16   C     C_R   0.215415 0.354995 0.736422 0.148187
C17   C     C_R   0.823014 0.855502 0.187944 0.054349
C18   C     C_R   0.177007 0.356087 0.812101 0.054266
C19   C     C_R   0.716019 0.849151 0.240617 -0.094504
C20   C     C_R   0.284004 0.349520 0.759450 -0.094469
C21   C     C_R   0.687395 0.886611 0.143832 -0.191599
C22   C     C_R   0.312550 0.389328 0.856004 -0.191028
C23   C     C_R   0.725954 0.870103 0.068794 0.405598
C24   C     C_R   0.274051 0.373698 0.931149 0.406339
C25   C     C_R   0.792800 0.853962 0.091807 -0.327489
C26   C     C_R   0.207230 0.356502 0.908240 -0.327329
C27   C     C_R   0.674793 0.810817 0.310718 0.302158
C28   C     C_R   0.325305 0.310100 0.689576 0.302587
C29   C     C_R   0.583517 0.927224 0.200204 -0.262658
C30   C     C_R   0.416310 0.430186 0.799363 -0.261814
C31   C     C_R   0.891120 0.860687 0.210122 -0.131980
C32   C     C_R   0.108894 0.360310 0.789907 -0.131792
H3    H     H_    0.972536 0.879684 0.323113 0.111379
H4    H     H_    0.027440 0.376346 0.676838 0.111351
H5    H     H_    0.789689 0.905766 0.418764 0.156841
H6    H     H_    0.210247 0.402032 0.581024 0.156799
H7    H     H_    0.905984 0.902382 0.453664 0.128248
H8    H     H_    0.093953 0.397147 0.546163 0.128196
H9    H     H_    0.821137 0.842192 0.033145 0.165820
H10   H     H_    0.178915 0.345510 0.966958 0.165795
C33   C     C_1   0.166681 0.857182 0.168117 -0.261430
C34   C     C_1   0.833317 0.357224 0.831887 -0.261564
C35   C     C_1   0.219103 0.854958 0.219174 0.137536
C36   C     C_1   0.780894 0.354980 0.780833 0.137276
C37   C     C_1   0.280832 0.853515 0.279232 0.152569
C38   C     C_1   0.719166 0.353498 0.720774 0.153053
C39   C     C_1   0.333161 0.851156 0.330533 -0.187291
C40   C     C_1   0.666838 0.351119 0.669471 -0.186818
O11   O     O_R   0.922300 0.202240 0.924350 -0.577867
O12   O     O_R   0.077700 0.702240 0.075650 -0.577847
O13   O     O_R   0.050780 0.535130 0.891350 -0.589888
O14   O     O_R   0.949220 0.035130 0.108650 -0.589912
C41   C     C_R   0.067606 0.368058 0.865657 0.921208
C42   C     C_R   0.932394 0.868126 0.134346 0.921261
O15   O     O_R   0.921100 0.531560 0.912990 -0.587660
O16   O     O_R   0.078900 0.031560 0.087010 -0.587764
O17   O     O_R   0.947120 0.708470 0.097370 -0.591528
O18   O     O_R   0.052880 0.208470 0.902630 -0.591376
C43   C     C_R   0.895837 0.363590 0.893525 0.961279
C44   C     C_R   0.104162 0.863573 0.106476 0.961342
O19   O     O_3   0.008710 0.375800 0.060400 -0.280675
O20   O     O_3   0.991290 0.875800 0.939600 -0.280568
V3    V     V_3+5 0.998380 0.648080 0.988790 1.194099
V4    V     V_3+5 0.001620 0.148080 0.011210 1.194061
N1    N     N_R   0.698010 0.850474 0.969422 0.255184
O21   O     O_R   0.726756 0.922546 0.901481 -0.384433
O22   O     O_R   0.650381 0.734404 0.945968 -0.332599
N2    N     N_R   0.302075 0.356023 0.030595 0.255364
O23   O     O_R   0.273068 0.428047 0.098293 -0.385113
O24   O     O_R   0.350225 0.241873 0.054461 -0.332880
N3    N     N_R   0.593674 0.027739 0.037272 0.261513
O25   O     O_R   0.623911 0.165204 0.001972 -0.340907
O26   O     O_R   0.533972 0.994193 0.001395 -0.297656
N4    N     N_R   0.405817 0.535066 0.961539 0.261848
O27   O     O_R   0.374828 0.671693 0.996239 -0.341043
O28   O     O_R   0.465836 0.505513 0.997087 -0.298580
N5    N     N_R   0.697481 0.705511 0.396625 0.215177
O29   O     O_R   0.685757 0.762149 0.480803 -0.428537
O30   O     O_R   0.730298 0.551884 0.390630 -0.400291
N6    N     N_R   0.302794 0.202939 0.604222 0.215304
O31   O     O_R   0.314334 0.258206 0.519737 -0.429033
O32   O     O_R   0.270238 0.049149 0.611015 -0.400011

loop_
_geom_bond_atom_site_label_1
_geom_bond_atom_site_label_2
_geom_bond_distance
_ccdc_geom_bond_type
O14   C42   1.306253 A    
C9    C31   1.396960 A    
C13   C15   1.416430 A    
O12   V3    1.952982 S    
O15   V3    1.986925 S    
O1    C3    1.310815 A    
O2    C4    1.310917 A    
C2    O7    1.296919 A    
C5    C29   1.396468 A    
C8    C28   1.405627 A    
N3    O25   1.301632 A    
O5    C3    1.315345 A    
C23   N1    1.437736 S    
C5    N3    1.437125 S    
C2    C39   1.462993 S    
C21   C23   1.418015 A    
C10   C12   1.388045 A    
C12   H8    1.082660 S    
C35   C37   1.438690 S    
O16   V4    1.986753 S    
C36   C38   1.438695 S    
C15   C19   1.427335 A    
C38   C40   1.222184 T    
C41   O18   1.304679 A    
O18   V4    2.028100 S    
C7    C29   1.392615 A    
C33   C44   1.463020 S    
C14   H6    1.077872 S    
C8    C30   1.392726 A    
C17   C25   1.403885 A    
O13   C41   1.306376 A    
C20   C28   1.422806 A    
O16   C44   1.321375 A    
O15   C43   1.321411 A    
C16   C18   1.418458 A    
O5    V1    2.034236 S    
O6    V2    2.034691 S    
C24   N2    1.437864 S    
H2    C30   1.084337 S    
H1    C29   1.084344 S    
N3    O26   1.301727 A    
O14   V4    2.034636 S    
C37   C39   1.222181 T    
O13   V3    2.034181 S    
C16   C20   1.427288 A    
C10   H4    1.083770 S    
C9    H3    1.083767 S    
O20   V3    1.760987 S    
O4    C2    1.295282 A    
N5    O29   1.301736 A    
N1    O22   1.301610 A    
O11   C43   1.321889 A    
C4    C7    1.460885 S    
C6    N4    1.437398 S    
C26   H10   1.082716 S    
O4    V2    1.986945 S    
C11   H7    1.082665 S    
C6    C30   1.396576 A    
N5    O30   1.301453 A    
O6    C4    1.315155 A    
C31   C42   1.461590 S    
O1    V2    2.023766 S    
N6    O32   1.301442 A    
O2    V1    2.023521 S    
O19   V3    2.180817 S    
C7    C27   1.405575 A    
C27   N5    1.440104 S    
N4    O28   1.301609 A    
N2    O24   1.301588 A    
C33   C35   1.222188 T    
O17   V3    2.027847 S    
O3    V1    1.987115 S    
C34   C43   1.463029 S    
C28   N6    1.440044 S    
C18   C32   1.416413 A    
O20   V4    2.180545 S    
O3    C1    1.295321 A    
C11   C13   1.392445 A    
C3    C8    1.461039 S    
C12   C14   1.392481 A    
C19   C27   1.422813 A    
C22   C24   1.417967 A    
O7    V1    1.967807 S    
C10   C32   1.396938 A    
C32   C41   1.461559 S    
C23   C25   1.395914 A    
O8    V2    1.967722 S    
C24   C26   1.395970 A    
C25   H9    1.082724 S    
C42   O17   1.304790 A    
C14   C16   1.416397 A    
C19   C21   1.427169 A    
C34   C36   1.222193 T    
C1    C40   1.463003 S    
C20   C22   1.426994 A    
C18   C26   1.403936 A    
N6    O31   1.301728 A    
O19   V4    1.760792 S    
N1    O21   1.301634 A    
C1    O8    1.296923 A    
C9    C11   1.388012 A    
N4    O27   1.301601 A    
C15   C17   1.418458 A    
N2    O23   1.301621 A    
C17   C31   1.416446 A    
O9    V2    1.761446 S    
O12   C44   1.321878 A    
O10   V1    1.761640 S    
C5    C21   1.422130 A    
C6    C22   1.422077 A    
C13   H5    1.077889 S    
O11   V4    1.952908 S    
