data_mof_unit_39547.cif
_audit_creation_date              2012-12-10T17:21:11-0500
_audit_creation_method            fapswitch 2.2
_symmetry_space_group_name_H-M    P1
_symmetry_Int_Tables_number       1
_space_group_crystal_system       triclinic
_cell_length_a                    10.23137
_cell_length_b                    10.84703
_cell_length_c                    11.247711
_cell_angle_alpha                 88.073553
_cell_angle_beta                  97.877263
_cell_angle_gamma                 79.247743
_cell_volume                      1212.53428516

loop_
_atom_site_label
_atom_site_type_symbol
_atom_type_description
_atom_site_fract_x
_atom_site_fract_y
_atom_site_fract_z
_atom_type_partial_charge
C1    C     C_R   0.441728 0.507681 0.268490 0.958501
C2    C     C_3   0.497577 0.879388 0.483745 -0.249785
C3    C     C_3   0.546030 0.913102 0.616989 -0.403765
C4    C     C_3   0.350680 0.964635 0.437956 0.247453
C5    C     C_2   0.406950 0.519266 0.138329 -0.323437
C6    C     C_2   0.504701 0.489674 0.067740 0.312857
C7    C     C_2   0.597492 0.490999 0.862605 -0.270512
C8    C     C_2   0.487675 0.520519 0.931969 0.353318
C9    C     C_2   0.078023 0.507840 0.473235 0.409530
C10   C     C_2   0.926972 0.517805 0.491671 0.350985
C11   C     C_R   0.499787 0.257984 0.496902 0.951996
C12   C     C_R   0.558415 0.494152 0.731836 0.944744
C13   C     C_R   0.497221 0.742683 0.493090 0.882759
C14   C     C_3   0.605605 0.050744 0.410299 0.705427
C15   C     C_3   0.595406 0.906733 0.391354 0.186641
C16   C     C_3   0.538845 0.057519 0.628165 0.405828
C17   C     C_3   0.351687 0.106808 0.451573 -0.276329
C18   C     C_3   0.499998 0.120734 0.496340 -0.257863
H1    H     H_    0.481540 0.878463 0.678277 0.264271
H2    H     H_    0.302785 0.561675 0.108956 0.136193
H3    H     H_    0.647539 0.859247 0.653322 0.134037
H4    H     H_    0.327618 0.168018 0.365358 0.141190
N1    N     N_2   0.157300 0.551950 0.551120 -0.176100
N2    N     N_2   0.842730 0.448000 0.448950 -0.169485
O1    O     O_R   0.568940 0.489540 0.307530 -0.560332
O2    O     O_R   0.348880 0.522880 0.340350 -0.568767
O3    O     O_R   0.610030 0.298130 0.483570 -0.607228
O4    O     O_R   0.389960 0.331470 0.516390 -0.569172
O5    O     O_R   0.651120 0.477120 0.659650 -0.601100
O6    O     O_R   0.431060 0.510460 0.692470 -0.539135
O7    O     O_R   0.610040 0.668530 0.483610 -0.568297
O8    O     O_R   0.389970 0.701870 0.516430 -0.628726
Zn1   Zn    Zn3+2 0.646940 0.477740 0.478080 1.052820
Zn2   Zn    Zn3+2 0.353060 0.522260 0.521920 1.063422
O9    O     O_3   0.739463 0.056755 0.465432 -0.759423
H5    H     H_    0.775572 0.000441 0.538135 0.316550
O10   O     O_3   0.258398 0.927258 0.506950 -0.746691
H6    H     H_    0.222959 0.857313 0.469849 0.383866
O11   O     O_3   0.436203 0.095465 0.698514 -0.774287
H7    H     H_    0.464803 0.145074 0.766964 0.389002
O12   O     O_3   0.359443 0.576141 0.875254 -0.712293
H8    H     H_    0.290604 0.567675 0.928072 0.338846
O13   O     O_3   0.627725 0.438991 0.120463 -0.630245
H9    H     H_    0.669482 0.508721 0.076015 0.354964
C19   C     C_2   0.754148 0.444600 0.902220 0.431302
H10   H     H_    0.809086 0.357022 0.875435 0.153897
O14   O     O_2   0.825642 0.503966 0.965294 -0.536002
O15   O     O_3   0.878246 0.599611 0.570037 -0.738896
H11   H     H_    0.947974 0.592976 0.641003 0.317792
O16   O     O_3   0.136412 0.456908 0.380256 -0.677555
H12   H     H_    0.070794 0.429648 0.320254 0.366389
C20   C     C_2   0.872708 0.357376 0.362642 0.559794
H13   H     H_    0.893185 0.256209 0.387794 0.116578
O17   O     O_2   0.866918 0.384134 0.255784 -0.527343
O18   O     O_3   0.584116 0.115368 0.295981 -0.755690
H14   H     H_    0.663356 0.154610 0.284983 0.403931
C21   C     C_2   0.127584 0.686021 0.547518 0.337164
H15   H     H_    0.097806 0.730315 0.625624 -0.142975
O19   O     O_2   0.059874 0.753474 0.612726 0.042370
C22   C     C_2   0.565656 0.846395 0.267700 0.505842
H16   H     H_    0.629554 0.759795 0.254774 0.152614
O20   O     O_2   0.474387 0.876706 0.184831 -0.592471
O21   O     O_3   0.729256 0.838001 0.421519 -0.730671
H17   H     H_    0.755522 0.819063 0.508982 0.374924
C23   C     C_2   0.668751 0.084314 0.693892 0.141492
H18   H     H_    0.745320 0.140279 0.681292 0.317638
O22   O     O_2   0.685178 0.182155 0.743765 -0.699924
C24   C     C_2   0.237916 0.161129 0.521158 0.704109
H19   H     H_    0.223326 0.119473 0.604471 0.175459
O23   O     O_2   0.149098 0.246950 0.478465 -0.654167
C25   C     C_2   0.300407 0.970881 0.306905 0.426544
H20   H     H_    0.334917 0.027686 0.245972 0.152111
O24   O     O_2   0.221115 0.909520 0.262603 -0.516481

loop_
_geom_bond_atom_site_label_1
_geom_bond_atom_site_label_2
_ccdc_geom_bond_type
N2    C20   S    
C2    C4    S    
O18   H14   S    
O7    Zn1   S    
C11   C18   S    
C3    H1    S    
O10   H6    S    
C3    C16   S    
C12   O5    A    
C9    C10   S    
C14   C18   S    
C13   O8    A    
N2    Zn1   S    
C11   O3    A    
O13   H9    S    
N1    Zn2   S    
C12   O6    A    
N1    C21   S    
C14   O18   S    
O4    Zn2   S    
C25   H20   S    
O16   H12   S    
C5    H2    S    
C19   H10   S    
O3    Zn1   S    
C1    O1    A    
C2    C15   S    
C21   H15   S    
C7    C12   S    
C11   O4    A    
C22   H16   S    
C1    C5    S    
C4    C17   S    
C7    C19   S    
C24   O23   D    
O15   H11   S    
C4    C25   S    
C20   O17   D    
C8    O12   S    
C17   C18   S    
C2    C3    S    
C6    O13   S    
C19   O14   D    
C10   O15   S    
C1    O2    A    
C3    H3    S    
O2    Zn2   S    
C21   O19   D    
O6    Zn2   S    
C16   O11   S    
O21   H17   S    
O5    Zn1   S    
C7    C8    D    
C14   O9    S    
C20   H13   S    
C22   O20   D    
C23   H18   S    
C15   C22   S    
C25   O24   D    
O11   H7    S    
C5    C6    D    
C2    C13   S    
C15   O21   S    
C14   C15   S    
C9    N1    D    
C17   C24   S    
C6    C8    S    
C16   C23   S    
C10   N2    D    
C24   H19   S    
O12   H8    S    
C13   O7    A    
C16   C18   S    
C9    O16   S    
C17   H4    S    
O1    Zn1   S    
C4    O10   S    
C23   O22   D    
O9    H5    S    
O8    Zn2   S    
