data_mof_unit_38631.cif
_audit_creation_date              2012-12-11T14:45:27-0500
_audit_creation_method            fapswitch 2.2
_symmetry_space_group_name_H-M    P1
_symmetry_Int_Tables_number       1
_space_group_crystal_system       triclinic
_cell_length_a                    24.875092
_cell_length_b                    7.187017
_cell_length_c                    14.40898
_cell_angle_alpha                 90.004468
_cell_angle_beta                  102.633451
_cell_angle_gamma                 89.993529
_cell_volume                      2513.63738204

loop_
_atom_site_label
_atom_site_type_symbol
_atom_type_description
_atom_site_fract_x
_atom_site_fract_y
_atom_site_fract_z
_atom_type_partial_charge
O1    O     O_R   0.319150 0.364170 0.330530 -0.535802
O2    O     O_R   0.680850 0.635830 0.669470 -0.534511
O3    O     O_R   0.180850 0.864170 0.169470 -0.535743
O4    O     O_R   0.819150 0.135830 0.830530 -0.534515
O5    O     O_R   0.210330 0.696850 0.354180 -0.533459
O6    O     O_R   0.789670 0.303150 0.645820 -0.535068
O7    O     O_R   0.289670 0.196850 0.145820 -0.533436
O8    O     O_R   0.710330 0.803150 0.854180 -0.535046
C1    C     C_R   0.197273 0.524969 0.378418 0.671846
C2    C     C_R   0.803404 0.474624 0.622371 0.677954
C3    C     C_R   0.302739 0.024950 0.121596 0.671905
C4    C     C_R   0.696607 0.974652 0.877642 0.677794
O9    O     O_R   0.320550 0.694110 0.341970 -0.543676
O10   O     O_R   0.679450 0.305890 0.658030 -0.538113
O11   O     O_R   0.179450 0.194110 0.158030 -0.543604
O12   O     O_R   0.820550 0.805890 0.841970 -0.538053
O13   O     O_R   0.291860 0.861000 0.157170 -0.539931
O14   O     O_R   0.708140 0.139000 0.842830 -0.540412
O15   O     O_R   0.208140 0.361000 0.342830 -0.539999
O16   O     O_R   0.791860 0.639000 0.657170 -0.540352
C5    C     C_R   0.341598 0.525726 0.362140 0.659676
C6    C     C_R   0.658410 0.475015 0.638100 0.649801
C7    C     C_R   0.158396 0.025737 0.137879 0.659491
C8    C     C_R   0.841583 0.975009 0.861917 0.649674
O17   O     O_3   0.240460 0.529330 0.189380 -0.373406
O18   O     O_3   0.759540 0.470670 0.810620 -0.373894
O19   O     O_3   0.259540 0.029330 0.310620 -0.373505
O20   O     O_3   0.740460 0.970670 0.689380 -0.373896
V1    V     V_3+5 0.251770 0.805510 0.261240 1.466791
V2    V     V_3+5 0.748230 0.194490 0.738760 1.459655
V3    V     V_3+5 0.248230 0.305510 0.238760 1.466835
V4    V     V_3+5 0.751770 0.694490 0.761240 1.459811
C9    C     C_R   0.103376 0.017096 0.072733 -0.187655
C10   C     C_R   0.896861 0.988306 0.925683 -0.182991
C11   C     C_R   0.396606 0.517050 0.427318 -0.187626
C12   C     C_R   0.603125 0.488343 0.574349 -0.183116
C13   C     C_R   0.953943 0.075424 0.078849 -0.054464
C14   C     C_R   0.045498 0.934459 0.919631 -0.031050
C15   C     C_R   0.546015 0.576240 0.421334 -0.054650
C16   C     C_R   0.454498 0.433563 0.580280 -0.031393
C17   C     C_R   0.901779 0.038431 0.021772 -0.062534
C18   C     C_R   0.097920 0.945916 0.979756 -0.050020
C19   C     C_R   0.598189 0.539139 0.478348 -0.062448
C20   C     C_R   0.402072 0.445243 0.520173 -0.050160
C21   C     C_R   0.944675 0.976355 0.887814 -0.034744
C22   C     C_R   0.055890 0.070567 0.105688 -0.022739
C23   C     C_R   0.555312 0.475763 0.612187 -0.034819
C24   C     C_R   0.444082 0.571009 0.394479 -0.022532
C25   C     C_R   0.997628 0.985856 0.950331 0.083851
C26   C     C_R   0.002538 0.044169 0.045965 0.077288
C27   C     C_R   0.502358 0.485443 0.549685 0.083984
C28   C     C_R   0.497434 0.544464 0.454164 0.077314
C29   C     C_R   0.664801 0.987919 0.952044 -0.044146
C30   C     C_R   0.334344 0.015432 0.047039 -0.033532
C31   C     C_R   0.835234 0.487750 0.547997 -0.044145
C32   C     C_R   0.165685 0.515540 0.452999 -0.033537
C33   C     C_R   0.657856 0.111573 0.105463 0.013302
C34   C     C_R   0.337862 0.010535 0.880402 0.009276
C35   C     C_R   0.842118 0.610097 0.394303 0.012920
C36   C     C_R   0.162166 0.511823 0.619642 0.008933
C37   C     C_R   0.689034 0.068408 0.038872 -0.209805
C38   C     C_R   0.307765 0.024812 0.951589 -0.219299
C39   C     C_R   0.810960 0.567404 0.460982 -0.210234
C40   C     C_R   0.192257 0.525730 0.548430 -0.219380
C41   C     C_R   0.608279 0.951152 0.930646 -0.216660
C42   C     C_R   0.391454 0.998124 0.071901 -0.207411
C43   C     C_R   0.891780 0.451375 0.569496 -0.216669
C44   C     C_R   0.108589 0.497759 0.428171 -0.207505
C45   C     C_R   0.573751 0.019898 0.989126 0.062779
C46   C     C_R   0.423942 0.021530 0.003702 0.060121
C47   C     C_R   0.926274 0.519720 0.510870 0.062776
C48   C     C_R   0.076084 0.521588 0.496312 0.060184
C49   C     C_R   0.599707 0.084071 0.081442 0.085290
C50   C     C_R   0.396692 0.013049 0.906284 0.077452
C51   C     C_R   0.900286 0.583028 0.418405 0.085228
C52   C     C_R   0.103334 0.513938 0.593749 0.077522
C53   C     C_R   0.514591 0.024967 0.959291 -0.007112
C54   C     C_R   0.482501 0.049925 0.029884 -0.007618
C55   C     C_R   0.985430 0.525166 0.540698 -0.007165
C56   C     C_R   0.017510 0.549639 0.470060 -0.007737
C57   C     C_R   0.509929 0.112681 0.122433 -0.044836
C58   C     C_R   0.486055 0.021841 0.861389 -0.016447
C59   C     C_R   0.990054 0.611610 0.377380 -0.044628
C60   C     C_R   0.013963 0.522869 0.638606 -0.016262
C61   C     C_R   0.567287 0.121966 0.146906 -0.097163
C62   C     C_R   0.428431 0.018130 0.837449 -0.095003
C63   C     C_R   0.932690 0.620503 0.352871 -0.097243
C64   C     C_R   0.071588 0.519461 0.662566 -0.095199
H1    H     H_    0.263215 0.033723 0.932621 0.121536
H2    H     H_    0.732388 0.102747 0.053962 0.123947
H3    H     H_    0.236803 0.534997 0.567380 0.121615
H4    H     H_    0.767584 0.601394 0.445777 0.124037
C65   C     C_2   0.063877 0.159827 0.201152 0.351035
H5    H     H_    0.094149 0.269540 0.220191 0.063595
O21   O     O_2   0.039037 0.107647 0.260548 -0.535289
C66   C     C_2   0.937933 0.971177 0.782378 0.347987
H6    H     H_    0.901662 0.908083 0.737951 0.039694
O22   O     O_2   0.970948 0.047435 0.743445 -0.518423
C67   C     C_2   0.436099 0.660860 0.299167 0.351102
H7    H     H_    0.405914 0.770927 0.280378 0.063615
O23   O     O_2   0.460858 0.608799 0.239627 -0.535041
C68   C     C_2   0.562054 0.469778 0.717610 0.347824
H8    H     H_    0.598338 0.406501 0.761912 0.039801
O24   O     O_2   0.529023 0.545573 0.756691 -0.518330
C69   C     C_2   0.146892 0.885571 0.943663 0.441669
H9    H     H_    0.187786 0.890156 0.989093 0.018441
O25   O     O_2   0.142237 0.829870 0.862200 -0.528471
C70   C     C_2   0.852287 0.055569 0.063029 0.469290
H10   H     H_    0.813220 0.999646 0.025215 -0.002900
O26   O     O_2   0.854603 0.131237 0.139707 -0.506529
C71   C     C_2   0.353107 0.384527 0.556173 0.441884
H11   H     H_    0.312188 0.389859 0.510856 0.018430
O27   O     O_2   0.357794 0.327688 0.637440 -0.528350
C72   C     C_2   0.647671 0.556793 0.437116 0.469441
H12   H     H_    0.686753 0.500889 0.474874 -0.003343
O28   O     O_2   0.645330 0.632834 0.360530 -0.506426
H13   H     H_    0.955651 0.122930 0.150302 0.213827
H14   H     H_    0.042217 0.876829 0.849340 0.195241
H15   H     H_    0.544284 0.624250 0.349959 0.213733
H16   H     H_    0.457790 0.375431 0.650466 0.195169
H17   H     H_    0.586356 0.164988 0.218297 0.207895
H18   H     H_    0.408482 0.029057 0.763186 0.223571
H19   H     H_    0.913601 0.662890 0.281388 0.207924
H20   H     H_    0.091527 0.531006 0.736809 0.223468
H21   H     H_    0.409854 0.969027 0.145385 0.116237
H22   H     H_    0.591887 0.873533 0.866555 0.143615
H23   H     H_    0.090208 0.468076 0.354745 0.116092
H24   H     H_    0.908211 0.374313 0.633752 0.143825
C73   C     C_2   0.688302 0.197388 0.195437 0.360797
H25   H     H_    0.729812 0.150585 0.226779 0.100097
O29   O     O_2   0.669488 0.328969 0.231459 -0.510618
C74   C     C_2   0.305300 0.993509 0.781254 0.397255
H26   H     H_    0.265593 0.062350 0.761059 0.089432
O30   O     O_2   0.320203 0.893108 0.723324 -0.521626
C75   C     C_2   0.811615 0.694899 0.304099 0.361403
H27   H     H_    0.770147 0.647575 0.272857 0.100484
O31   O     O_2   0.830326 0.826238 0.267749 -0.510498
C76   C     C_2   0.194734 0.495638 0.718824 0.397865
H28   H     H_    0.234396 0.564776 0.738892 0.089591
O32   O     O_2   0.179888 0.395602 0.776946 -0.521324
C77   C     C_2   0.480938 0.203927 0.190152 0.421481
H29   H     H_    0.442708 0.278288 0.163863 0.089867
O33   O     O_2   0.499613 0.198276 0.275901 -0.518969
C78   C     C_2   0.513391 0.055598 0.780986 0.411600
H30   H     H_    0.551110 0.134850 0.791836 0.023624
O34   O     O_2   0.493739 0.996274 0.701314 -0.510655
C79   C     C_2   0.019000 0.702463 0.309491 0.421243
H31   H     H_    0.057212 0.776985 0.335639 0.089973
O35   O     O_2   0.000305 0.696331 0.223756 -0.519065
C80   C     C_2   0.986604 0.557226 0.718924 0.411348
H32   H     H_    0.948860 0.636406 0.707898 0.023617
O36   O     O_2   0.006257 0.498470 0.798709 -0.510715

loop_
_geom_bond_atom_site_label_1
_geom_bond_atom_site_label_2
_ccdc_geom_bond_type
C34   C38   A    
C59   C63   A    
O1    C5    A    
C65   H5    S    
C17   C70   S    
O19   V1    S    
O13   V1    S    
C45   C53   A    
O3    C7    A    
C71   H11   S    
C64   H20   S    
O15   V3    S    
C47   C55   A    
C72   H12   S    
C75   H27   S    
C14   C25   A    
C53   C54   A    
O7    C3    A    
C69   O25   D    
C30   C42   A    
C9    C18   A    
O9    V1    S    
C79   O35   D    
C14   C18   A    
C77   O33   D    
C19   C72   S    
C55   C60   A    
O4    C8    A    
C15   H15   S    
C46   C54   A    
C38   H1    S    
O1    V3    S    
C70   H10   S    
C12   C23   A    
O2    V4    S    
C33   C49   A    
C33   C37   A    
O3    V1    S    
C46   C50   A    
C29   C37   A    
C1    O15   A    
C23   C27   A    
C79   H31   S    
C34   C74   S    
C74   H26   S    
C7    C9    S    
C31   C39   A    
C39   H4    S    
O2    C6    A    
C32   C40   A    
C45   C49   A    
O14   V2    S    
C29   C41   A    
C52   C64   A    
C16   C20   A    
C4    C29   S    
C44   C48   A    
O11   C7    A    
C15   C28   A    
O12   C8    A    
C23   C68   S    
C9    C22   A    
C68   H8    S    
C10   C17   A    
O10   V2    S    
C56   C59   A    
C11   C24   A    
O5    V1    S    
C65   O21   D    
O7    V3    S    
C27   C28   A    
O8    V4    S    
C78   O34   D    
C2    O16   A    
C10   C21   A    
O18   V4    S    
C15   C19   A    
C30   C38   A    
C58   C62   A    
C36   C52   A    
C8    C10   S    
C66   O22   D    
C63   H19   S    
O5    C1    A    
C11   C20   A    
C72   O28   D    
C67   H7    S    
C21   C25   A    
O8    C4    A    
C66   H6    S    
O9    C5    A    
C48   C52   A    
C71   O27   D    
C1    C32   S    
C50   C62   A    
C68   O24   D    
C2    C31   S    
C44   H23   S    
C49   C61   A    
C3    C30   S    
C76   O32   D    
C59   C79   S    
C58   C78   S    
C67   O23   D    
C57   C77   S    
C80   O36   D    
C35   C51   A    
C37   H2    S    
C34   C50   A    
C73   H25   S    
O16   V4    S    
C33   C73   S    
C75   O31   D    
C24   C67   S    
C3    O13   A    
C16   H16   S    
O17   V3    S    
C60   C64   A    
C78   H30   S    
O6    C2    A    
C31   C43   A    
O11   V3    S    
C5    C11   S    
O12   V4    S    
C16   C27   A    
C6    C12   S    
C69   H9    S    
C22   C26   A    
C35   C39   A    
C42   H21   S    
C36   C40   A    
C61   H17   S    
O10   C6    A    
O20   V2    S    
C48   C56   A    
C32   C44   A    
C77   H29   S    
C41   H22   S    
C47   C51   A    
C13   C26   A    
C54   C57   A    
C42   C46   A    
C22   C65   S    
C53   C58   A    
C41   C45   A    
C35   C75   S    
C70   O26   D    
C43   C47   A    
C13   C17   A    
C62   H18   S    
O6    V2    S    
C18   C69   S    
C57   C61   A    
C76   H28   S    
C55   C56   A    
C14   H14   S    
C20   C71   S    
C24   C28   A    
C13   H13   S    
C74   O30   D    
C25   C26   A    
C4    O14   A    
C80   H32   S    
C12   C19   A    
C40   H3    S    
C43   H24   S    
C21   C66   S    
O4    V2    S    
C51   C63   A    
C36   C76   S    
C73   O29   D    
C60   C80   S    
