data_mof_unit_15071.cif
_audit_creation_date              2012-12-10T19:11:32-0500
_audit_creation_method            fapswitch 2.2
_symmetry_space_group_name_H-M    P1
_symmetry_Int_Tables_number       1
_space_group_crystal_system       triclinic
_cell_length_a                    7.784177
_cell_length_b                    9.091015
_cell_length_c                    17.373569
_cell_angle_alpha                 89.997672
_cell_angle_beta                  86.636469
_cell_angle_gamma                 89.997355
_cell_volume                      1227.34129773

loop_
_atom_site_label
_atom_site_type_symbol
_atom_type_description
_atom_site_fract_x
_atom_site_fract_y
_atom_site_fract_z
_atom_type_partial_charge
C1    C     C_R   0.500000 0.779968 0.499980 0.850104
C2    C     C_R   0.500005 0.220034 0.499985 0.845783
C3    C     C_1   0.500002 0.934625 0.499968 -0.177507
C4    C     C_1   0.500009 0.065381 0.499969 -0.178083
C5    C     C_R   0.478695 0.500965 0.650260 0.814883
C6    C     C_R   0.521084 0.497099 0.349779 0.811001
C7    C     C_R   0.468075 0.502487 0.734462 -0.098582
C8    C     C_R   0.529141 0.481144 0.266010 -0.094801
C9    C     C_R   0.618625 0.500124 0.774824 -0.199903
C10   C     C_R   0.377328 0.489449 0.226795 -0.203722
C11   C     C_R   0.608447 0.501046 0.854812 -0.210309
C12   C     C_R   0.381623 0.468416 0.147808 -0.239463
C13   C     C_R   0.447587 0.502006 0.895626 0.066168
C14   C     C_R   0.538012 0.438351 0.106352 0.085193
C15   C     C_R   0.295683 0.503949 0.855336 0.489461
C16   C     C_R   0.689065 0.419506 0.146274 0.489652
C17   C     C_R   0.307307 0.507383 0.775034 -0.268650
C18   C     C_R   0.684934 0.447034 0.225464 -0.268387
C19   C     C_2   0.437733 0.507576 0.979958 -0.209842
C20   C     C_2   0.545109 0.429448 0.021711 -0.214103
Cu1   Cu    Cu3+1 0.330920 0.500000 0.500000 0.997460
Cu2   Cu    Cu3+1 0.669080 0.500000 0.500000 0.997676
H1    H     H_    0.261486 0.474544 0.119639 0.171734
H2    H     H_    0.726428 0.504470 0.884740 0.180649
H3    H     H_    0.744351 0.499301 0.744633 0.166883
H4    H     H_    0.254606 0.512327 0.257082 0.173034
H5    H     H_    0.802852 0.438837 0.255297 0.162699
H6    H     H_    0.189755 0.511973 0.744669 0.170516
H7    H     H_    0.644308 0.361954 0.992907 0.162232
H8    H     H_    0.338172 0.576293 0.007532 0.186665
N1    N     N_1   0.923170 0.500000 0.500010 -0.054289
N2    N     N_1   0.076830 0.500000 0.499990 -0.054279
O1    O     O_R   0.357240 0.711600 0.500000 -0.576972
O2    O     O_R   0.642760 0.288400 0.500000 -0.578916
O3    O     O_R   0.642760 0.711600 0.500000 -0.576202
O4    O     O_R   0.357240 0.288400 0.500000 -0.577901
O5    O     O_R   0.340660 0.500000 0.613590 -0.590367
O6    O     O_R   0.659340 0.500000 0.386410 -0.589889
O7    O     O_R   0.626230 0.500000 0.613600 -0.589004
O8    O     O_R   0.373770 0.500000 0.386400 -0.590365
O9    O     O_3   0.134633 0.511827 0.893219 -0.624769
C21   C     C_3   0.081192 0.370104 0.918454 0.025724
H9    H     H_    0.968104 0.386366 0.959323 0.204462
H10   H     H_    0.180697 0.312896 0.950991 0.144907
C22   C     C_3   0.026462 0.273363 0.851539 -0.396130
H11   H     H_    0.941084 0.336836 0.814849 0.228843
H12   H     H_    0.142016 0.239020 0.815414 0.218120
C23   C     C_3   0.931934 0.135549 0.880934 -0.891088
H13   H     H_    0.014979 0.070245 0.918015 0.255867
H14   H     H_    0.898374 0.066575 0.831257 0.268007
H15   H     H_    0.811213 0.165914 0.914407 0.243621
O10   O     O_3   0.843363 0.382314 0.107665 -0.638607
C24   C     C_3   0.862764 0.227188 0.107481 -0.003713
H16   H     H_    0.927927 0.195580 0.051478 0.166092
H17   H     H_    0.738137 0.165762 0.111391 0.133882
C25   C     C_3   0.976379 0.178129 0.171860 -0.344739
H18   H     H_    0.096869 0.243855 0.169194 0.231385
H19   H     H_    0.907657 0.196428 0.228843 0.211033
C26   C     C_3   0.022327 0.015320 0.164464 -0.884302
H20   H     H_    0.903725 0.947087 0.167679 0.260019
H21   H     H_    0.103206 0.982894 0.212227 0.257106
H22   H     H_    0.095803 0.994082 0.108811 0.254024

loop_
_geom_bond_atom_site_label_1
_geom_bond_atom_site_label_2
_ccdc_geom_bond_type
C2    C4    S    
C5    C7    S    
C5    O5    A    
C11   C13   A    
O9    C21   S    
C19   C20   D    
C25   C26   S    
C7    C9    A    
C10   H4    S    
C24   H17   S    
C9    H3    S    
C26   H20   S    
Cu1   O4    S    
N1    N2    T    
C24   H16   S    
O10   C24   S    
C24   C25   S    
Cu2   O3    S    
C9    C11   A    
C12   H1    S    
C1    O3    A    
Cu1   O8    S    
C21   H10   S    
C23   H15   S    
Cu2   O7    S    
C10   C12   A    
C23   H14   S    
C23   H13   S    
C12   C14   A    
Cu1   Cu2   S    
C6    O8    A    
C20   H7    S    
C13   C15   A    
Cu2   O2    S    
Cu1   N2    S    
C14   C16   A    
C26   H21   S    
Cu1   O1    S    
Cu2   N1    S    
C13   C19   S    
C1    O1    A    
C3    C4    T    
Cu2   O6    S    
C14   C20   S    
C11   H2    S    
Cu1   O5    S    
C25   H18   S    
C15   O9    S    
C8    C10   A    
C21   H9    S    
C22   H12   S    
C2    O4    A    
C1    C3    S    
C15   C17   A    
C5    O7    A    
C26   H22   S    
C6    C8    S    
C22   C23   S    
C17   H6    S    
C2    O2    A    
C22   H11   S    
C19   H8    S    
C6    O6    A    
C16   C18   A    
C8    C18   A    
C18   H5    S    
C16   O10   S    
C25   H19   S    
C7    C17   A    
C21   C22   S    
