data_mof_unit_56016.cif
_audit_creation_date              2012-12-10T17:13:33-0500
_audit_creation_method            fapswitch 2.2
_symmetry_space_group_name_H-M    P1
_symmetry_Int_Tables_number       1
_space_group_crystal_system       triclinic
_cell_length_a                    10.78798
_cell_length_b                    13.051691
_cell_length_c                    11.729257
_cell_angle_alpha                 99.796969
_cell_angle_beta                  93.993498
_cell_angle_gamma                 91.502916
_cell_volume                      1622.24182363

loop_
_atom_site_label
_atom_site_type_symbol
_atom_type_description
_atom_site_fract_x
_atom_site_fract_y
_atom_site_fract_z
_atom_type_partial_charge
C1    C     C_R   0.509043 0.299408 0.478163 0.832844
C2    C     C_3   0.877135 0.490976 0.504235 0.038612
C3    C     C_3   0.927852 0.606031 0.527407 -0.352772
C4    C     C_3   0.918866 0.437515 0.385172 -0.410692
C5    C     C_R   0.497388 0.814579 0.531616 -0.151785
C6    C     C_R   0.528628 0.185887 0.464504 -0.181810
C7    C     C_R   0.538976 0.014438 0.346263 0.187383
C8    C     C_R   0.534484 0.122658 0.353712 0.100133
C9    C     C_R   0.551953 0.139924 0.564666 0.066100
C10   C     C_R   0.529976 0.031914 0.556477 0.034999
C11   C     C_R   0.516266 0.969434 0.444352 -0.052673
C12   C     C_R   0.259700 0.501251 0.500964 0.763121
C13   C     C_R   0.482887 0.863267 0.433314 0.179960
C14   C     C_R   0.513957 0.875707 0.641805 -0.258086
C15   C     C_R   0.520812 0.983495 0.655486 0.186839
C16   C     C_R   0.377254 0.402465 0.022364 0.065210
C17   C     C_R   0.389540 0.413559 0.144607 0.053759
C18   C     C_R   0.552239 0.541729 0.156126 0.344879
C19   C     C_R   0.540122 0.535202 0.033727 -0.032382
C20   C     C_R   0.454219 0.463503 0.965026 -0.018356
C21   C     C_R   0.448460 0.456686 0.841789 0.023108
C22   C     C_R   0.603789 0.592161 0.858658 0.406044
C23   C     C_R   0.496874 0.700810 0.520840 0.840526
C24   C     C_R   0.611898 0.599990 0.978656 -0.223420
C25   C     C_R   0.739273 0.491689 0.500018 0.788757
C26   C     C_3   0.080503 0.455634 0.614162 -0.051498
C27   C     C_3   0.937961 0.428990 0.597819 0.017997
C28   C     C_3   0.069490 0.612139 0.511294 -0.020411
C29   C     C_3   0.061073 0.428587 0.392899 -0.428507
C30   C     C_3   0.121322 0.500424 0.504472 0.087693
Cu1   Cu    Cu3+1 0.509350 0.507730 0.615930 0.953801
Cu2   Cu    Cu3+1 0.490650 0.492270 0.384070 0.997524
H1    H     H_    0.890740 0.483067 0.316311 0.228410
H2    H     H_    0.875969 0.651749 0.469295 0.196225
H3    H     H_    0.514679 0.839768 0.718487 0.194737
H4    H     H_    0.384180 0.401828 0.786563 0.163135
H5    H     H_    0.128972 0.381729 0.617699 0.160144
H6    H     H_    0.675597 0.659214 0.027031 0.192459
H7    H     H_    0.329582 0.367113 0.187672 0.162389
H8    H     H_    0.926265 0.344840 0.559495 0.118372
H9    H     H_    0.116038 0.664323 0.588045 0.163272
H10   H     H_    0.910021 0.642746 0.617127 0.156288
H11   H     H_    0.097078 0.448416 0.312480 0.215976
H12   H     H_    0.084627 0.346432 0.395435 0.170071
H13   H     H_    0.873656 0.358520 0.359170 0.184504
N1    N     N_R   0.523430 0.519360 0.790130 -0.181461
N2    N     N_R   0.476570 0.480640 0.209880 -0.211130
O1    O     O_R   0.506640 0.354460 0.582000 -0.578743
O2    O     O_R   0.490840 0.341410 0.386200 -0.562373
O3    O     O_R   0.325590 0.506510 0.597900 -0.595789
O4    O     O_R   0.309790 0.493450 0.402100 -0.586633
O5    O     O_R   0.509160 0.658590 0.613800 -0.602770
O6    O     O_R   0.493360 0.645540 0.418000 -0.533369
O7    O     O_R   0.690210 0.506550 0.597900 -0.570805
O8    O     O_R   0.674410 0.493490 0.402100 -0.561002
C31   C     C_3   0.115566 0.529296 0.732510 -0.748915
H14   H     H_    0.202822 0.576159 0.736930 0.237838
H15   H     H_    0.043358 0.586882 0.753943 0.240819
H16   H     H_    0.126015 0.482742 0.803229 0.265410
C32   C     C_3   0.095465 0.664048 0.406622 -0.794103
H17   H     H_    0.067103 0.746182 0.422780 0.249549
H18   H     H_    0.196049 0.664395 0.394403 0.253925
H19   H     H_    0.043820 0.623873 0.325586 0.260629
I1    I     I_    0.361327 0.793059 0.285591 -0.304844
I2    I     I_    0.619054 0.924565 0.199997 -0.225964
I3    I     I_    0.495820 0.059728 0.827939 -0.272990
I4    I     I_    0.551665 0.184132 0.195782 -0.226597
C33   C     C_3   0.631211 0.200167 0.666652 -0.671395
H20   H     H_    0.696690 0.253736 0.634964 0.229330
H21   H     H_    0.572914 0.245294 0.730071 0.267429
H22   H     H_    0.691351 0.148219 0.709878 0.240889
C34   C     C_3   0.687264 0.669112 0.814335 -0.754528
H23   H     H_    0.692410 0.659632 0.720865 0.267204
H24   H     H_    0.656984 0.749162 0.844788 0.212013
H25   H     H_    0.784316 0.663786 0.850712 0.217045
I5    I     I_    0.238899 0.294067 0.932485 -0.319564
I6    I     I_    0.693640 0.648033 0.252825 -0.340939
I7    I     I_    0.857178 0.422417 0.763066 -0.391047

loop_
_geom_bond_atom_site_label_1
_geom_bond_atom_site_label_2
_ccdc_geom_bond_type
C3    H10   S    
C19   C20   A    
Cu1   O5    S    
C27   I7    S    
C18   N2    A    
C6    C9    A    
C7    C8    A    
C21   H4    S    
C7    C11   A    
C26   C27   S    
C32   H19   S    
C3    C28   S    
C10   C15   A    
C18   I6    S    
C28   H9    S    
C31   H14   S    
C32   H18   S    
C18   C19   A    
C17   H7    S    
C16   C17   A    
Cu1   N1    S    
C24   H6    S    
C2    C27   S    
C9    C10   A    
Cu2   O8    S    
C5    C13   A    
C4    C29   S    
C29   H11   S    
C34   H25   S    
C22   C34   S    
C23   O6    A    
C4    H13   S    
C28   C32   S    
C1    C6    S    
C25   O8    A    
C25   O7    A    
C34   H24   S    
C14   H3    S    
C33   H20   S    
C6    C8    A    
C3    H2    S    
C15   I3    S    
C32   H17   S    
C2    C4    S    
Cu2   O4    S    
C29   C30   S    
C7    I2    S    
Cu1   Cu2   S    
C5    C23   S    
C27   H8    S    
C16   C20   A    
C26   H5    S    
C5    C14   A    
C22   N1    A    
C26   C30   S    
Cu1   O1    S    
C29   H12   S    
Cu2   N2    S    
C22   C24   A    
Cu1   O3    S    
Cu2   O6    S    
C12   O4    A    
C21   N1    A    
C4    H1    S    
C12   C30   S    
C16   I5    S    
C17   N2    A    
C34   H23   S    
C26   C31   S    
C12   O3    A    
C1    O1    A    
C31   H16   S    
C28   C30   S    
C2    C3    S    
C9    C33   S    
C11   C13   A    
C23   O5    A    
C13   I1    S    
C33   H22   S    
C31   H15   S    
C19   C24   A    
C2    C25   S    
Cu1   O7    S    
Cu2   O2    S    
C10   C11   A    
C20   C21   A    
C8    I4    S    
C33   H21   S    
C14   C15   A    
C1    O2    A    
