data_mof_unit_46563.cif
_audit_creation_date              2012-12-10T17:15:54-0500
_audit_creation_method            fapswitch 2.2
_symmetry_space_group_name_H-M    P1
_symmetry_Int_Tables_number       1
_space_group_crystal_system       triclinic
_cell_length_a                    10.240954
_cell_length_b                    10.596437
_cell_length_c                    10.804044
_cell_angle_alpha                 90.96998
_cell_angle_beta                  95.729808
_cell_angle_gamma                 80.387989
_cell_volume                      1150.19397903

loop_
_atom_site_label
_atom_site_type_symbol
_atom_type_description
_atom_site_fract_x
_atom_site_fract_y
_atom_site_fract_z
_atom_type_partial_charge
C1    C     C_R   0.443471 0.510998 0.267613 0.849530
C2    C     C_2   0.485628 0.546156 0.933850 -0.120782
C3    C     C_2   0.076380 0.479157 0.496466 0.267947
C4    C     C_R   0.503689 0.260232 0.506548 0.891874
C5    C     C_2   0.933612 0.489412 0.524942 -0.030616
C6    C     C_R   0.556126 0.498831 0.732642 0.841206
C7    C     C_R   0.498403 0.739428 0.499855 0.839011
C8    C     C_R   0.571062 0.110403 0.740155 0.011692
C9    C     C_R   0.543735 0.057673 0.851389 0.168046
C10   C     C_R   0.495287 0.941267 0.847205 0.400547
C11   C     C_R   0.482505 0.876118 0.734199 -0.278493
C12   C     C_R   0.525897 0.059901 0.624788 0.001714
C13   C     C_R   0.499449 0.934972 0.621904 0.015636
C14   C     C_R   0.512093 0.125975 0.510688 -0.060427
C15   C     C_R   0.497730 0.064432 0.396578 -0.136534
C16   C     C_R   0.495412 0.935521 0.394433 -0.146854
C17   C     C_R   0.495163 0.872291 0.506086 -0.041617
C18   C     C_2   0.409123 0.524925 0.135413 0.220583
C19   C     C_2   0.502849 0.552036 0.067195 -0.133553
C20   C     C_2   0.588194 0.516216 0.865075 0.010896
Cl1   Cl    Cl    0.250347 0.497190 0.071508 -0.498123
Cl2   Cl    Cl    0.849577 0.479071 0.292418 -0.414385
Cl3   Cl    Cl    0.460131 0.869940 0.983117 -0.587973
H1    H     H_    0.489750 0.116191 0.309699 0.183104
H2    H     H_    0.908385 0.523221 0.616287 0.119084
H3    H     H_    0.117263 0.618942 0.612609 0.160797
H4    H     H_    0.455581 0.781734 0.734790 0.178698
H5    H     H_    0.490178 0.885605 0.306047 0.187877
H6    H     H_    0.383778 0.558889 0.891291 0.225596
H7    H     H_    0.597546 0.571008 0.111262 0.220332
I1    I     I_    0.142871 0.327354 0.370712 -0.068230
I2    I     I_    0.748350 0.190924 0.748554 -0.201962
I3    I     I_    0.581395 0.150652 0.024900 -0.175140
I4    I     I_    0.791854 0.501923 0.937515 -0.104559
N1    N     N_2   0.157290 0.551390 0.551110 -0.223564
N2    N     N_2   0.842740 0.448550 0.448960 0.068510
O1    O     O_R   0.568950 0.489660 0.307530 -0.583707
O2    O     O_R   0.348880 0.522640 0.340350 -0.552767
O3    O     O_R   0.610060 0.300270 0.483590 -0.577954
O4    O     O_R   0.389990 0.333260 0.516410 -0.594211
O5    O     O_R   0.651120 0.477360 0.659650 -0.594208
O6    O     O_R   0.431050 0.510340 0.692470 -0.630347
O7    O     O_R   0.610010 0.666740 0.483590 -0.596360
O8    O     O_R   0.389940 0.699730 0.516410 -0.611364
Zn1   Zn    Zn3+2 0.646940 0.477980 0.478090 1.076942
Zn2   Zn    Zn3+2 0.353060 0.522020 0.521910 1.024106

loop_
_geom_bond_atom_site_label_1
_geom_bond_atom_site_label_2
_ccdc_geom_bond_type
C16   H5    S    
C9    I3    S    
C11   H4    S    
C10   Cl3   S    
C18   Cl1   S    
C11   C13   A    
C9    C10   A    
C4    O3    A    
C13   C17   A    
O3    Zn1   S    
C20   I4    S    
C6    C20   S    
C8    C9    A    
N2    Zn1   S    
C7    O8    A    
C3    I1    S    
O7    Zn1   S    
C1    C18   S    
C19   H7    S    
C1    O2    A    
C2    H6    S    
C5    H2    S    
C15   H1    S    
O8    Zn2   S    
C7    O7    A    
C4    C14   S    
O2    Zn2   S    
C10   C11   A    
O4    Zn2   S    
C3    N1    D    
C15   C16   A    
C8    I2    S    
C5    N2    D    
C4    O4    A    
H3    N1    S    
Cl2   N2    S    
C12   C13   A    
C18   C19   D    
O6    Zn2   S    
C2    C20   D    
O5    Zn1   S    
C14   C15   A    
C16   C17   A    
C7    C17   S    
C2    C19   S    
N1    Zn2   S    
O1    Zn1   S    
C8    C12   A    
C12   C14   A    
C1    O1    A    
C3    C5    S    
C6    O5    A    
C6    O6    A    
