data_mof_unit_29116.cif
_audit_creation_date              2012-12-10T17:09:17-0500
_audit_creation_method            fapswitch 2.2
_symmetry_space_group_name_H-M    P1
_symmetry_Int_Tables_number       1
_space_group_crystal_system       triclinic
_cell_length_a                    18.475249
_cell_length_b                    18.256811
_cell_length_c                    11.813528
_cell_angle_alpha                 89.999696
_cell_angle_beta                  74.476624
_cell_angle_gamma                 90.000122
_cell_volume                      3839.33646792

loop_
_atom_site_label
_atom_site_type_symbol
_atom_type_description
_atom_site_fract_x
_atom_site_fract_y
_atom_site_fract_z
_atom_type_partial_charge
C1    C     C_R   0.398953 0.099673 0.521524 0.837363
C2    C     C_R   0.598200 0.898018 0.478799 0.842225
C3    C     C_R   0.601045 0.099675 0.478477 0.837363
C4    C     C_R   0.401799 0.898018 0.521201 0.842235
C5    C     C_R   0.898955 0.599674 0.521523 0.837367
C6    C     C_R   0.098199 0.398017 0.478799 0.842249
C7    C     C_R   0.101046 0.599674 0.478476 0.837375
C8    C     C_R   0.901802 0.398016 0.521200 0.842243
C9    C     C_R   0.535633 0.010804 0.959949 -0.288923
C10   C     C_R   0.464365 0.010797 0.040052 -0.288921
C11   C     C_R   0.035635 0.510799 0.959948 -0.288924
C12   C     C_R   0.964366 0.510801 0.040051 -0.288930
C13   C     C_R   0.410713 0.003884 0.871956 -0.021567
C14   C     C_R   0.589286 0.003894 0.128044 -0.021540
C15   C     C_R   0.910714 0.503891 0.871956 -0.021537
C16   C     C_R   0.089287 0.503888 0.128045 -0.021555
C17   C     C_R   0.402682 0.018899 0.992478 0.392162
C18   C     C_R   0.597315 0.018915 0.007523 0.392157
C19   C     C_R   0.902684 0.518910 0.992476 0.392166
C20   C     C_R   0.097318 0.518905 0.007523 0.392174
C21   C     C_R   0.543158 0.003261 0.835085 0.663987
C22   C     C_R   0.456841 0.003252 0.164915 0.663981
C23   C     C_R   0.043159 0.503255 0.835084 0.663968
C24   C     C_R   0.956842 0.503258 0.164915 0.663976
C25   C     C_R   0.661046 0.153112 0.467501 -0.221148
C26   C     C_R   0.341316 0.845998 0.533201 -0.214173
C27   C     C_R   0.338950 0.153108 0.532499 -0.221143
C28   C     C_R   0.658680 0.845995 0.466800 -0.214196
C29   C     C_R   0.161050 0.653108 0.467500 -0.221146
C30   C     C_R   0.841322 0.345993 0.533199 -0.214190
C31   C     C_R   0.838953 0.653110 0.532496 -0.221148
C32   C     C_R   0.158680 0.345995 0.466802 -0.214181
C33   C     C_R   0.207362 0.825636 0.602522 0.548275
C34   C     C_R   0.792387 0.181731 0.382451 0.577659
C35   C     C_R   0.792628 0.825619 0.397429 0.548282
C36   C     C_R   0.207606 0.181720 0.617534 0.577655
C37   C     C_R   0.707376 0.325616 0.602574 0.548295
C38   C     C_R   0.292398 0.681712 0.382488 0.577669
C39   C     C_R   0.292628 0.325622 0.397444 0.548284
C40   C     C_R   0.707610 0.681726 0.617538 0.577658
C41   C     C_R   0.270379 0.868834 0.596203 -0.356265
C42   C     C_R   0.729444 0.139015 0.386482 -0.385290
C43   C     C_R   0.729613 0.868820 0.403761 -0.356266
C44   C     C_R   0.270549 0.139005 0.613508 -0.385294
C45   C     C_R   0.770392 0.368813 0.596247 -0.356265
C46   C     C_R   0.229455 0.638998 0.386507 -0.385299
C47   C     C_R   0.229613 0.368821 0.403770 -0.356270
C48   C     C_R   0.770553 0.639011 0.613511 -0.385293
C49   C     C_R   0.351218 0.780826 0.467190 0.438071
C50   C     C_R   0.654020 0.211983 0.547222 0.472200
C51   C     C_R   0.648782 0.780831 0.532831 0.438087
C52   C     C_R   0.345980 0.211983 0.452786 0.472193
C53   C     C_R   0.851218 0.280833 0.467159 0.438107
C54   C     C_R   0.154016 0.711989 0.547202 0.472195
C55   C     C_R   0.148781 0.280830 0.532832 0.438098
C56   C     C_R   0.845980 0.711981 0.452773 0.472193
C57   C     C_R   0.286996 0.740627 0.461793 -0.162299
C58   C     C_R   0.715526 0.259547 0.537831 -0.168914
C59   C     C_R   0.713006 0.740632 0.538218 -0.162287
C60   C     C_R   0.284473 0.259547 0.462174 -0.168903
C61   C     C_R   0.786993 0.240635 0.461773 -0.162292
C62   C     C_R   0.215523 0.759553 0.537816 -0.168877
C63   C     C_R   0.213003 0.240629 0.538219 -0.162298
C64   C     C_R   0.784474 0.759546 0.462165 -0.168894
Cu1   Cu    Cu3+1 0.507800 0.000000 0.383250 0.969522
Cu2   Cu    Cu3+1 0.492200 0.000000 0.616750 0.969513
Cu3   Cu    Cu3+1 0.007800 0.500000 0.383250 0.969514
Cu4   Cu    Cu3+1 0.992200 0.500000 0.616750 0.969526
H1    H     H_    0.735831 0.091066 0.331646 0.177055
H2    H     H_    0.264267 0.921081 0.640908 0.188126
H3    H     H_    0.264160 0.091053 0.668339 0.177044
H4    H     H_    0.735724 0.921060 0.359035 0.188142
H5    H     H_    0.235846 0.591042 0.331685 0.177045
H6    H     H_    0.764283 0.421048 0.640984 0.188149
H7    H     H_    0.764163 0.591059 0.668344 0.177059
H8    H     H_    0.235724 0.421061 0.359047 0.188136
N1    N     N_R   0.519530 0.000000 0.207810 -0.270374
N2    N     N_R   0.480470 0.000000 0.792190 -0.270378
N3    N     N_R   0.019530 0.500000 0.207810 -0.270379
N4    N     N_R   0.980470 0.500000 0.792190 -0.270376
O1    O     O_R   0.430030 0.075530 0.417420 -0.499504
O2    O     O_R   0.569970 0.924470 0.582580 -0.574908
O3    O     O_R   0.569970 0.075530 0.582580 -0.499499
O4    O     O_R   0.430030 0.924470 0.417420 -0.574899
O5    O     O_R   0.930030 0.575530 0.417420 -0.499493
O6    O     O_R   0.069970 0.424470 0.582580 -0.574913
O7    O     O_R   0.069970 0.575530 0.582580 -0.499492
O8    O     O_R   0.930030 0.424470 0.417420 -0.574915
O9    O     O_R   0.416860 0.075510 0.614610 -0.606130
O10   O     O_R   0.583140 0.924490 0.385390 -0.600785
O11   O     O_R   0.583140 0.075510 0.385390 -0.606114
O12   O     O_R   0.416860 0.924490 0.614610 -0.600782
O13   O     O_R   0.916860 0.575510 0.614610 -0.606109
O14   O     O_R   0.083140 0.424490 0.385390 -0.600787
O15   O     O_R   0.083140 0.575510 0.385390 -0.606131
O16   O     O_R   0.916860 0.424490 0.614610 -0.600787
C65   C     C_R   0.657471 0.975089 0.154126 0.239456
C66   C     C_R   0.669637 0.898995 0.144450 -0.146512
C67   C     C_R   0.741860 0.870273 0.127922 -0.143255
C68   C     C_R   0.802585 0.917219 0.121047 -0.077329
C69   C     C_R   0.790915 0.992743 0.132686 -0.197277
C70   C     C_R   0.718807 0.021637 0.147732 -0.113865
H9    H     H_    0.623823 0.862273 0.142931 0.097872
H10   H     H_    0.750918 0.811751 0.118670 0.132635
H11   H     H_    0.858635 0.895086 0.106892 0.169972
H12   H     H_    0.838181 0.028930 0.126382 0.154106
H13   H     H_    0.711284 0.080396 0.147215 0.117709
C71   C     C_R   0.342532 0.975077 0.845867 0.239481
C72   C     C_R   0.330369 0.898982 0.855534 -0.146466
C73   C     C_R   0.258149 0.870256 0.872043 -0.143249
C74   C     C_R   0.197422 0.917200 0.878916 -0.077386
C75   C     C_R   0.209088 0.992725 0.867292 -0.197322
C76   C     C_R   0.281194 0.021622 0.852257 -0.113846
H14   H     H_    0.376184 0.862262 0.857055 0.097854
H15   H     H_    0.249094 0.811733 0.881283 0.132621
H16   H     H_    0.141375 0.895063 0.893056 0.169970
H17   H     H_    0.161821 0.028910 0.873594 0.154086
H18   H     H_    0.288714 0.080382 0.852778 0.117700
C77   C     C_R   0.157469 0.475081 0.154132 0.239482
C78   C     C_R   0.169635 0.398987 0.144449 -0.146498
C79   C     C_R   0.241857 0.370264 0.127926 -0.143254
C80   C     C_R   0.302582 0.417209 0.121061 -0.077322
C81   C     C_R   0.290912 0.492733 0.132708 -0.197289
C82   C     C_R   0.218804 0.521628 0.147752 -0.113874
H19   H     H_    0.123822 0.362266 0.142921 0.097855
H20   H     H_    0.250915 0.311742 0.118670 0.132628
H21   H     H_    0.358631 0.395075 0.106910 0.169967
H22   H     H_    0.338178 0.528919 0.126413 0.154090
H23   H     H_    0.211282 0.580388 0.147244 0.117708
C83   C     C_R   0.842529 0.475089 0.845872 0.239466
C84   C     C_R   0.830357 0.398995 0.855558 -0.146526
C85   C     C_R   0.758132 0.370278 0.872090 -0.143270
C86   C     C_R   0.697410 0.417228 0.878957 -0.077273
C87   C     C_R   0.709086 0.492750 0.867306 -0.197227
C88   C     C_R   0.781196 0.521640 0.852258 -0.113899
H24   H     H_    0.876168 0.362271 0.857083 0.097869
H25   H     H_    0.749069 0.311756 0.881349 0.132640
H26   H     H_    0.641359 0.395098 0.893114 0.169965
H27   H     H_    0.661822 0.528940 0.873604 0.154115
H28   H     H_    0.788723 0.580399 0.852768 0.117711
O17   O     O_3   0.386443 0.997243 0.244072 -0.516440
C89   C     C_3   0.351466 0.930094 0.228092 -0.208898
H29   H     H_    0.334210 0.900431 0.312533 0.152970
H30   H     H_    0.386659 0.892576 0.160958 0.075989
H31   H     H_    0.298348 0.941081 0.204561 0.207524
O18   O     O_3   0.613557 0.997265 0.755928 -0.516433
C90   C     C_3   0.648544 0.930119 0.771897 -0.208886
H32   H     H_    0.701655 0.941112 0.795442 0.207527
H33   H     H_    0.613353 0.892592 0.839017 0.075976
H34   H     H_    0.665811 0.900465 0.687450 0.152977
O19   O     O_3   0.886443 0.497266 0.244075 -0.516438
C91   C     C_3   0.851446 0.430126 0.228105 -0.208871
H35   H     H_    0.834207 0.400455 0.312540 0.152955
H36   H     H_    0.886617 0.392610 0.160944 0.076003
H37   H     H_    0.798317 0.441130 0.204618 0.207530
O20   O     O_3   0.113557 0.497259 0.755925 -0.516447
C92   C     C_3   0.148551 0.430118 0.771900 -0.208871
H38   H     H_    0.201684 0.441122 0.795376 0.207529
H39   H     H_    0.113380 0.392606 0.839073 0.076012
H40   H     H_    0.165783 0.400442 0.687469 0.152951
O21   O     O_3   0.594034 0.214866 0.647288 -0.528658
C93   C     C_3   0.530657 0.246000 0.621110 -0.251738
H41   H     H_    0.545343 0.288189 0.550596 0.122631
H42   H     H_    0.496303 0.273568 0.701217 0.194088
H43   H     H_    0.495217 0.202436 0.598943 0.138082
O22   O     O_3   0.421346 0.747359 0.433905 -0.535525
C94   C     C_3   0.467222 0.777244 0.328865 -0.164565
H44   H     H_    0.436527 0.809770 0.277191 0.110595
H45   H     H_    0.495792 0.731705 0.272102 0.185597
H46   H     H_    0.511917 0.810907 0.349080 0.170694
O23   O     O_3   0.405972 0.214875 0.352731 -0.528661
C95   C     C_3   0.469340 0.246013 0.378931 -0.251711
H47   H     H_    0.454641 0.288213 0.449428 0.122715
H48   H     H_    0.503709 0.273570 0.298823 0.194078
H49   H     H_    0.504770 0.202452 0.401135 0.138022
O24   O     O_3   0.578653 0.747366 0.566136 -0.535526
C96   C     C_3   0.532787 0.777256 0.671179 -0.164564
H50   H     H_    0.563489 0.809787 0.722835 0.110601
H51   H     H_    0.504222 0.731720 0.727957 0.185594
H52   H     H_    0.488086 0.810915 0.650973 0.170699
O25   O     O_3   0.094020 0.714885 0.647252 -0.528671
C97   C     C_3   0.030656 0.746026 0.621041 -0.251679
H53   H     H_    0.045360 0.788225 0.550540 0.122787
H54   H     H_    0.996285 0.773586 0.701143 0.194089
H55   H     H_    0.995224 0.702466 0.598840 0.137992
O26   O     O_3   0.921347 0.247369 0.433843 -0.535516
C98   C     C_3   0.967209 0.277263 0.328799 -0.164584
H56   H     H_    0.936503 0.309791 0.277145 0.110603
H57   H     H_    0.995776 0.231729 0.272020 0.185586
H58   H     H_    0.011908 0.310926 0.349003 0.170702
O27   O     O_3   0.905962 0.714861 0.352703 -0.528670
C99   C     C_3   0.969340 0.746003 0.378868 -0.251702
H59   H     H_    0.954653 0.788205 0.449364 0.122716
H60   H     H_    0.003695 0.773560 0.298748 0.194090
H61   H     H_    0.004781 0.702445 0.401053 0.138051
O28   O     O_3   0.078649 0.247369 0.566144 -0.535520
C100  C     C_3   0.032791 0.277258 0.671194 -0.164587
H62   H     H_    0.063501 0.309778 0.722853 0.110595
H63   H     H_    0.004221 0.231721 0.727965 0.185592
H64   H     H_    0.988094 0.310927 0.650999 0.170697
O29   O     O_3   0.638006 0.347636 0.672560 -0.553316
C101  C     C_3   0.615345 0.412986 0.627778 -0.345124
H65   H     H_    0.645107 0.461197 0.651049 0.186602
H66   H     H_    0.554502 0.421146 0.669078 0.189058
H67   H     H_    0.623327 0.410366 0.530938 0.148864
O30   O     O_3   0.359344 0.664631 0.301406 -0.538220
C102  C     C_3   0.356538 0.691223 0.190390 -0.395447
H68   H     H_    0.344876 0.751128 0.192806 0.141214
H69   H     H_    0.313901 0.661596 0.157177 0.159451
H70   H     H_    0.412031 0.682046 0.126880 0.183926
O31   O     O_3   0.362007 0.347646 0.327485 -0.553321
C103  C     C_3   0.384631 0.413037 0.372207 -0.345163
H71   H     H_    0.354950 0.461223 0.348679 0.186664
H72   H     H_    0.445502 0.421146 0.331080 0.189030
H73   H     H_    0.376513 0.410524 0.469084 0.148908
O32   O     O_3   0.640669 0.664652 0.698639 -0.538215
C104  C     C_3   0.643489 0.691248 0.809646 -0.395479
H74   H     H_    0.655142 0.751152 0.807222 0.141227
H75   H     H_    0.686136 0.661631 0.842844 0.159450
H76   H     H_    0.588005 0.682066 0.873172 0.183929
O33   O     O_3   0.137973 0.847670 0.672440 -0.553330
C105  C     C_3   0.115400 0.913105 0.627778 -0.345320
H77   H     H_    0.144987 0.961256 0.651584 0.186745
H78   H     H_    0.054506 0.921169 0.668693 0.189021
H79   H     H_    0.123674 0.910710 0.530879 0.148994
O34   O     O_3   0.859325 0.164662 0.301343 -0.538226
C106  C     C_3   0.856500 0.191264 0.190343 -0.395450
H80   H     H_    0.844819 0.251167 0.192784 0.141209
H81   H     H_    0.813867 0.161629 0.157132 0.159462
H82   H     H_    0.911992 0.182110 0.126818 0.183920
O35   O     O_3   0.862007 0.847641 0.327461 -0.553332
C107  C     C_3   0.884633 0.913034 0.372173 -0.345183
H83   H     H_    0.854959 0.961220 0.348625 0.186668
H84   H     H_    0.945508 0.921135 0.331054 0.189030
H85   H     H_    0.876507 0.910532 0.469055 0.148915
O36   O     O_3   0.140664 0.164645 0.698632 -0.538229
C108  C     C_3   0.143484 0.191234 0.809642 -0.395440
H86   H     H_    0.155176 0.251134 0.807217 0.141206
H87   H     H_    0.186108 0.161585 0.842855 0.159463
H88   H     H_    0.087987 0.182082 0.873157 0.183918
O37   O     O_3   0.332585 0.037837 0.063130 -0.572867
C109  C     C_3   0.331202 0.114176 0.082375 -0.236494
H89   H     H_    0.344268 0.145136 0.998101 0.121084
H90   H     H_    0.370553 0.130373 0.134649 0.207548
H91   H     H_    0.273782 0.129982 0.133485 0.181337
O38   O     O_3   0.667409 0.037863 0.936873 -0.572870
C110  C     C_3   0.668781 0.114203 0.917636 -0.236473
H92   H     H_    0.655713 0.145159 0.001912 0.121083
H93   H     H_    0.629425 0.130397 0.865368 0.207560
H94   H     H_    0.726197 0.130018 0.866522 0.181340
O39   O     O_3   0.832590 0.537855 0.063126 -0.572873
C111  C     C_3   0.831215 0.614195 0.082363 -0.236485
H95   H     H_    0.844282 0.645151 0.998086 0.121088
H96   H     H_    0.870569 0.630390 0.134632 0.207566
H97   H     H_    0.773797 0.630007 0.133475 0.181334
O40   O     O_3   0.167414 0.537845 0.936873 -0.572864
C112  C     C_3   0.168795 0.614185 0.917633 -0.236517
H98   H     H_    0.155732 0.645142 0.001908 0.121090
H99   H     H_    0.129441 0.630384 0.865365 0.207540
H100  H     H_    0.226213 0.629993 0.866518 0.181337

loop_
_geom_bond_atom_site_label_1
_geom_bond_atom_site_label_2
_ccdc_geom_bond_type
Cu4   N4    S    
C6    C32   S    
O23   C95   S    
C78   C79   A    
C92   H38   S    
C7    C29   S    
Cu4   O6    S    
O29   C101  S    
C14   C18   A    
C30   C45   A    
C90   H32   S    
C34   C42   A    
C102  H69   S    
C19   O39   S    
O21   C93   S    
O39   C111  S    
C94   H45   S    
O25   C97   S    
C10   C22   A    
C104  H76   S    
C15   C19   A    
C59   C64   A    
C69   C70   A    
C101  H66   S    
C60   C63   A    
C76   H18   S    
C39   C47   A    
O20   C92   S    
C34   O34   S    
C47   H8    S    
C112  H98   S    
C75   H17   S    
C28   C51   A    
Cu2   O2    S    
C29   C54   A    
C100  H62   S    
C10   C17   A    
C1    O1    A    
C66   H9    S    
C93   H43   S    
C11   C12   A    
C65   C66   A    
C49   C57   A    
C71   C72   A    
C12   C19   A    
C44   H3    S    
C3    O11   A    
O37   C109  S    
C14   N1    A    
C80   H21   S    
C2    O10   A    
C40   C48   A    
C25   C50   A    
C107  H83   S    
C98   H58   S    
C5    C31   S    
C8    O16   A    
C52   C60   A    
Cu2   O3    S    
C73   C74   A    
C53   C61   A    
C27   C44   A    
C7    O7    A    
C15   N4    A    
C85   C86   A    
C6    O14   A    
C101  H67   S    
C55   C63   A    
C21   N2    A    
C102  H70   S    
C109  H90   S    
O19   C91   S    
C56   C64   A    
C74   H16   S    
C31   C56   A    
C94   H46   S    
C36   C63   A    
C35   C43   A    
C9    C10   A    
C32   C55   A    
C65   C70   A    
C95   H49   S    
C5    O5    A    
C5    O13   A    
C58   C61   A    
C67   H10   S    
C56   O27   S    
C17   O37   S    
C86   H26   S    
C92   H39   S    
C40   C59   A    
C108  H86   S    
C50   O21   S    
Cu3   O15   S    
C48   H7    S    
Cu1   O10   S    
C13   C71   S    
C52   O23   S    
C75   C76   A    
C95   H48   S    
C20   O40   S    
Cu2   O9    S    
C93   H42   S    
C80   C81   A    
C110  H93   S    
C88   H28   S    
Cu2   N2    S    
C30   C53   A    
C11   C20   A    
Cu3   O5    S    
C109  H91   S    
C89   H31   S    
C101  H65   S    
O27   C99   S    
C50   C58   A    
C99   H61   S    
C81   C82   A    
C90   H34   S    
Cu3   N3    S    
O32   C104  S    
C84   H24   S    
C26   C49   A    
C94   H44   S    
O30   C102  S    
C33   C62   A    
Cu1   O4    S    
Cu2   O12   S    
C54   C62   A    
C105  H79   S    
C57   C62   A    
C85   H25   S    
C77   C82   A    
C107  H85   S    
C102  H68   S    
C45   H6    S    
C8    O8    A    
C97   H55   S    
C99   H60   S    
C71   C76   A    
C100  H64   S    
C53   O26   S    
O31   C103  S    
C38   O30   S    
O33   C105  S    
C24   O19   S    
Cu3   O14   S    
C38   C57   A    
C18   O38   S    
C24   N3    A    
Cu1   O1    S    
C106  H80   S    
C4    O4    A    
C91   H37   S    
C3    C25   S    
C16   C20   A    
C96   H52   S    
O40   C112  S    
C40   O32   S    
C107  H84   S    
C109  H89   S    
C68   H11   S    
C54   O25   S    
C39   O31   S    
C70   H13   S    
O34   C106  S    
Cu4   O16   S    
C91   H35   S    
C77   C78   A    
C105  H78   S    
C97   H53   S    
C79   C80   A    
C35   C64   A    
C72   H14   S    
C111  H97   S    
Cu3   Cu4   S    
C106  H81   S    
C83   C88   A    
C91   H36   S    
C66   C67   A    
C92   H40   S    
C31   C48   A    
C108  H87   S    
C3    O3    A    
O22   C94   S    
C23   N4    A    
C32   C47   A    
C89   H30   S    
C36   C44   A    
C51   C59   A    
C37   C45   A    
C84   C85   A    
C87   H27   S    
C27   C52   A    
C14   C65   S    
C111  H96   S    
O18   C90   S    
C110  H94   S    
C69   H12   S    
Cu1   O11   S    
C43   H4    S    
C2    C28   S    
O38   C110  S    
O24   C96   S    
C1    O9    A    
Cu1   N1    S    
C74   C75   A    
C90   H33   S    
C78   H19   S    
C103  H73   S    
C37   C58   A    
C22   N1    A    
C103  H72   S    
O28   C100  S    
C6    O6    A    
C25   C42   A    
C4    C26   S    
C110  H92   S    
Cu3   O8    S    
C93   H41   S    
C36   O36   S    
C7    O15   A    
C12   C24   A    
C87   C88   A    
C51   O24   S    
Cu4   O13   S    
C104  H75   S    
C67   C68   A    
C13   C17   A    
C29   C46   A    
C16   N3    A    
C8    C30   S    
C99   H59   S    
C112  H100  S    
C100  H63   S    
C83   C84   A    
C104  H74   S    
C33   C41   A    
C79   H20   S    
Cu1   Cu2   S    
C72   C73   A    
C21   O18   S    
C42   H1    S    
C9    C21   A    
C81   H22   S    
C86   C87   A    
C15   C83   S    
C39   C60   A    
C73   H15   S    
C22   O17   S    
C11   C23   A    
C68   C69   A    
C96   H51   S    
C82   H23   S    
C55   O28   S    
C35   O35   S    
C34   C61   A    
C105  H77   S    
C97   H54   S    
C38   C46   A    
C2    O2    A    
C13   N2    A    
C95   H47   S    
O36   C108  S    
C9    C18   A    
C49   O22   S    
C106  H82   S    
C23   O20   S    
C103  H71   S    
C28   C43   A    
C96   H50   S    
C108  H88   S    
O35   C107  S    
C1    C27   S    
Cu4   O7    S    
C37   O29   S    
C89   H29   S    
C111  H95   S    
C98   H56   S    
C112  H99   S    
O26   C98   S    
O17   C89   S    
C98   H57   S    
C46   H5    S    
C16   C77   S    
C26   C41   A    
C41   H2    S    
C4    O12   A    
C33   O33   S    
