data_mof_unit_15465.cif
_audit_creation_date              2013-03-05T16:03:01-0500
_audit_creation_method            fapswitch 2.2
_symmetry_space_group_name_H-M    P1
_symmetry_Int_Tables_number       1
_space_group_crystal_system       triclinic
_cell_length_a                    6.944983
_cell_length_b                    18.366336
_cell_length_c                    20.107259
_cell_angle_alpha                 68.342649
_cell_angle_beta                  91.383125
_cell_angle_gamma                 90.624602
_cell_volume                      2383.00648121

loop_
_atom_site_label
_atom_site_type_symbol
_atom_site_description
_atom_site_fract_x
_atom_site_fract_y
_atom_site_fract_z
_atom_type_partial_charge
O1    O     O_R   0.488990 0.443920 0.942160 -0.584901
O2    O     O_R   0.823840 0.406530 0.087600 -0.595895
O3    O     O_R   0.999650 0.556080 0.057840 -0.593260
C1    C     C_R   0.657236 0.384063 0.115204 0.922883
O4    O     O_R   0.818390 0.434590 0.944530 -0.589623
O5    O     O_R   0.994160 0.584350 0.913750 -0.588185
C2    C     C_R   0.648226 0.420241 0.924243 0.972308
O6    O     O_R   0.494480 0.415650 0.086250 -0.586549
O7    O     O_3   0.662600 0.549100 0.990070 -0.271876
V1    V     V_3+5 0.935320 0.490890 0.001840 1.179519
O8    O     O_R   0.324240 0.593470 0.912400 -0.587747
C3    C     C_R   0.154085 0.616802 0.885247 0.941159
O9    O     O_R   0.329690 0.565410 0.055470 -0.594107
C4    C     C_R   0.162890 0.578986 0.076364 0.977171
V2    V     V_3+5 0.435990 0.509110 0.998160 1.181175
O10   O     O_3   0.158840 0.450900 0.009930 -0.270081
C5    C     C_3   0.930871 0.716779 0.225392 -0.556937
C6    C     C_3   0.251431 0.662538 0.282871 -0.388234
C7    C     C_3   0.242926 0.711155 0.332250 -0.482565
H1    H     H_    0.872534 0.716314 0.329498 0.049079
H2    H     H_    0.860285 0.658456 0.249817 0.141594
H3    H     H_    0.404592 0.652888 0.273299 0.172505
H4    H     H_    0.185426 0.603904 0.310468 0.166159
H5    H     H_    0.176950 0.674999 0.383959 0.163922
H6    H     H_    0.391970 0.725390 0.345260 0.216060
C8    C     C_1   0.109200 0.872656 0.380067 -0.164469
C9    C     C_3   0.144235 0.705363 0.210111 0.343977
C10   C     C_3   0.919827 0.761318 0.278031 0.553278
C11   C     C_3   0.125335 0.787847 0.294989 0.195353
C12   C     C_3   0.234967 0.833918 0.225262 -0.383040
C13   C     C_3   0.238098 0.787289 0.174546 -0.392293
C14   C     C_1   0.115683 0.834170 0.342195 0.013808
C15   C     C_1   0.154154 0.660059 0.162233 -0.027828
C16   C     C_1   0.158819 0.623393 0.122852 -0.266202
H7    H     H_    0.161035 0.820808 0.123385 0.176698
H8    H     H_    0.389851 0.780663 0.161091 0.179708
H9    H     H_    0.177028 0.893505 0.196759 0.152088
H10   H     H_    0.850050 0.747335 0.174498 0.183257
H11   H     H_    0.385534 0.843707 0.239951 0.227032
C17   C     C_R   0.124423 0.775909 0.880590 -0.299426
C18   C     C_R   0.105819 0.851354 0.881242 0.697361
C19   C     C_R   0.099420 0.915374 0.815496 -0.212790
C20   C     C_R   0.104796 0.903465 0.751034 -0.230472
C21   C     C_R   0.118286 0.827319 0.749759 0.109439
C22   C     C_R   0.128500 0.762244 0.815859 0.037063
C23   C     C_R   0.122040 0.815443 0.683972 -0.253578
C24   C     C_R   0.133246 0.738224 0.684454 0.129871
C25   C     C_R   0.142337 0.673091 0.750527 0.063453
C26   C     C_R   0.141810 0.685065 0.816300 -0.227075
C27   C     C_R   0.134585 0.724390 0.619868 -0.214232
C28   C     C_R   0.142540 0.648478 0.620180 -0.232568
C29   C     C_R   0.149607 0.583866 0.684794 0.430335
C30   C     C_R   0.150563 0.596639 0.749403 -0.316729
H12   H     H_    0.133495 0.727848 0.931847 0.125790
H13   H     H_    0.092273 0.974947 0.813415 0.183717
H14   H     H_    0.098773 0.954820 0.702165 0.142041
H15   H     H_    0.128568 0.772072 0.568337 0.104685
H16   H     H_    0.142142 0.640392 0.569498 0.166972
H17   H     H_    0.156870 0.546134 0.798882 0.164790
H18   H     H_    0.663092 0.478775 0.311226 0.133272
C31   C     C_R   0.695626 0.226346 0.121634 -0.151399
C32   C     C_R   0.696833 0.151360 0.120686 -0.172251
C33   C     C_R   0.652716 0.088159 0.181871 -0.186479
C34   C     C_R   0.614200 0.098209 0.245867 0.332655
C35   C     C_R   0.628202 0.174056 0.250235 -0.032698
C36   C     C_R   0.659323 0.239299 0.185307 0.109879
C37   C     C_R   0.606218 0.186959 0.315838 -0.260194
C38   C     C_R   0.595207 0.265861 0.313688 -0.021898
C39   C     C_R   0.636557 0.329323 0.248716 0.115205
C40   C     C_R   0.653694 0.316374 0.184278 -0.251263
C41   C     C_R   0.544346 0.285196 0.373779 0.286770
C42   C     C_R   0.579475 0.360904 0.372982 -0.149343
C43   C     C_R   0.641414 0.420144 0.311606 -0.175648
C44   C     C_R   0.661815 0.405601 0.249250 -0.164322
H19   H     H_    0.723980 0.274023 0.071710 0.105599
H20   H     H_    0.723405 0.142565 0.071336 0.134936
H21   H     H_    0.635825 0.031277 0.178365 0.131519
H22   H     H_    0.544975 0.375648 0.418732 0.163801
H23   H     H_    0.701354 0.454619 0.201700 0.114750
O11   O     O_R   0.770890 0.084490 0.414040 -0.580601
O12   O     O_R   0.445980 0.065450 0.555510 -0.564493
O13   O     O_R   0.270670 0.915620 0.586180 -0.607878
C45   C     C_R   0.616004 0.077866 0.577557 0.996011
O14   O     O_R   0.441480 0.093500 0.412450 -0.518726
O15   O     O_R   0.266140 0.943870 0.442100 -0.546579
C46   C     C_R   0.608024 0.118813 0.386042 1.007141
O16   O     O_R   0.775410 0.056240 0.558120 -0.613165
O17   O     O_3   0.602660 0.950990 0.510100 -0.275559
V3    V     V_3+5 0.329740 0.009100 0.498130 1.294135
O18   O     O_R   0.936120 0.934420 0.444240 -0.577472
C47   C     C_R   0.103443 0.919449 0.424638 1.011836
O19   O     O_R   0.940610 0.906370 0.587310 -0.603184
C48   C     C_R   0.110538 0.883616 0.614958 0.902773
V4    V     V_3+5 0.829110 0.990690 0.501470 1.239270
O20   O     O_3   0.106080 0.049010 0.489880 -0.237138
C49   C     C_3   0.819623 0.254033 0.702035 -0.469662
C50   C     C_3   0.460863 0.262174 0.692310 -0.333482
C51   C     C_3   0.458000 0.309062 0.742729 -0.315765
H24   H     H_    0.831118 0.366079 0.717585 0.215740
H25   H     H_    0.831724 0.294303 0.645214 0.205693
H26   H     H_    0.321906 0.231006 0.694629 0.201997
H27   H     H_    0.473285 0.303930 0.636014 0.186644
H28   H     H_    0.460345 0.372880 0.710009 0.211240
H29   H     H_    0.321850 0.296387 0.773029 0.197103
C52   C     C_1   0.637372 0.373619 0.879618 -0.246343
C53   C     C_3   0.632974 0.204129 0.711671 0.182359
C54   C     C_3   0.819589 0.302691 0.751162 -0.319472
C55   C     C_3   0.633222 0.287545 0.795577 0.262927
C56   C     C_3   0.621357 0.198656 0.841220 -0.510852
C57   C     C_3   0.626488 0.149240 0.792447 0.274786
C58   C     C_1   0.633771 0.334795 0.842000 0.005350
C59   C     C_1   0.632272 0.158472 0.663890 0.007730
C60   C     C_1   0.627544 0.121651 0.624588 -0.160124
H30   H     H_    0.762905 0.114835 0.805570 0.070326
H31   H     H_    0.744762 0.181584 0.880204 0.149369
H32   H     H_    0.948356 0.215319 0.715115 0.192245
H33   H     H_    0.948138 0.287042 0.787732 0.185072
H34   H     H_    0.488283 0.186357 0.873298 0.201678
O21   O     O_3   0.770690 0.818280 0.260682 -0.615951
C61   C     C_3   0.800924 0.884319 0.197812 -0.191303
H35   H     H_    0.877737 0.872011 0.155547 0.110614
H36   H     H_    0.876452 0.930543 0.211628 0.165877
H37   H     H_    0.658550 0.907689 0.173974 0.146730
N1    N     N_R   0.154779 0.505395 0.685036 0.221888
O22   O     O_R   0.159223 0.493274 0.625268 -0.435034
O23   O     O_R   0.152278 0.445248 0.745066 -0.471783
O24   O     O_3   0.108629 0.859057 0.947601 -0.623566
C62   C     C_3   0.987632 0.919988 0.948449 -0.240504
H38   H     H_    0.846785 0.920782 0.920438 0.160697
H39   H     H_    0.061929 0.977482 0.925501 0.182009
H40   H     H_    0.956400 0.910289 0.004946 0.155670
N2    N     N_R   0.525264 0.033899 0.300094 0.209931
O25   O     O_R   0.338611 0.034256 0.303587 -0.428700
O26   O     O_R   0.616663 0.967664 0.327981 -0.402445
N3    N     N_R   0.419950 0.236412 0.428127 0.214795
O27   O     O_R   0.253072 0.217476 0.408325 -0.370139
O28   O     O_R   0.438835 0.236228 0.492692 -0.453610
N4    N     N_R   0.465585 0.093314 0.807308 0.232915
O29   O     O_R   0.500686 0.018865 0.826178 -0.435753
O30   O     O_R   0.288460 0.116269 0.806121 -0.469752

loop_
_geom_bond_atom_site_label_1
_geom_bond_atom_site_label_2
_geom_bond_distance
_ccdc_geom_bond_type
C45   O16   1.296606 A    
C8    C14   1.217055 T    
C18   C19   1.408227 A    
C45   C60   1.450393 S    
C1    O6    1.298615 A    
C62   H38   1.114414 S    
C1    C40   1.483794 S    
C3    C26   1.488216 S    
C30   H17   1.081555 S    
N3    O27   1.301472 A    
C53   C59   1.490148 S    
C9    C15   1.489807 S    
C32   C33   1.382464 A    
O13   V3    2.006632 S    
C10   C11   1.573117 S    
O14   C46   1.292921 A    
C11   C14   1.493196 S    
C38   C41   1.432083 A    
C41   N3    1.431550 S    
C12   C13   1.555587 S    
V2    O10   2.166617 S    
O16   V4    1.982040 S    
C50   C51   1.554176 S    
H18   C43   1.082941 S    
C51   C55   1.550590 S    
C55   C56   1.552139 S    
C6    C7    1.563620 S    
C43   C44   1.385655 A    
C18   O24   1.392401 S    
C42   H22   1.083011 S    
O8    V2    1.991491 S    
C31   C36   1.414566 A    
V4    O20   2.166596 S    
C34   N2    1.425294 S    
C21   C23   1.418734 A    
C38   C39   1.426390 A    
C35   C37   1.435510 A    
O11   C46   1.310182 A    
C54   C55   1.553948 S    
C2    C52   1.451372 S    
O1    V2    1.965103 S    
O7    V1    2.149912 S    
C57   H30   1.115541 S    
C50   H27   1.113293 S    
C61   H37   1.107327 S    
O12   V3    1.967775 S    
C52   C58   1.215738 T    
O13   C48   1.297268 A    
C6    H3    1.113144 S    
O9    C4    1.299127 A    
C5    C10   1.561914 S    
C32   H20   1.082859 S    
C39   C40   1.408903 A    
C59   C60   1.214752 T    
O12   C45   1.298589 A    
C61   H36   1.109237 S    
C56   H34   1.112598 S    
O18   V4    1.969880 S    
C24   C27   1.412558 A    
O15   C47   1.298931 A    
C17   C22   1.414529 A    
O17   V4    1.711697 S    
C6    C9    1.556969 S    
C9    C13   1.551550 S    
C28   C29   1.399565 A    
C5    C9    1.552562 S    
C57   N4    1.468884 S    
O4    C2    1.296817 A    
O15   V3    1.964770 S    
N2    O25   1.300115 A    
H1    C10   1.114064 S    
C27   C28   1.393607 A    
C8    C47   1.454081 S    
C31   H19   1.081766 S    
C37   C38   1.436574 A    
C12   H9    1.106161 S    
V3    O20   1.703007 S    
O2    C1    1.291770 A    
C20   C21   1.412364 A    
O5    V1    2.006554 S    
C11   C12   1.556672 S    
C19   H13   1.081039 S    
C24   C25   1.422884 A    
C22   C26   1.418240 A    
O21   C61   1.410248 S    
O19   V4    1.991414 S    
C15   C16   1.215266 T    
C39   C44   1.413930 A    
C28   H16   1.082672 S    
C29   C30   1.402605 A    
O3    C4    1.298410 A    
N4    O30   1.301532 A    
C50   C53   1.554297 S    
N2    O26   1.301297 A    
C25   C26   1.418576 A    
C49   C54   1.557573 S    
O6    V2    1.996270 S    
C17   H12   1.082568 S    
C44   H23   1.082582 S    
O9    V2    1.969603 S    
C13   H7    1.112132 S    
C19   C20   1.393200 A    
O11   V4    1.991816 S    
O24   C62   1.412113 S    
O2    V1    2.009931 S    
C62   H40   1.109497 S    
C61   H35   1.106450 S    
N1    O23   1.301513 A    
C33   H21   1.077697 S    
N3    O28   1.300440 A    
C49   C53   1.553413 S    
C23   C24   1.417646 A    
C17   C18   1.397954 A    
C37   C46   1.501564 S    
O1    C2    1.298950 A    
C27   H15   1.082226 S    
C21   C22   1.422951 A    
C42   C43   1.384254 A    
C10   O21   1.423306 S    
C62   H39   1.110930 S    
C4    C16   1.450595 S    
O8    C3    1.298226 A    
C25   C30   1.414438 A    
H24   C54   1.112662 S    
C55   C58   1.490671 S    
C34   C35   1.429921 A    
C7    H5    1.112964 S    
O7    V2    1.715149 S    
C41   C42   1.403403 A    
O3    V1    1.964734 S    
V1    O10   1.702984 S    
C56   C57   1.563994 S    
O5    C3    1.296717 A    
C29   N1    1.440272 S    
O18   C47   1.300148 A    
C36   C40   1.409046 A    
C23   C48   1.487987 S    
C6    H4    1.112745 S    
C51   H29   1.112567 S    
C49   H25   1.113092 S    
O19   C48   1.297710 A    
C12   H11   1.110493 S    
C5    H10   1.110165 S    
C31   C32   1.384489 A    
C7    H6    1.113440 S    
C5    H2    1.113923 S    
N4    O29   1.301114 A    
C56   H31   1.113238 S    
C33   C34   1.398012 A    
C20   H14   1.082457 S    
O4    V1    1.967891 S    
O17   V3    2.149907 S    
C53   C57   1.565333 S    
C35   C36   1.428376 A    
O14   V3    2.010043 S    
C13   H8    1.113382 S    
C49   H32   1.112905 S    
C54   H33   1.112761 S    
C50   H26   1.109778 S    
C51   H28   1.112579 S    
N1    O22   1.301604 A    
C7    C11   1.558485 S    
