data_mof_unit_17453.cif
_audit_creation_date              2012-12-11T14:08:06-0500
_audit_creation_method            fapswitch 2.2
_symmetry_space_group_name_H-M    P1
_symmetry_Int_Tables_number       1
_space_group_crystal_system       triclinic
_cell_length_a                    10.857167
_cell_length_b                    10.888181
_cell_length_c                    18.644256
_cell_angle_alpha                 90.966352
_cell_angle_beta                  90.130703
_cell_angle_gamma                 61.084144
_cell_volume                      1928.93476005

loop_
_atom_site_label
_atom_site_type_symbol
_atom_type_description
_atom_site_fract_x
_atom_site_fract_y
_atom_site_fract_z
_atom_type_partial_charge
C1    C     C_R   0.236373 0.645530 0.608964 0.548149
C2    C     C_3   0.648459 0.572618 0.799396 -0.255452
C3    C     C_3   0.703689 0.677189 0.811048 0.054439
C4    C     C_3   0.672876 0.651972 0.674920 0.063233
C5    C     C_3   0.829024 0.606807 0.690814 -0.242987
C6    C     C_3   0.624584 0.562199 0.719221 -0.214085
C7    C     C_2   0.676984 0.158394 0.670274 -0.138444
C8    C     C_2   0.693078 0.165564 0.827041 -0.120875
C9    C     C_2   0.804113 0.137165 0.783227 -0.032622
C10   C     C_2   0.775581 0.173485 0.706971 -0.153349
C11   C     C_2   0.182097 0.661954 0.681924 -0.127888
C12   C     C_R   0.655841 0.625038 0.599841 0.539059
C13   C     C_2   0.197644 0.660565 0.839997 -0.126785
C14   C     C_2   0.193255 0.559716 0.799705 -0.178251
C15   C     C_2   0.221559 0.547952 0.722504 -0.177223
C16   C     C_2   0.650730 0.646757 0.317553 -0.107133
C17   C     C_2   0.632761 0.666469 0.159598 -0.102668
C18   C     C_2   0.704472 0.547197 0.194935 -0.164096
C19   C     C_2   0.684322 0.538787 0.271315 -0.165726
C20   C     C_2   0.600798 0.260035 0.313163 -0.111539
C21   C     C_2   0.634050 0.214125 0.160882 -0.104318
C22   C     C_2   0.509401 0.264340 0.193747 -0.143635
C23   C     C_R   0.628181 0.227821 0.601808 0.557968
C24   C     C_2   0.492207 0.315530 0.267855 -0.168292
C25   C     C_2   0.112199 0.677507 0.345060 0.000213
C26   C     C_2   0.989297 0.757513 0.192704 -0.113495
C27   C     C_2   0.022866 0.833665 0.237815 -0.163316
C28   C     C_2   0.056817 0.805339 0.314508 -0.146996
C29   C     C_R   0.705122 0.100484 0.896815 0.542047
C30   C     C_R   0.726116 0.689568 0.887527 0.547050
C31   C     C_R   0.120565 0.705459 0.907774 0.554266
C32   C     C_R   0.673060 0.115378 0.101389 0.552148
C33   C     C_R   0.692233 0.688984 0.094740 0.542410
C34   C     C_R   0.215066 0.649238 0.403293 0.558519
C35   C     C_R   0.011382 0.756510 0.115942 0.594938
C36   C     C_R   0.641845 0.621089 0.392877 0.542999
C37   C     C_R   0.578871 0.296808 0.388099 0.571687
C38   C     C_3   0.596781 0.822210 0.778899 -0.227190
C39   C     C_3   0.581563 0.807728 0.697694 -0.250060
C40   C     C_3   0.846558 0.624089 0.771000 -0.225410
Cr1   Cr    Cr6+3 0.393010 0.398050 0.501480 0.991654
Cr2   Cr    Cr6+3 0.398820 0.707980 0.501630 1.011055
Cr3   Cr    Cr6+3 0.708140 0.393940 0.496850 0.997696
Cr4   Cr    Cr6+3 0.937950 0.938450 0.008940 0.997693
Cr5   Cr    Cr6+3 0.626180 0.937030 0.994750 1.009882
Cr6   Cr    Cr6+3 0.937790 0.625760 0.001410 1.007026
H1    H     H_    0.633314 0.900535 0.788789 0.136396
H2    H     H_    0.683322 0.450720 0.701982 0.136661
H3    H     H_    0.926698 0.520855 0.791846 0.134197
H4    H     H_    0.898800 0.494994 0.675029 0.139438
H5    H     H_    0.834794 0.217030 0.680972 0.152896
H6    H     H_    0.586828 0.222982 0.806137 0.097157
H7    H     H_    0.619536 0.111253 0.694813 0.094163
H8    H     H_    0.160551 0.488815 0.822446 0.148105
H9    H     H_    0.275236 0.442918 0.698950 0.159185
H10   H     H_    0.237330 0.726307 0.817553 0.101731
H11   H     H_    0.491884 0.862866 0.805151 0.127659
H12   H     H_    0.125913 0.766693 0.705438 0.101989
H13   H     H_    0.790122 0.455295 0.169266 0.149912
H14   H     H_    0.712977 0.435203 0.290984 0.141590
H15   H     H_    0.541885 0.755458 0.183956 0.114715
H16   H     H_    0.621884 0.751745 0.299975 0.096668
H17   H     H_    0.424031 0.252986 0.169840 0.155295
H18   H     H_    0.387363 0.388384 0.287147 0.134285
H19   H     H_    0.715706 0.234095 0.182781 0.093603
H20   H     H_    0.706279 0.183380 0.295913 0.104632
H21   H     H_    0.047442 0.911343 0.216082 0.152223
H22   H     H_    0.468645 0.845657 0.685304 0.141260
H23   H     H_    0.072815 0.886377 0.340745 0.143723
H24   H     H_    0.945674 0.692938 0.209997 0.089988
H25   H     H_    0.615637 0.874253 0.668145 0.112033
H26   H     H_    0.886859 0.699816 0.779486 0.125971
H27   H     H_    0.863426 0.671490 0.659770 0.116700
H28   H     H_    0.725629 0.467374 0.819548 0.133461
H29   H     H_    0.547881 0.608139 0.829303 0.114440
H30   H     H_    0.510957 0.597860 0.709818 0.129549
O1    O     O_R   0.507110 0.256280 0.580300 -0.515856
O2    O     O_R   0.524640 0.695370 0.425100 -0.488272
O3    O     O_R   0.735890 0.504390 0.415980 -0.532140
O4    O     O_R   0.690560 0.277820 0.422350 -0.501204
O5    O     O_3   0.499990 0.499990 0.499980 -0.263013
O6    O     O_R   0.089190 0.825870 0.932320 -0.528677
O7    O     O_R   0.819070 0.053960 0.931440 -0.508782
O8    O     O_R   0.607070 0.076440 0.916460 -0.518487
O9    O     O_R   0.647110 0.806550 0.917690 -0.507690
O10   O     O_R   0.837080 0.593860 0.915300 -0.527719
O11   O     O_R   0.064770 0.636080 0.932550 -0.492305
O12   O     O_R   0.280830 0.527190 0.577940 -0.501323
O13   O     O_R   0.068250 0.829200 0.092940 -0.512350
O14   O     O_R   0.799650 0.057040 0.080330 -0.524333
O15   O     O_R   0.586130 0.079760 0.077080 -0.508408
O16   O     O_R   0.627700 0.809630 0.066580 -0.496039
O17   O     O_R   0.816140 0.597180 0.075920 -0.524222
O18   O     O_R   0.045360 0.639170 0.081440 -0.495883
O19   O     O_3   0.833980 0.833750 0.001700 -0.275650
O20   O     O_R   0.261360 0.738990 0.584270 -0.518013
O21   O     O_R   0.532590 0.694780 0.574370 -0.504439
O22   O     O_R   0.744470 0.503750 0.577000 -0.531720
O23   O     O_R   0.698520 0.277230 0.571620 -0.495631
O24   O     O_R   0.498530 0.256920 0.419280 -0.513202
O25   O     O_R   0.272880 0.527780 0.428680 -0.534582
O26   O     O_R   0.252780 0.739630 0.423250 -0.515610
C41   C     C_3   0.955884 0.064563 0.808995 -0.234711
C42   C     C_3   0.064425 0.062919 0.756106 -0.468081
H31   H     H_    0.063545 0.010269 0.704761 0.158675
H32   H     H_    0.042918 0.171700 0.745784 0.142302
H33   H     H_    0.171253 0.004101 0.779471 0.133393
H34   H     H_    0.963844 0.118092 0.858644 0.175750
H35   H     H_    0.985328 0.954391 0.820369 0.176979
C43   C     C_3   0.077003 0.563467 0.317623 -0.266189
C44   C     C_3   0.117768 0.431957 0.362808 -0.283649
C45   C     C_3   0.063311 0.338766 0.329190 -0.459705
H36   H     H_    0.947438 0.396554 0.325690 0.184000
H37   H     H_    0.108428 0.303154 0.274520 0.146592
H38   H     H_    0.094293 0.245128 0.362762 0.146356
H39   H     H_    0.233523 0.365570 0.365038 0.200985
H40   H     H_    0.073628 0.463476 0.417972 0.181154
H41   H     H_    0.960471 0.614552 0.313999 0.153509
H42   H     H_    0.127415 0.525069 0.264209 0.146270

loop_
_geom_bond_atom_site_label_1
_geom_bond_atom_site_label_2
_ccdc_geom_bond_type
C7    C10   D    
C23   O23   A    
C39   H22   S    
C28   H23   S    
C1    C11   S    
Cr3   O22   S    
Cr4   O7    S    
C43   H41   S    
C45   H37   S    
C25   C28   D    
C26   C27   D    
C34   O26   A    
C31   O6    A    
C16   H16   S    
Cr2   O20   S    
C8    C29   S    
C20   H20   S    
Cr3   O23   S    
C29   O7    A    
Cr4   O6    S    
C16   C19   D    
Cr1   O1    S    
C38   C39   S    
C32   O15   A    
Cr3   O3    S    
C40   H3    S    
C18   C19   S    
Cr5   O16   S    
C43   C44   S    
C45   H36   S    
C17   H15   S    
C22   H17   S    
C11   C15   D    
C32   O14   A    
Cr6   O19   S    
C20   C24   D    
C3    C38   S    
C8    C9    D    
C44   H39   S    
C30   O10   A    
C11   H12   S    
C9    C10   S    
C8    H6    S    
C12   O22   A    
C2    H28   S    
C25   C34   S    
C13   H10   S    
C1    O12   A    
C24   H18   S    
C21   C22   D    
C42   H33   S    
C2    C6    S    
Cr2   O5    S    
C17   C33   S    
C10   H5    S    
Cr2   O26   S    
C42   H32   S    
C42   H31   S    
C37   O4    A    
C21   C32   S    
C34   O25   A    
C31   O11   A    
C29   O8    A    
C4    C6    S    
Cr2   O21   S    
Cr3   O4    S    
C15   H9    S    
C3    C30   S    
Cr5   O9    S    
C38   H11   S    
C18   H13   S    
Cr6   O18   S    
C4    C39   S    
C9    C41   S    
Cr1   O5    S    
C17   C18   D    
C38   H1    S    
Cr1   O24   S    
C23   O1    A    
C30   O9    A    
C12   O21   A    
C41   H34   S    
C6    H2    S    
C25   C43   S    
C35   O13   A    
C14   H8    S    
C3    C40   S    
Cr2   O2    S    
C26   H24   S    
C22   C24   S    
C5    H4    S    
C33   O16   A    
Cr5   O8    S    
C4    C12   S    
C7    H7    S    
Cr5   O19   S    
C41   C42   S    
Cr4   O14   S    
Cr3   O5    S    
Cr6   O11   S    
C35   O18   A    
Cr1   O12   S    
C40   H26   S    
C44   C45   S    
C21   H19   S    
C13   C31   S    
C4    C5    S    
C36   O3    A    
C33   O17   A    
C43   H42   S    
C6    H30   S    
C19   H14   S    
C44   H40   S    
C41   H35   S    
C2    C3    S    
Cr4   O19   S    
C36   O2    A    
C16   C36   S    
C20   C37   S    
Cr6   O17   S    
C1    O20   A    
C7    C23   S    
Cr1   O25   S    
C37   O24   A    
C5    H27   S    
Cr5   O15   S    
C27   H21   S    
C2    H29   S    
C26   C35   S    
C5    C40   S    
C27   C28   S    
C39   H25   S    
C14   C15   S    
C13   C14   D    
C45   H38   S    
Cr4   O13   S    
Cr6   O10   S    
