data_mof_unit_60617.cif
_audit_creation_date              2012-12-10T16:49:19-0500
_audit_creation_method            fapswitch 2.2
_symmetry_space_group_name_H-M    P1
_symmetry_Int_Tables_number       1
_space_group_crystal_system       triclinic
_cell_length_a                    19.00243
_cell_length_b                    18.786031
_cell_length_c                    19.131933
_cell_angle_alpha                 109.212769
_cell_angle_beta                  110.609583
_cell_angle_gamma                 108.905664
_cell_volume                      5236.03706537

loop_
_atom_site_label
_atom_site_type_symbol
_atom_type_description
_atom_site_fract_x
_atom_site_fract_y
_atom_site_fract_z
_atom_type_partial_charge
C1    C     C_R   0.617174 0.618592 0.500628 0.821845
C2    C     C_3   0.256033 0.470289 0.181241 0.167822
C3    C     C_3   0.238795 0.418448 0.226797 0.176915
C4    C     C_3   0.313325 0.498877 0.313766 -0.067615
C5    C     C_2   0.736402 0.756761 0.428721 -0.159859
C6    C     C_2   0.821564 0.798995 0.484269 -0.312401
C7    C     C_2   0.678367 0.683919 0.430606 -0.168100
C8    C     C_2   0.682497 0.690066 0.504493 0.043193
C9    C     C_2   0.834002 0.522371 0.760166 0.165428
C10   C     C_2   0.818957 0.476575 0.800959 -0.014082
C11   C     C_2   0.760892 0.503200 0.681215 0.190309
C12   C     C_R   0.380710 0.499180 0.381265 0.823703
C13   C     C_2   0.697834 0.516453 0.688708 -0.341519
C14   C     C_2   0.264368 0.249758 0.578129 0.178984
C15   C     C_2   0.182502 0.195032 0.510067 -0.369693
C16   C     C_2   0.319382 0.326518 0.578556 0.179119
C17   C     C_2   0.328456 0.313761 0.509142 -0.365261
C18   C     C_R   0.009597 0.617850 0.126062 0.865717
C19   C     C_R   0.125650 0.500294 0.125910 0.821970
C20   C     C_R   0.005405 0.381845 0.888579 0.857703
C21   C     C_R   0.887712 0.494515 0.882764 0.850641
C22   C     C_R   0.000840 0.119601 0.616219 0.853681
C23   C     C_R   0.385500 0.382088 0.502523 0.866357
C24   C     C_R   0.883295 0.877612 0.494869 0.845097
C25   C     C_R   0.996919 0.877769 0.383926 0.841923
C26   C     C_R   0.117568 0.120252 0.502794 0.864066
C27   C     C_2   0.027761 0.756378 0.334063 0.175367
C28   C     C_2   0.979746 0.795861 0.317253 -0.017403
C29   C     C_2   0.011177 0.678565 0.263035 0.181635
C30   C     C_2   0.020425 0.686908 0.199105 -0.351380
C31   C     C_2   0.000406 0.258093 0.681770 0.192701
C32   C     C_2   0.006500 0.189430 0.684882 -0.315967
C33   C     C_2   0.015539 0.328665 0.759245 -0.158064
C34   C     C_R   0.622537 0.504191 0.619182 0.859780
C35   C     C_2   0.994998 0.313194 0.815089 -0.360916
C36   C     C_3   0.250039 0.529124 0.326375 -0.235985
C37   C     C_3   0.174556 0.447768 0.238249 -0.238245
C38   C     C_3   0.192817 0.500186 0.193156 -0.067904
C39   C     C_3   0.267192 0.580603 0.280105 0.179678
C40   C     C_3   0.330877 0.550845 0.268611 0.176963
Cu1   Cu    Cu3+1 0.500860 0.438990 0.439830 0.934406
Cu2   Cu    Cu3+1 0.499140 0.561010 0.560170 0.934281
Cu3   Cu    Cu3+1 0.946020 0.438950 0.007030 0.936254
Cu4   Cu    Cu3+1 0.068040 0.560950 0.006980 0.931524
Cu5   Cu    Cu3+1 0.938110 0.000000 0.438130 0.939757
Cu6   Cu    Cu3+1 0.061890 0.000000 0.561870 0.929480
H1    H     H_    0.043115 0.750494 0.204073 0.138659
H2    H     H_    0.708838 0.775644 0.382629 0.168432
O1    O     O_R   0.589740 0.537510 0.449170 -0.600168
O2    O     O_R   0.057320 0.640510 0.094780 -0.589486
O3    O     O_R   0.045810 0.448440 0.097300 -0.596786
O4    O     O_R   0.148850 0.551460 0.097260 -0.585663
O5    O     O_R   0.956740 0.359390 0.919230 -0.589073
O6    O     O_R   0.059790 0.462410 0.919190 -0.587013
O7    O     O_R   0.865220 0.448430 0.916750 -0.585219
O8    O     O_R   0.968260 0.551460 0.916710 -0.598319
O9    O     O_R   0.946480 0.089020 0.535540 -0.576021
O10   O     O_R   0.051000 0.089020 0.640050 -0.591299
O11   O     O_R   0.858720 0.910970 0.447760 -0.585257
O12   O     O_R   0.588290 0.640550 0.550800 -0.584924
O13   O     O_R   0.963250 0.910970 0.552260 -0.592973
O14   O     O_R   0.949000 0.910980 0.359950 -0.581864
O15   O     O_R   0.053520 0.910980 0.464460 -0.597980
O16   O     O_R   0.036750 0.089030 0.447740 -0.590893
O17   O     O_R   0.141280 0.089030 0.552240 -0.579121
O18   O     O_R   0.410430 0.448470 0.358910 -0.587472
O19   O     O_R   0.408980 0.551520 0.460540 -0.591338
O20   O     O_R   0.411710 0.359450 0.449200 -0.589506
O21   O     O_R   0.410260 0.462490 0.550830 -0.581073
O22   O     O_R   0.591020 0.448480 0.539460 -0.577862
O23   O     O_R   0.589570 0.551530 0.641090 -0.596205
O24   O     O_R   0.954280 0.537480 0.094820 -0.577950
H3    H     H_    0.109620 0.405118 0.224893 0.165677
C41   C     C_3   0.742993 0.774487 0.590870 -0.833432
H4    H     H_    0.723385 0.774295 0.639017 0.236836
H5    H     H_    0.809516 0.784384 0.619859 0.219181
H6    H     H_    0.743345 0.830685 0.583235 0.246606
C42   C     C_3   0.921785 0.595938 0.792905 -0.847228
H7    H     H_    0.917675 0.625120 0.750668 0.227295
H8    H     H_    0.946714 0.648473 0.858356 0.239900
H9    H     H_    0.967814 0.571511 0.793428 0.240577
C43   C     C_3   0.729710 0.398050 0.758451 -0.879073
H10   H     H_    0.730962 0.354029 0.785206 0.250938
H11   H     H_    0.684111 0.419538 0.767476 0.230963
H12   H     H_    0.703770 0.357743 0.688500 0.242941
C44   C     C_3   0.762007 0.473635 0.598305 -0.804878
H13   H     H_    0.822640 0.472000 0.608717 0.221005
H14   H     H_    0.706899 0.406877 0.549451 0.241812
H15   H     H_    0.758198 0.518979 0.573655 0.227999
H16   H     H_    0.705734 0.544846 0.752432 0.130680
C45   C     C_3   0.301764 0.237523 0.654478 -0.788212
H17   H     H_    0.370043 0.289731 0.702522 0.216760
H18   H     H_    0.263562 0.238842 0.686972 0.232423
H19   H     H_    0.302212 0.175199 0.633039 0.240144
H20   H     H_    0.159605 0.210270 0.459220 0.132045
C46   C     C_3   0.364141 0.415009 0.657242 -0.791852
H21   H     H_    0.348299 0.410386 0.706733 0.217480
H22   H     H_    0.435552 0.445130 0.686685 0.230912
H23   H     H_    0.341696 0.457408 0.639271 0.240312
H24   H     H_    0.297296 0.247677 0.456746 0.131388
C47   C     C_3   0.103571 0.791469 0.422027 -0.845357
H25   H     H_    0.135437 0.751197 0.419488 0.226065
H26   H     H_    0.153527 0.858243 0.445602 0.239320
H27   H     H_    0.081032 0.790659 0.468136 0.242394
H28   H     H_    0.248533 0.553640 0.386842 0.162579
C48   C     C_3   0.899490 0.753774 0.229149 -0.878800
H29   H     H_    0.844387 0.754074 0.237051 0.241302
H30   H     H_    0.912855 0.791082 0.196443 0.236587
H31   H     H_    0.876362 0.684679 0.186196 0.243613
C49   C     C_3   0.989787 0.596051 0.267566 -0.807678
H32   H     H_    0.991235 0.605944 0.328678 0.222698
H33   H     H_    0.923506 0.543802 0.213708 0.243496
H34   H     H_    0.037780 0.575480 0.264632 0.223440
C50   C     C_3   0.986041 0.269390 0.604282 -0.806982
H35   H     H_    0.989413 0.332807 0.616698 0.210362
H36   H     H_    0.036517 0.267075 0.588548 0.223546
H37   H     H_    0.920834 0.217426 0.548097 0.245680
H38   H     H_    0.026983 0.188993 0.745300 0.126974
H39   H     H_    0.040313 0.393878 0.768318 0.165308
H40   H     H_    0.962220 0.247245 0.802504 0.152285
C51   C     C_3   0.281933 0.672551 0.309919 -0.853031
H41   H     H_    0.339382 0.717082 0.376034 0.236554
H42   H     H_    0.293231 0.694223 0.265558 0.244091
H43   H     H_    0.224083 0.674023 0.310169 0.223730
C52   C     C_3   0.420114 0.608937 0.287094 -0.884423
H44   H     H_    0.413604 0.638797 0.245546 0.243230
H45   H     H_    0.460985 0.660962 0.355860 0.234071
H46   H     H_    0.451407 0.569697 0.273491 0.229036
C53   C     C_3   0.258270 0.436930 0.098440 -0.862549
H47   H     H_    0.309850 0.419159 0.108228 0.238066
H48   H     H_    0.194713 0.378838 0.045609 0.227408
H49   H     H_    0.271913 0.488306 0.080630 0.242244
C54   C     C_3   0.221916 0.325762 0.196469 -0.841400
H50   H     H_    0.161708 0.281353 0.132270 0.230090
H51   H     H_    0.277004 0.321626 0.191363 0.244791
H52   H     H_    0.214382 0.305986 0.243189 0.226392
H53   H     H_    0.848267 0.773326 0.523359 0.166113
H54   H     H_    0.626258 0.626518 0.369086 0.134031

loop_
_geom_bond_atom_site_label_1
_geom_bond_atom_site_label_2
_ccdc_geom_bond_type
C4    C36   S    
C47   H25   S    
C13   H16   S    
C27   C29   S    
C1    C8    S    
Cu1   Cu2   S    
C23   O21   A    
C22   O9    A    
C50   H35   S    
C7    C8    D    
Cu5   Cu6   S    
C25   C28   S    
Cu5   O9    S    
C17   C23   S    
C41   H5    S    
C36   C37   S    
C15   H20   S    
C5    C6    D    
C44   H14   S    
C45   H18   S    
C48   H29   S    
C11   C44   S    
C46   H23   S    
Cu5   O14   S    
C2    C53   S    
C25   O15   A    
Cu4   O8    S    
C49   H32   S    
C51   H43   S    
C26   O16   A    
C20   C35   S    
C19   O4    A    
Cu3   O5    S    
C4    C40   S    
C28   C48   S    
C16   C17   D    
C41   H6    S    
C46   H22   S    
C54   H52   S    
C31   C33   S    
C2    C40   S    
C18   C30   S    
C4    C12   S    
C29   C30   D    
C9    C10   D    
C34   O22   A    
C31   C50   S    
C9    C42   S    
C53   H49   S    
Cu4   O4    S    
C52   H44   S    
C47   H26   S    
Cu6   O10   S    
C54   H51   S    
C21   O8    A    
C35   H40   S    
Cu1   O1    S    
C12   O19   A    
Cu1   O20   S    
C10   C21   S    
C18   O24   A    
C38   C39   S    
C5    H2    S    
C16   C46   S    
C41   H4    S    
Cu6   O13   S    
C30   H1    S    
Cu6   O17   S    
C20   O6    A    
C1    O12   A    
Cu2   O12   S    
C39   C40   S    
C5    C7    S    
C44   H13   S    
C15   C26   S    
C12   O18   A    
C27   C47   S    
Cu2   O21   S    
C3    C54   S    
C23   O20   A    
Cu3   Cu4   S    
C37   C38   S    
C19   C38   S    
C19   O3    A    
C52   H46   S    
C2    C38   S    
C31   C32   D    
C6    C24   S    
C46   H21   S    
C8    C41   S    
C9    C11   S    
C49   H34   S    
C51   H41   S    
C22   C32   S    
C24   O13   A    
Cu3   O7    S    
C29   C49   S    
C33   H39   S    
C47   H27   S    
C43   H11   S    
Cu2   O19   S    
C14   C16   S    
C3    C4    S    
C45   H17   S    
C18   O2    A    
C21   O7    A    
C53   H47   S    
Cu4   O2    S    
Cu3   O24   S    
C37   H3    S    
Cu5   O11   S    
C36   H28   S    
C42   H7    S    
C26   O17   A    
C36   C39   S    
C32   H38   S    
C20   O5    A    
C44   H15   S    
C22   O10   A    
C7    H54   S    
C50   H36   S    
Cu1   O18   S    
C43   H12   S    
Cu5   O16   S    
C39   C51   S    
Cu6   O15   S    
C6    H53   S    
C2    C3    S    
C13   C34   S    
C45   H19   S    
C11   C13   D    
C42   H9    S    
Cu3   O3    S    
C54   H50   S    
C48   H30   S    
C24   O11   A    
C40   C52   S    
Cu2   O23   S    
C33   C35   D    
C10   C43   S    
C42   H8    S    
C25   O14   A    
C17   H24   S    
C49   H33   S    
C14   C45   S    
C51   H42   S    
C50   H37   S    
Cu4   O6    S    
C3    C37   S    
C43   H10   S    
C27   C28   D    
C52   H45   S    
C14   C15   D    
C1    O1    A    
C34   O23   A    
Cu1   O22   S    
C53   H48   S    
C48   H31   S    
