data_mof_unit_7979.cif
_audit_creation_date              2012-12-11T16:53:54-0500
_audit_creation_method            fapswitch 2.2
_symmetry_space_group_name_H-M    P1
_symmetry_Int_Tables_number       1
_space_group_crystal_system       triclinic
_cell_length_a                    14.907777
_cell_length_b                    15.16831
_cell_length_c                    16.973627
_cell_angle_alpha                 109.416484
_cell_angle_beta                  106.178927
_cell_angle_gamma                 108.74664
_cell_volume                      3092.10996724

loop_
_atom_site_label
_atom_site_type_symbol
_atom_type_description
_atom_site_fract_x
_atom_site_fract_y
_atom_site_fract_z
_atom_type_partial_charge
C1    C     C_R   0.093747 0.279959 0.020620 -0.077359
C2    C     C_R   0.065090 0.476988 0.250502 -0.105583
C3    C     C_R   0.219174 0.796321 0.191736 0.231056
C4    C     C_R   0.937283 0.453500 0.734099 -0.038326
C5    C     C_R   0.742445 0.469101 0.052550 -0.073407
C6    C     C_R   0.221196 0.795593 0.275333 0.021027
C7    C     C_R   0.719808 0.548475 0.042319 0.099311
C8    C     C_R   0.974299 0.417600 0.253047 0.136587
C9    C     C_R   0.001404 0.765183 0.904305 0.023328
C10   C     C_R   0.526011 0.654734 0.045166 0.045208
C11   C     C_R   0.475447 0.603790 0.086781 -0.000094
C12   C     C_R   0.031547 0.467439 0.726912 0.075741
C13   C     C_R   0.534019 0.577894 0.147802 -0.222874
C14   C     C_R   0.627592 0.576875 0.146533 0.481238
C15   C     C_R   0.657713 0.594563 0.078612 -0.048385
C16   C     C_R   0.724703 0.211432 0.819363 -0.141764
C17   C     C_R   0.612912 0.646572 0.037746 -0.103928
C18   C     C_3   0.582454 0.648336 0.945735 0.481853
C19   C     C_3   0.486914 0.657826 0.955425 0.170274
C20   C     C_R   0.972469 0.379980 0.322355 -0.014979
C21   C     C_R   0.047799 0.432613 0.642897 -0.017841
C22   C     C_R   0.150826 0.489547 0.566106 -0.107335
C23   C     C_R   0.672713 0.208052 0.736148 0.068258
C24   C     C_R   0.142872 0.495953 0.646294 -0.173489
C25   C     C_R   0.966729 0.348754 0.557307 0.431619
C26   C     C_R   0.971892 0.347263 0.475428 -0.041823
C27   C     C_R   0.062903 0.422387 0.481876 0.116179
C28   C     C_R   0.301986 0.596795 0.006213 -0.134294
C29   C     C_R   0.062604 0.437381 0.406220 -0.205380
C30   C     C_R   0.885750 0.294717 0.311356 0.471859
C31   C     C_R   0.886244 0.279102 0.388136 -0.151593
C32   C     C_R   0.568277 0.124849 0.664094 0.097337
C33   C     C_R   0.249087 0.883253 0.365596 -0.037450
C34   C     C_R   0.362359 0.565582 0.056953 0.088516
C35   C     C_R   0.348960 0.072771 0.453508 0.159497
C36   C     C_R   0.263837 0.982767 0.374924 0.175795
C37   C     C_R   0.285163 0.875018 0.447201 0.103624
C38   C     C_R   0.375300 0.960133 0.522748 0.059562
C39   C     C_R   0.412057 0.059243 0.523658 -0.004086
C40   C     C_R   0.730253 0.304174 0.741591 -0.037484
C41   C     C_R   0.508422 0.141396 0.595529 -0.112336
C42   C     C_R   0.528554 0.027132 0.663370 -0.137305
C43   C     C_R   0.432311 0.946163 0.594312 -0.083888
C44   C     C_R   0.028660 0.042670 0.980365 0.053997
C45   C     C_R   0.207194 0.697063 0.263378 -0.123880
C46   C     C_R   0.002741 0.081565 0.918526 0.028347
C47   C     C_R   0.927424 0.008345 0.826554 -0.251391
C48   C     C_R   0.862116 0.905508 0.806032 0.206844
C49   C     C_R   0.875714 0.875096 0.876126 0.167016
C50   C     C_R   0.965762 0.942276 0.959352 -0.033316
C51   C     C_3   0.994464 0.963701 0.057128 -0.485606
C52   C     C_R   0.297513 0.501086 0.080563 -0.116724
C53   C     C_3   0.061958 0.077736 0.082391 0.368375
C54   C     C_R   0.111768 0.535990 0.814586 -0.051552
C55   C     C_R   0.918525 0.196089 0.943100 -0.061970
C56   C     C_R   0.758381 0.570127 0.982126 -0.000677
C57   C     C_R   0.008140 0.184163 0.954487 0.053019
C58   C     C_R   0.891664 0.397234 0.176123 -0.028478
C59   C     C_R   0.084953 0.775482 0.972669 0.404540
C60   C     C_R   0.914266 0.692608 0.899673 0.092143
Cl1   Cl    Cl    0.205034 0.814520 0.965025 -0.545871
Cl2   Cl    Cl    0.700099 0.549939 0.228645 -0.600553
Cl3   Cl    Cl    0.541714 0.526802 0.847660 -0.613664
Cl4   Cl    Cl    0.485065 0.780730 0.973163 -0.489488
Cl5   Cl    Cl    0.776485 0.202714 0.204554 -0.554907
Cl6   Cl    Cl    0.860457 0.248439 0.552797 -0.646260
H1    H     H_    0.175477 0.297219 0.047589 0.129671
H2    H     H_    0.222224 0.544910 0.570885 0.159171
H3    H     H_    0.817236 0.216888 0.379520 0.228970
H4    H     H_    0.208812 0.558183 0.710407 0.166549
H5    H     H_    0.538273 0.217133 0.597155 0.152516
H6    H     H_    0.693533 0.158601 0.845523 0.119712
H7    H     H_    0.573065 0.011280 0.714412 0.138899
H8    H     H_    0.406552 0.870731 0.594132 0.164039
H9    H     H_    0.906503 0.035566 0.775960 0.176917
H10   H     H_    0.926357 0.951051 0.074358 0.243806
H11   H     H_    0.040854 0.924302 0.077726 0.207138
H12   H     H_    0.761010 0.630808 0.962633 0.151614
H13   H     H_    0.329261 0.662022 0.992347 0.191992
H14   H     H_    0.705704 0.334910 0.695139 0.124328
H15   H     H_    0.321984 0.474874 0.130958 0.113919
H16   H     H_    0.195029 0.563775 0.835841 0.116985
H17   H     H_    0.838542 0.135434 0.900232 0.118881
H18   H     H_    0.212353 0.668780 0.313588 0.151137
H19   H     H_    0.809666 0.345329 0.149959 0.166525
H20   H     H_    0.143954 0.492194 0.289988 0.115450
H21   H     H_    0.722002 0.429781 0.091931 0.166441
H22   H     H_    0.503988 0.550795 0.190963 0.175085
H23   H     H_    0.858897 0.409420 0.678966 0.162809
H24   H     H_    0.410904 0.588350 0.902501 0.104018
H25   H     H_    0.130983 0.501838 0.416635 0.150986
I1    I     I_    0.772039 0.604159 0.777459 -0.275130
I2    I     I_    0.323944 0.930639 0.193256 -0.155664
I3    I     I_    0.695229 0.782935 0.949901 -0.226397
I4    I     I_    0.381048 0.224757 0.463167 -0.175586
I5    I     I_    0.137598 0.991026 0.286525 -0.260610
I6    I     I_    0.184837 0.756422 0.468351 -0.370606
I7    I     I_    0.731255 0.805534 0.676361 -0.225859
I8    I     I_    0.008522 0.178520 0.155929 -0.311712
I9    I     I_    0.227940 0.135425 0.151053 -0.193782
N1    N     N_R   0.055640 0.348550 0.045600 -0.047287
N2    N     N_R   0.811290 0.303400 0.871650 -0.051092
N3    N     N_R   0.205180 0.552990 0.997660 -0.049336
N4    N     N_R   0.814810 0.361830 0.823710 -0.049819
N5    N     N_R   0.201660 0.494570 0.045600 -0.051748
N6    N     N_R   0.068420 0.560530 0.871650 -0.045555
N7    N     N_R   0.948050 0.295860 0.997660 -0.045055
N8    N     N_R   0.185190 0.638170 0.176290 -0.067902
N9    N     N_R   0.798340 0.505430 0.954400 -0.047736
N10   N     N_R   0.931580 0.439470 0.128350 -0.061907
N11   N     N_R   0.051950 0.704140 0.002340 -0.115122
N12   N     N_R   0.944360 0.651450 0.954400 -0.107047
N13   N     N_R   0.039170 0.492150 0.176290 -0.050436
N14   N     N_R   0.188710 0.696600 0.128350 -0.066826
N15   N     N_R   0.794820 0.447010 0.002340 -0.064920
N16   N     N_R   0.960830 0.507850 0.823710 -0.063397
Ni1   Ni    Ni4+2 0.119330 0.493420 0.109950 0.229626
Ni2   Ni    Ni4+2 0.880670 0.506580 0.890050 0.267390
Ni3   Ni    Ni4+2 0.872590 0.372590 0.000000 0.250038
Ni4   Ni    Ni4+2 0.127410 0.627410 0.000000 0.299113

loop_
_geom_bond_atom_site_label_1
_geom_bond_atom_site_label_2
_ccdc_geom_bond_type
N1    N7    A    
C6    C45   A    
C27   C29   A    
N11   N12   A    
C16   H6    S    
C54   H16   S    
C3    C6    A    
C37   I6    S    
C24   H4    S    
C39   C41   A    
C20   C30   A    
C53   I8    S    
C26   C27   A    
C8    C20   S    
C30   C31   A    
C2    N13   A    
C18   Cl3   S    
C10   C17   A    
C23   C40   A    
C14   Cl2   S    
C33   C36   A    
C56   H12   S    
C18   C19   S    
N8    N14   A    
C28   H13   S    
C8    C58   A    
C44   C53   S    
N3    Ni4   S    
C59   N11   A    
C32   C41   A    
C40   H14   S    
C4    C12   A    
C19   Cl4   S    
C45   N8    A    
C41   H5    S    
C43   H8    S    
C7    C15   S    
C28   C34   A    
C26   C31   A    
C13   C14   A    
C5    N15   A    
N5    Ni1   S    
C7    C56   A    
N7    Ni3   S    
C44   C46   A    
N9    Ni2   S    
C50   C51   S    
N4    Ni2   S    
C20   C29   A    
C60   I1    S    
C53   I9    S    
C59   Cl1   S    
C54   N6    A    
C51   H10   S    
C3    I2    S    
C5    C7    A    
C25   C26   A    
C12   C21   S    
C33   C37   A    
C55   N7    A    
N11   Ni4   S    
C9    C59   A    
C35   C36   A    
C35   C39   A    
C51   H11   S    
C37   C38   A    
C60   N12   A    
C1    C57   A    
C40   N4    A    
C36   I5    S    
C47   C48   A    
C10   C19   S    
C17   C18   S    
N3    N5    A    
N2    N4    A    
N10   N13   A    
C22   H2    S    
N13   Ni1   S    
C16   N2    A    
C48   C49   A    
C52   N5    A    
C16   C23   A    
N15   Ni3   S    
C22   C27   A    
C55   C57   A    
C46   C57   S    
C18   I3    S    
C22   C24   A    
C45   H18   S    
C42   C43   A    
C55   H17   S    
C58   H19   S    
C1    N1    A    
C56   N9    A    
C29   H25   S    
C4    H23   S    
C44   C50   A    
C15   C17   A    
C21   C25   A    
C46   C47   A    
C42   H7    S    
N6    Ni4   S    
C58   N10   A    
N8    Ni1   S    
C4    N16   A    
C11   C34   S    
C2    C8    A    
C25   Cl6   S    
C3    N14   A    
N10   Ni3   S    
C35   I4    S    
C48   I7    S    
C34   C52   A    
C6    C33   S    
C9    C60   A    
N1    Ni1   S    
C23   C32   S    
C47   H9    S    
C38   C43   A    
C19   H24   S    
N12   Ni2   S    
C11   C13   A    
C28   N3    A    
C38   C39   A    
C13   H22   S    
C1    H1    S    
N16   Ni2   S    
C2    H20   S    
C52   H15   S    
C12   C54   A    
C30   Cl5   S    
C10   C11   A    
N9    N15   A    
C5    H21   S    
C31   H3    S    
C49   C50   A    
C21   C24   A    
N6    N16   A    
C32   C42   A    
C14   C15   A    
C51   C53   S    
N14   Ni4   S    
N2    Ni3   S    
