data_mof_unit_31226.cif
_audit_creation_date              2012-12-10T21:31:58-0500
_audit_creation_method            fapswitch 2.2
_symmetry_space_group_name_H-M    P1
_symmetry_Int_Tables_number       1
_space_group_crystal_system       triclinic
_cell_length_a                    15.398556
_cell_length_b                    16.178366
_cell_length_c                    16.636242
_cell_angle_alpha                 91.726611
_cell_angle_beta                  89.274061
_cell_angle_gamma                 110.672152
_cell_volume                      3875.86946087

loop_
_atom_site_label
_atom_site_type_symbol
_atom_type_description
_atom_site_fract_x
_atom_site_fract_y
_atom_site_fract_z
_atom_type_partial_charge
C1    C     C_R   0.505027 0.491054 0.346987 0.871513
C2    C     C_R   0.425575 0.455511 0.786697 -0.025086
C3    C     C_R   0.597910 0.546063 0.135621 -0.025409
C4    C     C_R   0.423626 0.473503 0.870124 -0.030826
C5    C     C_R   0.531987 0.473501 0.094344 0.163645
C6    C     C_R   0.497833 0.543557 0.905677 0.269065
C7    C     C_R   0.470735 0.402429 0.136657 0.137278
C8    C     C_R   0.561532 0.607260 0.858049 0.057030
C9    C     C_R   0.467148 0.409881 0.219764 -0.276140
C10   C     C_R   0.558608 0.593463 0.775207 -0.250261
C11   C     C_R   0.541387 0.779885 0.540629 -0.052976
C12   C     C_R   0.496760 0.509573 0.653029 0.910689
C13   C     C_R   0.484547 0.230373 0.444295 -0.036260
C14   C     C_R   0.542443 0.866512 0.533557 -0.285598
C15   C     C_R   0.487216 0.144352 0.445355 -0.279103
C16   C     C_R   0.325612 0.443648 0.500366 0.852319
C17   C     C_R   0.674632 0.555884 0.499246 0.856647
C18   C     C_R   0.489866 0.886877 0.473201 0.310336
C19   C     C_R   0.518218 0.114416 0.514439 0.353745
C20   C     C_R   0.435371 0.817525 0.421752 -0.159239
C21   C     C_R   0.546226 0.172799 0.581438 -0.152872
C22   C     C_R   0.434056 0.730316 0.433094 0.034034
C23   C     C_R   0.886053 0.375984 0.512015 -0.023226
C24   C     C_R   0.542863 0.259136 0.577510 0.030790
C25   C     C_R   0.223259 0.404689 0.501662 -0.079361
C26   C     C_R   0.776181 0.590709 0.513158 -0.093793
C27   C     C_R   0.074262 0.287013 0.480273 -0.221213
C28   C     C_R   0.910320 0.680929 0.590887 -0.217262
C29   C     C_R   0.171365 0.314910 0.480000 0.104481
C30   C     C_R   0.823932 0.670151 0.557069 0.109884
C31   C     C_R   0.175933 0.460622 0.526868 -0.321890
C32   C     C_R   0.821340 0.530368 0.497771 -0.270579
C33   C     C_R   0.079084 0.430161 0.533676 0.083425
C34   C     C_R   0.073020 0.561541 0.613312 -0.027609
C35   C     C_R   0.900844 0.534853 0.540367 0.097154
C36   C     C_R   0.028592 0.344563 0.503841 0.103368
C37   C     C_R   0.947696 0.613736 0.584421 0.104603
C38   C     C_R   0.031299 0.486027 0.561864 -0.030690
C39   C     C_R   0.937643 0.465321 0.537257 -0.022539
C40   C     C_2   0.376311 0.834616 0.358353 0.439185
C41   C     C_2   0.581675 0.145206 0.655587 0.383596
C42   C     C_2   0.369057 0.656576 0.385110 0.423166
C43   C     C_2   0.571771 0.317482 0.649603 0.414128
C44   C     C_3   0.791663 0.748120 0.563193 -0.422880
C45   C     C_R   0.932743 0.317066 0.496877 -0.195399
C46   C     C_3   0.816876 0.800049 0.485503 -0.331658
C47   C     C_3   0.798226 0.886509 0.492106 -0.874791
C48   C     C_3   0.213785 0.246971 0.453078 -0.402156
C49   C     C_3   0.251488 0.262020 0.366832 -0.347352
C50   C     C_3   0.265445 0.179413 0.331150 -0.883622
C51   C     C_2   0.783225 0.337644 0.511934 0.356007
C52   C     C_2   0.151569 0.568998 0.667496 0.381996
C53   C     C_3   0.351586 0.375171 0.748089 -0.452551
C54   C     C_3   0.266158 0.396654 0.725035 -0.331010
C55   C     C_3   0.187841 0.314024 0.695035 -0.868263
C56   C     C_R   0.031122 0.624947 0.622553 -0.198720
C57   C     C_3   0.650548 0.638897 0.265661 -0.376157
C58   C     C_3   0.615098 0.715813 0.256006 -0.238435
C59   C     C_3   0.664009 0.793824 0.312492 -0.878468
C60   C     C_2   0.342310 0.424597 0.920560 0.403380
C61   C     C_2   0.678618 0.603211 0.088375 0.374186
C62   C     C_3   0.408835 0.317863 0.094957 -0.407403
C63   C     C_3   0.305380 0.301601 0.109233 -0.323389
C64   C     C_3   0.244135 0.218629 0.063725 -0.861488
C65   C     C_3   0.634324 0.688844 0.894420 -0.412106
C66   C     C_3   0.589831 0.750977 0.934276 -0.308619
C67   C     C_R   0.519259 0.487931 0.260525 -0.084921
C68   C     C_3   0.663423 0.834720 0.968414 -0.821845
C69   C     C_R   0.494560 0.517129 0.739936 -0.063474
C70   C     C_R   0.588246 0.556713 0.219804 0.042099
H1    H     H_    0.894226 0.249268 0.478070 0.187161
H2    H     H_    0.948464 0.741972 0.623277 0.136490
H3    H     H_    0.420457 0.355355 0.252949 0.149764
H4    H     H_    0.608281 0.641499 0.737609 0.146504
H5    H     H_    0.316084 0.781564 0.334963 0.087952
H6    H     H_    0.627841 0.194366 0.696267 0.065772
H7    H     H_    0.308071 0.610612 0.413155 0.080523
H8    H     H_    0.534852 0.297615 0.705870 0.025124
H9    H     H_    0.723783 0.873335 0.503847 0.267747
H10   H     H_    0.840013 0.929436 0.541454 0.262304
H11   H     H_    0.817580 0.922043 0.434809 0.257422
H12   H     H_    0.063105 0.683166 0.660701 0.188318
H13   H     H_    0.891921 0.816093 0.472101 0.228342
H14   H     H_    0.776763 0.758631 0.434761 0.228726
H15   H     H_    0.716780 0.727579 0.576919 0.212429
H16   H     H_    0.826801 0.792670 0.614433 0.193990
H17   H     H_    0.304239 0.153547 0.373368 0.265660
H18   H     H_    0.197084 0.127076 0.318688 0.270235
H19   H     H_    0.304945 0.195135 0.273960 0.246577
H20   H     H_    0.202183 0.278728 0.327896 0.226899
H21   H     H_    0.318545 0.318063 0.366556 0.229701
H22   H     H_    0.267869 0.245095 0.495597 0.212227
H23   H     H_    0.461731 0.252568 0.390588 0.154308
H24   H     H_    0.160049 0.179592 0.455234 0.199072
H25   H     H_    0.743742 0.369080 0.546753 0.152458
H26   H     H_    0.167256 0.510760 0.680957 0.068005
H27   H     H_    0.211816 0.282619 0.643336 0.262713
H28   H     H_    0.163993 0.265824 0.743947 0.260934
H29   H     H_    0.128390 0.332136 0.675465 0.255670
H30   H     H_    0.240727 0.425490 0.777720 0.235226
H31   H     H_    0.285688 0.446002 0.676851 0.217076
H32   H     H_    0.377932 0.349924 0.694225 0.220889
H33   H     H_    0.332109 0.318420 0.788727 0.185651
H34   H     H_    0.582747 0.765678 0.586504 0.137155
H35   H     H_    0.646319 0.774665 0.375758 0.273801
H36   H     H_    0.740339 0.816231 0.303523 0.266422
H37   H     H_    0.640170 0.849452 0.300182 0.265806
H38   H     H_    0.624473 0.738731 0.193279 0.259858
H39   H     H_    0.539975 0.693130 0.269212 0.276058
H40   H     H_    0.654169 0.626115 0.330325 0.185883
H41   H     H_    0.723783 0.657460 0.245818 0.228823
H42   H     H_    0.300809 0.356148 0.907824 0.053690
H43   H     H_    0.700503 0.575132 0.035227 0.075594
H44   H     H_    0.257733 0.225039 0.998074 0.254174
H45   H     H_    0.466192 0.102216 0.392034 0.196521
H46   H     H_    0.257734 0.159776 0.084669 0.266168
H47   H     H_    0.169983 0.208909 0.074869 0.258316
H48   H     H_    0.288398 0.293389 0.174178 0.213667
H49   H     H_    0.288571 0.359051 0.089688 0.281271
H50   H     H_    0.422614 0.318644 0.029250 0.210656
H51   H     H_    0.425470 0.261704 0.118757 0.196811
H52   H     H_    0.705588 0.817890 0.014479 0.295188
H53   H     H_    0.709742 0.871407 0.919664 0.255561
H54   H     H_    0.629161 0.878096 0.997071 0.253533
H55   H     H_    0.547921 0.769743 0.889152 0.233756
H56   H     H_    0.584841 0.917122 0.574970 0.200191
H57   H     H_    0.543109 0.717333 0.984017 0.247063
H58   H     H_    0.675836 0.669081 0.938711 0.221690
H59   H     H_    0.683658 0.725601 0.847355 0.198283
H60   H     H_    0.790886 0.477867 0.453839 0.154154
H61   H     H_    0.215398 0.529643 0.538946 0.166210
H62   H     H_    0.033679 0.220298 0.459937 0.136946
N1    N     N_2   0.521016 0.474849 0.010452 -0.208234
N2    N     N_2   0.513414 0.545243 0.989024 -0.146874
N3    N     N_R   0.489120 0.713640 0.490430 -0.109741
N4    N     N_R   0.510880 0.286360 0.509570 -0.094877
N5    N     N_2   0.485557 0.973687 0.464987 -0.121146
N6    N     N_2   0.525545 0.028580 0.519017 -0.116961
O1    O     O_R   0.503890 0.423710 0.387290 -0.633050
O2    O     O_2   0.558604 0.067661 0.673197 -0.553336
O3    O     O_2   0.379029 0.650495 0.312588 -0.601629
O4    O     O_2   0.639629 0.385292 0.648399 -0.573873
O5    O     O_2   0.741582 0.269944 0.473475 -0.571698
O6    O     O_2   0.198600 0.639807 0.698555 -0.555523
O7    O     O_2   0.318595 0.462637 0.976407 -0.555156
O8    O     O_2   0.720047 0.680877 0.105662 -0.607041
O9    O     O_R   0.496110 0.576290 0.612710 -0.615242
O10   O     O_R   0.496910 0.560910 0.381140 -0.583798
O11   O     O_R   0.503090 0.439090 0.618860 -0.594603
O12   O     O_R   0.373240 0.392210 0.504830 -0.623888
O13   O     O_R   0.626760 0.607790 0.495170 -0.633077
O14   O     O_R   0.366260 0.529410 0.498680 -0.629938
O15   O     O_R   0.633740 0.470590 0.501320 -0.558380
O16   O     O_2   0.394844 0.907707 0.330217 -0.560747
Zn1   Zn    Zn3+2 0.504660 0.408390 0.504100 0.960224
Zn2   Zn    Zn3+2 0.495340 0.591610 0.495900 0.942354

loop_
_geom_bond_atom_site_label_1
_geom_bond_atom_site_label_2
_ccdc_geom_bond_type
C65   H58   S    
C25   C31   A    
C66   C68   S    
C12   C69   S    
C34   C56   A    
C23   C45   A    
C27   C29   A    
C58   H39   S    
C14   C18   A    
C54   H31   S    
C2    C4    A    
C55   H27   S    
C47   H9    S    
C49   H20   S    
C17   O15   A    
C68   H54   S    
C32   H60   S    
C17   O13   A    
C53   C54   S    
C43   H8    S    
C26   C32   A    
C52   O6    D    
C48   H24   S    
C64   H46   S    
C17   C26   S    
C12   O9    A    
C35   C37   A    
C38   C39   A    
C20   C40   S    
C11   C14   A    
C45   H1    S    
C33   C36   A    
C66   H57   S    
C18   C20   A    
C46   C47   S    
C49   C50   S    
C41   O2    D    
C31   H61   S    
C1    C67   S    
C15   C19   A    
C37   C56   A    
O14   Zn2   S    
C22   C42   S    
C31   C33   A    
C11   H34   S    
C57   C70   S    
O15   Zn1   S    
C2    C69   A    
C62   H50   S    
C1    O1    A    
C50   H18   S    
C24   N4    A    
C8    C65   S    
C27   H62   S    
C30   C44   S    
C28   H2    S    
C9    H3    S    
C47   H10   S    
C49   H21   S    
C44   H16   S    
C68   H53   S    
C44   C46   S    
C3    C61   S    
C25   C29   A    
C59   H36   S    
C64   H44   S    
C29   C48   S    
C32   C35   A    
C3    C70   A    
C4    C6    A    
C68   H52   S    
C5    C7    A    
N4    Zn1   S    
C6    C8    A    
C58   C59   S    
C1    O10   A    
C59   H37   S    
C64   H47   S    
C63   C64   S    
C13   H23   S    
C18   N5    S    
C35   C39   A    
C61   O8    D    
C9    C67   A    
C7    C62   S    
C62   C63   S    
C60   H42   S    
C11   N3    A    
C63   H49   S    
C50   H19   S    
C23   C51   S    
C57   H40   S    
O1    Zn1   S    
C53   H32   S    
C4    C60   S    
C42   O3    D    
C5    N1    S    
C36   C45   A    
C16   O14   A    
C59   H35   S    
O13   Zn2   S    
O9    Zn2   S    
C50   H17   S    
C21   C41   S    
C48   C49   S    
C20   C22   A    
C26   C30   A    
O12   Zn1   S    
C13   C15   A    
C61   H43   S    
N1    N2    D    
C13   N4    A    
C46   H14   S    
C60   O7    D    
C44   H15   S    
C16   C25   S    
C7    C9    A    
C58   H38   S    
C54   C55   S    
C19   C21   A    
C34   C38   A    
C12   O11   A    
C3    C5    A    
C2    C53   S    
C63   H48   S    
C65   H59   S    
C40   H5    S    
C56   H12   S    
C51   O5    D    
C27   C36   A    
N5    N6    D    
C34   C52   S    
C33   C38   A    
C14   H56   S    
C66   H55   S    
C22   N3    A    
C67   C70   A    
C28   C30   A    
O11   Zn1   S    
C6    N2    S    
C41   H6    S    
C10   H4    S    
C57   C58   S    
C57   H41   S    
C28   C37   A    
C53   H33   S    
C19   N6    S    
C23   C39   A    
C55   H28   S    
C54   H30   S    
C52   H26   S    
C15   H45   S    
C47   H11   S    
N3    Zn2   S    
C46   H13   S    
C10   C69   A    
C42   H7    S    
C8    C10   A    
C65   C66   S    
C48   H22   S    
C21   C24   A    
C55   H29   S    
C24   C43   S    
C43   O4    D    
C16   O12   A    
O10   Zn2   S    
C62   H51   S    
C51   H25   S    
C40   O16   D    
