data_mof_unit_36590.cif
_audit_creation_date              2012-12-10T16:50:08-0500
_audit_creation_method            fapswitch 2.2
_symmetry_space_group_name_H-M    P1
_symmetry_Int_Tables_number       1
_space_group_crystal_system       triclinic
_cell_length_a                    7.772982
_cell_length_b                    8.594687
_cell_length_c                    10.674754
_cell_angle_alpha                 91.95514
_cell_angle_beta                  83.152143
_cell_angle_gamma                 93.696455
_cell_volume                      706.329494763

loop_
_atom_site_label
_atom_site_type_symbol
_atom_type_description
_atom_site_fract_x
_atom_site_fract_y
_atom_site_fract_z
_atom_type_partial_charge
C1    C     C_R   0.545371 0.794887 0.500997 0.941803
C2    C     C_R   0.454855 0.205842 0.508135 0.805380
C3    C     C_R   0.504205 0.509877 0.260171 0.995449
C4    C     C_R   0.177113 0.578692 0.923265 0.605550
C5    C     C_R   0.074801 0.685218 0.994572 0.430170
C6    C     C_R   0.133834 0.760007 0.100233 0.455239
C7    C     C_R   0.285843 0.715661 0.142470 0.546334
C8    C     C_R   0.382940 0.598546 0.075720 -0.268911
C9    C     C_R   0.345048 0.550407 0.955392 -0.290099
C10   C     C_R   0.478789 0.477535 0.875224 -0.223245
C11   C     C_R   0.616558 0.414609 0.924924 0.623023
C12   C     C_R   0.628929 0.430909 0.051312 0.589252
C13   C     C_R   0.512200 0.522034 0.126883 -0.199520
C14   C     C_2   0.567123 0.957169 0.521407 -0.175265
C15   C     C_2   0.433158 0.043437 0.503726 0.452263
C16   C     C_R   0.494139 0.490523 0.740599 0.900694
F1    F     F_    0.736059 0.332261 0.851741 -0.556316
F2    F     F_    0.968487 0.645853 0.611652 -0.486591
F3    F     F_    0.098770 0.487647 0.837653 -0.520064
F4    F     F_    0.917101 0.714723 0.961512 -0.558020
F5    F     F_    0.038632 0.869009 0.166134 -0.510630
F6    F     F_    0.341522 0.791550 0.245075 -0.569619
F7    F     F_    0.753662 0.355441 0.099538 -0.560612
F8    F     F_    0.281089 0.982755 0.464902 -0.531851
F9    F     F_    0.031549 0.354180 0.388306 -0.499182
I1    I     I_    0.800900 0.032635 0.602748 0.110487
N1    N     N_2   0.950330 0.457950 0.466250 0.270404
N2    N     N_2   0.049670 0.542050 0.533750 0.303629
O1    O     O_R   0.389250 0.738570 0.508280 -0.540023
O2    O     O_R   0.678390 0.711630 0.486650 -0.585532
O3    O     O_R   0.355400 0.513470 0.694050 -0.585494
O4    O     O_R   0.644540 0.486530 0.672420 -0.539744
O5    O     O_R   0.321610 0.288370 0.513350 -0.541545
O6    O     O_R   0.610750 0.261430 0.491720 -0.626275
O7    O     O_R   0.355460 0.513470 0.327580 -0.570370
O8    O     O_R   0.644600 0.486530 0.305950 -0.568900
Zn1   Zn    Zn3+2 0.306930 0.517990 0.514440 1.247888
Zn2   Zn    Zn3+2 0.693070 0.482010 0.485560 1.230244

loop_
_geom_bond_atom_site_label_1
_geom_bond_atom_site_label_2
_ccdc_geom_bond_type
C8    C9    A    
C11   C12   A    
C6    C7    A    
O4    Zn2   S    
F9    N1    S    
C7    F6    S    
C9    C10   A    
C3    C13   S    
C3    O7    A    
C2    O6    A    
C1    O1    A    
C7    C8    A    
C5    F4    S    
C10   C16   S    
C14   I1    S    
C16   O3    A    
C2    C15   S    
C6    F5    S    
C12   F7    S    
C8    C13   A    
N2    Zn1   S    
C3    O8    A    
C2    O5    A    
O8    Zn2   S    
C1    O2    A    
O7    Zn1   S    
C5    C6    A    
O5    Zn1   S    
C16   O4    A    
C10   C11   A    
N1    Zn2   S    
F2    N2    S    
C12   C13   A    
O2    Zn2   S    
O1    Zn1   S    
N1    N2    D    
C14   C15   D    
C15   F8    S    
C1    C14   S    
C4    C9    A    
O6    Zn2   S    
C4    F3    S    
C11   F1    S    
O3    Zn1   S    
C4    C5    A    
