data_mof_unit_42908.cif
_audit_creation_date              2012-12-10T18:33:52-0500
_audit_creation_method            fapswitch 2.2
_symmetry_space_group_name_H-M    P1
_symmetry_Int_Tables_number       1
_space_group_crystal_system       triclinic
_cell_length_a                    15.132026
_cell_length_b                    13.864334
_cell_length_c                    10.867764
_cell_angle_alpha                 89.984805
_cell_angle_beta                  91.180179
_cell_angle_gamma                 89.406019
_cell_volume                      2279.40115997

loop_
_atom_site_label
_atom_site_type_symbol
_atom_type_description
_atom_site_fract_x
_atom_site_fract_y
_atom_site_fract_z
_atom_type_partial_charge
C1    C     C_R   0.329819 0.499977 0.498242 0.878731
C2    C     C_R   0.438888 0.897557 0.436672 0.238962
C3    C     C_R   0.569287 0.891658 0.565777 0.226953
C4    C     C_R   0.442692 0.795047 0.426211 0.405027
C5    C     C_R   0.555215 0.790810 0.579761 0.486932
C6    C     C_R   0.506714 0.946996 0.498465 -0.086964
C7    C     C_R   0.493403 0.499094 0.264170 0.766293
C8    C     C_R   0.509608 0.498889 0.735045 0.760368
C9    C     C_2   0.514483 0.411276 0.931947 0.257462
C10   C     C_2   0.497784 0.411617 0.066895 0.264097
C11   C     C_2   0.530955 0.493647 0.867703 0.270978
C12   C     C_R   0.670600 0.499127 0.500869 0.854349
C13   C     C_2   0.478855 0.494336 0.129800 0.262583
C14   C     C_R   0.091299 0.536602 0.399020 0.335159
C15   C     C_R   0.912884 0.568476 0.521181 0.354026
C16   C     C_R   0.181791 0.556047 0.416241 0.331371
C17   C     C_R   0.820624 0.575700 0.525995 0.400324
C18   C     C_R   0.233207 0.496286 0.494766 -0.245341
C19   C     C_R   0.768050 0.494439 0.500502 -0.276929
C20   C     C_R   0.192443 0.424180 0.563429 -0.390740
C21   C     C_R   0.809330 0.405400 0.475808 -0.389780
C22   C     C_R   0.100898 0.415139 0.561088 0.427325
C23   C     C_R   0.049765 0.473156 0.479834 -0.092272
C24   C     C_R   0.900889 0.397387 0.469585 0.445671
C25   C     C_3   0.590668 0.271028 0.889687 0.061930
C26   C     C_3   0.654716 0.289897 0.784997 -0.331052
C27   C     C_3   0.735956 0.224162 0.794690 -0.948666
C28   C     C_3   0.419592 0.273469 0.105590 0.064010
C29   C     C_3   0.352177 0.295000 0.205781 -0.321873
C30   C     C_3   0.266661 0.239715 0.183431 -0.965568
C31   C     C_3   0.395565 0.751100 0.231820 0.161417
C32   C     C_3   0.360976 0.842288 0.165240 -0.367059
C33   C     C_3   0.345533 0.825188 0.027729 -0.949304
C34   C     C_R   0.953168 0.479159 0.490610 -0.095018
C35   C     C_3   0.557010 0.780760 0.791027 0.133692
C36   C     C_3   0.631739 0.807681 0.881572 -0.324469
C37   C     C_3   0.596695 0.832230 0.008463 -0.895369
C38   C     C_3   0.656555 0.548316 0.964430 -0.378053
C39   C     C_3   0.354973 0.551746 0.030217 -0.426993
C40   C     C_3   0.058747 0.555511 0.194339 0.099248
C41   C     C_3   0.986559 0.591976 0.104929 -0.352160
C42   C     C_3   0.895329 0.555378 0.139102 -0.772178
C43   C     C_3   0.010538 0.652315 0.646968 0.045395
C44   C     C_3   0.022892 0.756419 0.689297 -0.297684
C45   C     C_R   0.470940 0.106453 0.601877 0.367191
C46   C     C_3   0.081310 0.761776 0.805230 -0.971682
C47   C     C_3   0.189991 0.718799 0.407185 -0.193730
C48   C     C_3   0.774696 0.669263 0.682875 -0.227951
C49   C     C_3   0.040745 0.384998 0.747168 0.057682
C50   C     C_3   0.989779 0.310417 0.820147 -0.279864
C51   C     C_3   0.952332 0.354378 0.936924 -0.993922
C52   C     C_3   0.947576 0.290203 0.325369 0.058871
C53   C     C_3   0.003088 0.198575 0.309358 -0.310686
C54   C     C_3   0.018687 0.176085 0.174196 -0.958520
C55   C     C_3   0.380955 0.098090 0.774819 -0.391049
C56   C     C_R   0.539487 0.107793 0.401022 0.353698
C57   C     C_3   0.644714 0.097842 0.247827 -0.383118
C58   C     C_3   0.300855 0.954237 0.475133 0.059772
C59   C     C_3   0.219938 0.006033 0.419415 -0.355498
C60   C     C_3   0.146020 0.013678 0.512461 -0.922131
C61   C     C_3   0.697869 0.979306 0.559234 0.098370
C62   C     C_3   0.790179 0.968287 0.617704 -0.355943
C63   C     C_3   0.858360 0.025690 0.547312 -0.911207
C64   C     C_R   0.466889 0.209114 0.596743 -0.102960
C65   C     C_R   0.536884 0.210145 0.404581 -0.107243
C66   C     C_R   0.506109 0.055749 0.501022 0.057883
Cu1   Cu    Cu3+1 0.500000 0.596430 0.500000 1.018499
Cu2   Cu    Cu3+1 0.500000 0.403570 0.500000 0.922991
H1    H     H_    0.231600 0.376594 0.622573 0.190608
H2    H     H_    0.779853 0.238502 0.716296 0.265528
H3    H     H_    0.715994 0.147337 0.791054 0.267114
H4    H     H_    0.435207 0.194982 0.107190 0.179270
H5    H     H_    0.388573 0.288762 0.013602 0.154144
H6    H     H_    0.380212 0.274125 0.297087 0.257623
H7    H     H_    0.336322 0.373321 0.207326 0.196738
H8    H     H_    0.219882 0.256051 0.258218 0.265430
H9    H     H_    0.280171 0.160805 0.182549 0.267780
H10   H     H_    0.235320 0.261517 0.094219 0.251660
H11   H     H_    0.358911 0.689707 0.193026 0.233993
H12   H     H_    0.770641 0.341107 0.459848 0.198383
H13   H     H_    0.466928 0.739478 0.212901 0.147679
H14   H     H_    0.297301 0.866172 0.204499 0.249248
H15   H     H_    0.410336 0.900584 0.176046 0.256802
H16   H     H_    0.404319 0.790708 0.986315 0.275158
H17   H     H_    0.332246 0.895141 0.980815 0.256830
H18   H     H_    0.287156 0.778483 0.012713 0.256424
H19   H     H_    0.515739 0.724302 0.832170 0.209447
H20   H     H_    0.511995 0.844696 0.779516 0.130399
H21   H     H_    0.679382 0.746934 0.890805 0.210256
H22   H     H_    0.668070 0.870718 0.846510 0.242813
H23   H     H_    0.439355 0.250198 0.671072 0.197291
H24   H     H_    0.548303 0.892924 0.002138 0.270854
H25   H     H_    0.652309 0.853818 0.070402 0.251324
H26   H     H_    0.564746 0.768118 0.048514 0.283365
H27   H     H_    0.698708 0.527068 0.886241 0.131302
H28   H     H_    0.657377 0.489961 0.034489 0.148897
H29   H     H_    0.686504 0.611839 0.009995 0.195853
H30   H     H_    0.312139 0.535854 0.109603 0.164116
H31   H     H_    0.353106 0.490731 0.963990 0.150786
H32   H     H_    0.326379 0.614978 0.980941 0.199309
H33   H     H_    0.061665 0.475240 0.188957 0.092349
H34   H     H_    0.563470 0.251468 0.330345 0.202855
H35   H     H_    0.123055 0.584349 0.163986 0.138241
H36   H     H_    0.985542 0.672158 0.104840 0.220242
H37   H     H_    0.001992 0.567210 0.010431 0.156446
H38   H     H_    0.895520 0.475445 0.145046 0.230184
H39   H     H_    0.846106 0.578254 0.067563 0.208752
H40   H     H_    0.875180 0.585788 0.228939 0.283131
H41   H     H_    0.076849 0.619888 0.632638 0.131205
H42   H     H_    0.978063 0.611995 0.721776 0.094673
H43   H     H_    0.053943 0.798262 0.614872 0.210443
H44   H     H_    0.957314 0.789497 0.708122 0.219486
H45   H     H_    0.574303 0.193095 0.890003 0.182252
H46   H     H_    0.050848 0.721608 0.881649 0.250490
H47   H     H_    0.088924 0.838286 0.833321 0.262711
H48   H     H_    0.147866 0.730816 0.787527 0.252669
H49   H     H_    0.217794 0.726668 0.502154 0.148649
H50   H     H_    0.116862 0.725863 0.408895 0.191664
H51   H     H_    0.212432 0.779624 0.350392 0.187914
H52   H     H_    0.718791 0.624508 0.712990 0.188745
H53   H     H_    0.761756 0.745333 0.707842 0.198595
H54   H     H_    0.835300 0.646850 0.734794 0.095795
H55   H     H_    0.997523 0.449698 0.734792 0.114020
H56   H     H_    0.624410 0.285924 0.979847 0.149786
H57   H     H_    0.101658 0.405108 0.800229 0.119069
H58   H     H_    0.934285 0.282693 0.762127 0.241325
H59   H     H_    0.034334 0.248825 0.845026 0.212635
H60   H     H_    0.006805 0.380669 0.997734 0.255180
H61   H     H_    0.914712 0.299150 0.987193 0.258521
H62   H     H_    0.906663 0.415262 0.913504 0.262719
H63   H     H_    0.981547 0.350762 0.279348 0.135781
H64   H     H_    0.881219 0.279837 0.281350 0.127567
H65   H     H_    0.068091 0.207689 0.357306 0.236360
H66   H     H_    0.968710 0.136853 0.351827 0.221345
H67   H     H_    0.621296 0.276682 0.695074 0.258415
H68   H     H_    0.954738 0.163843 0.125000 0.257627
H69   H     H_    0.060002 0.109721 0.167088 0.263455
H70   H     H_    0.054000 0.236362 0.130130 0.265065
H71   H     H_    0.351260 0.043160 0.835070 0.189714
H72   H     H_    0.326425 0.129248 0.716482 0.154881
H73   H     H_    0.410899 0.153580 0.835854 0.195023
H74   H     H_    0.692719 0.124605 0.318754 0.145816
H75   H     H_    0.624439 0.156270 0.182893 0.188899
H76   H     H_    0.679424 0.041849 0.193588 0.195334
H77   H     H_    0.323348 0.995148 0.557318 0.182301
H78   H     H_    0.676249 0.366194 0.787622 0.193255
H79   H     H_    0.281488 0.881000 0.505324 0.137879
H80   H     H_    0.238584 0.079748 0.390063 0.234581
H81   H     H_    0.195539 0.965878 0.337255 0.210311
H82   H     H_    0.127488 0.940872 0.544818 0.245832
H83   H     H_    0.086929 0.048233 0.468756 0.262326
H84   H     H_    0.167510 0.057950 0.592628 0.262296
H85   H     H_    0.681969 0.057525 0.552602 0.150100
H86   H     H_    0.699498 0.948067 0.464478 0.156798
H87   H     H_    0.789363 0.993914 0.714564 0.217680
H88   H     H_    0.809988 0.890980 0.617757 0.235171
H89   H     H_    0.772947 0.237787 0.882146 0.256699
H90   H     H_    0.861045 0.000528 0.450408 0.255563
H91   H     H_    0.924695 0.015304 0.591229 0.262672
H92   H     H_    0.841372 0.103850 0.548525 0.266558
N1    N     N_R   0.500000 0.258690 0.500000 -0.230187
N2    N     N_R   0.500000 0.741330 0.500000 -0.286147
O1    O     O_R   0.371460 0.581430 0.500010 -0.517551
O2    O     O_3   0.499964 0.323415 0.127799 -0.637328
O3    O     O_3   0.377324 0.749557 0.358970 -0.568079
O4    O     O_3   0.592909 0.743772 0.680015 -0.572036
O5    O     O_3   0.569952 0.573139 0.923282 -0.559865
O6    O     O_3   0.441995 0.574139 0.070608 -0.576263
O7    O     O_3   0.040488 0.588507 0.314211 -0.550187
O8    O     O_3   0.961280 0.652563 0.534749 -0.552737
O9    O     O_3   0.219652 0.631481 0.354078 -0.571142
O10   O     O_3   0.782945 0.663819 0.554064 -0.528845
O11   O     O_3   0.062721 0.344934 0.632385 -0.557486
O12   O     O_R   0.628540 0.581430 0.499990 -0.512144
O13   O     O_3   0.939166 0.307618 0.452420 -0.566133
O14   O     O_3   0.446374 0.052477 0.703954 -0.577106
O15   O     O_3   0.569784 0.055721 0.300362 -0.569840
O16   O     O_3   0.368171 0.949474 0.387161 -0.602312
O17   O     O_3   0.635474 0.934935 0.635773 -0.597567
O18   O     O_R   0.371470 0.418560 0.500010 -0.597255
O19   O     O_R   0.628530 0.418560 0.499990 -0.604037
O20   O     O_R   0.500000 0.581410 0.321940 -0.562762
O21   O     O_R   0.500000 0.581410 0.678060 -0.546490
O22   O     O_R   0.500010 0.418540 0.321940 -0.573967
O23   O     O_R   0.499990 0.418540 0.678060 -0.577520
O24   O     O_3   0.510292 0.323275 0.871200 -0.641769

loop_
_geom_bond_atom_site_label_1
_geom_bond_atom_site_label_2
_ccdc_geom_bond_type
C36   H21   S    
C7    C13   S    
C55   H73   S    
C41   C42   S    
C35   C36   S    
C16   O9    S    
C63   H91   S    
C43   C44   S    
C3    C6    A    
C61   H86   S    
C49   O11   S    
C51   H61   S    
C58   H77   S    
C27   H3    S    
C48   H52   S    
C28   H4    S    
C53   C54   S    
C62   H87   S    
C28   C29   S    
C26   C27   S    
C29   C30   S    
C41   H37   S    
C46   H47   S    
C51   H60   S    
C63   H92   S    
C36   C37   S    
C19   C21   A    
C38   H29   S    
C48   H54   S    
C1    O18   A    
C54   H69   S    
Cu1   O12   S    
C56   C65   A    
C49   H55   S    
C35   O4    S    
C55   H71   S    
C4    O3    S    
C12   C19   S    
C60   H84   S    
C39   O6    S    
C26   H78   S    
C3    O17   S    
C33   H17   S    
C26   H67   S    
C40   H33   S    
C48   O10   S    
C30   H9    S    
C35   H19   S    
C51   H62   S    
C47   H50   S    
C31   O3    S    
C38   H27   S    
C57   H76   S    
C50   H58   S    
C43   H42   S    
C9    C10   S    
C15   C34   A    
C18   C20   A    
C37   H24   S    
C59   H80   S    
C47   H51   S    
C59   C60   S    
C63   H90   S    
C11   O5    S    
C2    C6    A    
C65   H34   S    
C14   O7    S    
C28   H5    S    
C40   O7    S    
C25   H56   S    
C43   O8    S    
C44   C46   S    
C56   O15   S    
C59   H81   S    
C38   O5    S    
Cu2   O19   S    
C17   O10   S    
C57   H75   S    
Cu1   Cu2   S    
C52   H64   S    
C53   H65   S    
C9    O24   S    
C45   O14   S    
C48   H53   S    
C46   H46   S    
C58   H79   S    
C13   O6    S    
C29   H6    S    
C3    C5    A    
C58   C59   S    
Cu2   N1    S    
Cu2   O18   S    
C24   C34   A    
C55   H72   S    
C15   O8    S    
C60   H83   S    
C30   H10   S    
C14   C23   A    
C2    C4    A    
C33   H18   S    
C62   C63   S    
Cu1   O20   S    
C25   H45   S    
C30   H8    S    
C35   H20   S    
C39   H31   S    
C12   O19   A    
C6    C66   S    
C23   C34   S    
C54   H68   S    
C50   C51   S    
C1    C18   S    
C37   H25   S    
C58   O16   S    
C60   H82   S    
C5    O4    S    
C9    C11   D    
C52   O13   S    
C27   H2    S    
Cu1   O21   S    
C7    O22   A    
C8    O21   A    
C40   C41   S    
C20   C22   A    
Cu2   O23   S    
C61   O17   S    
C4    N2    A    
C20   H1    S    
C65   N1    A    
C44   H44   S    
C22   O11   S    
C49   H57   S    
C52   C53   S    
C28   O2    S    
C12   O12   A    
C42   H39   S    
C36   H22   S    
C15   C17   A    
C32   H15   S    
Cu2   O22   S    
C10   O2    S    
C7    O20   A    
C57   H74   S    
C52   H63   S    
C31   C32   S    
C53   H66   S    
C64   N1    A    
C39   H30   S    
C10   C13   D    
C61   H85   S    
C47   O9    S    
C31   H11   S    
C29   H7    S    
C8    O23   A    
C27   H89   S    
C32   H14   S    
C45   C64   A    
C31   H13   S    
C41   H36   S    
C46   H48   S    
C5    N2    A    
C25   C26   S    
C2    O16   S    
C32   C33   S    
C40   H35   S    
C57   O15   S    
Cu1   N2    S    
C39   H32   S    
C54   H70   S    
C8    C11   S    
C56   C66   A    
C21   H12   S    
C17   C19   A    
C62   H88   S    
C37   H26   S    
C14   C16   A    
C61   C62   S    
C33   H16   S    
C55   O14   S    
C25   O24   S    
C42   H38   S    
C44   H43   S    
Cu1   O1    S    
C47   H49   S    
C1    O1    A    
C16   C18   A    
C49   C50   S    
C21   C24   A    
C38   H28   S    
C45   C66   A    
C22   C23   A    
C50   H59   S    
C43   H41   S    
C64   H23   S    
C24   O13   S    
C42   H40   S    
