data_mof_unit_29053.cif
_audit_creation_date              2012-12-10T19:42:55-0500
_audit_creation_method            fapswitch 2.2
_symmetry_space_group_name_H-M    P1
_symmetry_Int_Tables_number       1
_space_group_crystal_system       triclinic
_cell_length_a                    10.80028
_cell_length_b                    12.973039
_cell_length_c                    11.691535
_cell_angle_alpha                 99.971989
_cell_angle_beta                  94.149367
_cell_angle_gamma                 89.674409
_cell_volume                      1609.11358579

loop_
_atom_site_label
_atom_site_type_symbol
_atom_type_description
_atom_site_fract_x
_atom_site_fract_y
_atom_site_fract_z
_atom_type_partial_charge
C1    C     C_R   0.497915 0.299097 0.478524 0.801015
C2    C     C_R   0.502089 0.700903 0.521476 0.800987
C3    C     C_R   0.871656 0.501098 0.501783 -0.189797
C4    C     C_R   0.128344 0.498916 0.498217 -0.189811
C5    C     C_R   0.940109 0.424368 0.551026 -0.031613
C6    C     C_R   0.059893 0.575648 0.448975 -0.031618
C7    C     C_R   0.501746 0.814358 0.534163 -0.048520
C8    C     C_R   0.498269 0.185642 0.465838 -0.048508
C9    C     C_R   0.530510 0.015701 0.349560 -0.230731
C10   C     C_R   0.469515 0.984299 0.650443 -0.230747
C11   C     C_R   0.522920 0.123755 0.359187 -0.203804
C12   C     C_R   0.477100 0.876245 0.640815 -0.203809
C13   C     C_R   0.478242 0.138926 0.562182 -0.258518
C14   C     C_R   0.521780 0.861074 0.437821 -0.258516
C15   C     C_R   0.486611 0.031026 0.553527 0.159109
C16   C     C_R   0.513415 0.968974 0.446476 0.159116
C17   C     C_R   0.356660 0.430076 0.026419 -0.127817
C18   C     C_R   0.643331 0.569946 0.973583 -0.127773
C19   C     C_R   0.376965 0.430916 0.146984 -0.025073
C20   C     C_R   0.623028 0.569093 0.853016 -0.025088
C21   C     C_R   0.562593 0.528334 0.155760 0.061293
C22   C     C_R   0.437404 0.471671 0.844242 0.061311
C23   C     C_R   0.262525 0.500750 0.499821 0.784858
C24   C     C_R   0.737475 0.499254 0.500179 0.784839
C25   C     C_R   0.552872 0.524485 0.032878 0.006581
C26   C     C_R   0.447125 0.475526 0.967123 0.006573
C27   C     C_R   0.208357 0.831964 0.417268 -0.104460
C28   C     C_R   0.791711 0.168008 0.582678 -0.104453
C29   C     C_R   0.152563 0.754726 0.466467 -0.150071
C30   C     C_R   0.847498 0.245266 0.533502 -0.150221
C31   C     C_R   0.125120 0.656063 0.399007 0.155029
C32   C     C_R   0.874891 0.343933 0.600972 0.154950
C33   C     C_R   0.155109 0.635198 0.282348 0.008004
C34   C     C_R   0.844864 0.364781 0.717620 0.008071
C35   C     C_R   0.212862 0.712046 0.234120 -0.121815
C36   C     C_R   0.787122 0.287913 0.765826 -0.121858
C37   C     C_R   0.238823 0.810555 0.301335 -0.115888
C38   C     C_R   0.761209 0.189400 0.698600 -0.115889
C39   C     C_R   0.930090 0.578097 0.452297 -0.033541
C40   C     C_R   0.069910 0.421927 0.547712 -0.033508
Cu1   Cu    Cu3+1 0.509250 0.507730 0.615930 0.942868
Cu2   Cu    Cu3+1 0.490750 0.492270 0.384070 0.942853
H1    H     H_    0.282824 0.870252 0.263718 0.130924
H2    H     H_    0.717217 0.129688 0.736201 0.130940
H3    H     H_    0.363265 0.428648 0.790143 0.181663
H4    H     H_    0.636727 0.571356 0.209862 0.181651
H5    H     H_    0.228569 0.908287 0.469162 0.148917
H6    H     H_    0.771535 0.091683 0.530775 0.148930
H7    H     H_    0.129315 0.772003 0.556319 0.124035
H8    H     H_    0.870776 0.228000 0.443659 0.124043
H9    H     H_    0.541865 0.813438 0.355553 0.157113
H10   H     H_    0.458156 0.186561 0.644449 0.157112
H11   H     H_    0.461304 0.841044 0.716050 0.161929
H12   H     H_    0.538712 0.158957 0.283952 0.161925
H13   H     H_    0.550569 0.968893 0.266928 0.141893
H14   H     H_    0.449456 0.031107 0.733075 0.141892
N1    N     N_R   0.523180 0.519350 0.790130 -0.190321
N2    N     N_R   0.476820 0.480650 0.209870 -0.190315
O1    O     O_R   0.506570 0.354460 0.582000 -0.585535
O2    O     O_R   0.493430 0.645540 0.418000 -0.585543
O3    O     O_R   0.490940 0.341410 0.386200 -0.586099
O4    O     O_R   0.509060 0.658590 0.613800 -0.586100
O5    O     O_R   0.327460 0.506540 0.597900 -0.578686
O6    O     O_R   0.672540 0.493460 0.402100 -0.578723
O7    O     O_R   0.311830 0.493480 0.402100 -0.593346
O8    O     O_R   0.688170 0.506520 0.597900 -0.593337
H15   H     H_    0.690905 0.604656 0.807983 0.125665
H16   H     H_    0.309083 0.395360 0.192018 0.125663
C41   C     C_2   0.237311 0.384852 0.969589 0.339209
H17   H     H_    0.194633 0.320930 0.001714 0.075221
O9    O     O_2   0.181140 0.422658 0.892616 -0.517015
C42   C     C_2   0.762664 0.615210 0.030417 0.339150
H18   H     H_    0.805332 0.679123 0.998270 0.075238
O10   O     O_2   0.818833 0.577451 0.107425 -0.517094
H19   H     H_    0.133546 0.559624 0.229089 0.128605
H20   H     H_    0.866387 0.440358 0.770889 0.128619
H21   H     H_    0.236670 0.695453 0.144453 0.134886
H22   H     H_    0.763284 0.304493 0.855485 0.134860
C43   C     C_2   0.854248 0.663418 0.410900 0.401507
H23   H     H_    0.766219 0.685277 0.446995 0.038837
O11   O     O_2   0.887304 0.709233 0.335423 -0.516308
C44   C     C_2   0.145745 0.336610 0.589118 0.401515
H24   H     H_    0.233700 0.314662 0.552913 0.038734
O12   O     O_2   0.112762 0.290904 0.664715 -0.516265

loop_
_geom_bond_atom_site_label_1
_geom_bond_atom_site_label_2
_ccdc_geom_bond_type
C17   C41   S    
C8    C13   A    
C27   C29   A    
C1    C8    S    
Cu1   Cu2   S    
C20   H15   S    
C2    C7    S    
Cu2   N2    S    
C22   N1    A    
C29   H7    S    
C17   C26   A    
C35   C37   A    
C9    C16   A    
C10   C15   A    
C1    O1    A    
C2    O2    A    
C15   C16   A    
C41   O9    D    
C17   C19   A    
C33   H19   S    
C7    C14   A    
C4    C40   A    
Cu2   O7    S    
C31   C33   A    
C9    H13   S    
C10   H14   S    
C34   C36   A    
C12   H11   S    
C24   O8    A    
C5    C32   S    
C23   O5    A    
C6    C31   S    
C30   H8    S    
C3    C39   A    
C24   O6    A    
C3    C24   S    
C18   C25   A    
Cu1   O4    S    
C19   N2    A    
C18   C42   S    
C7    C12   A    
C40   C44   S    
Cu1   O1    S    
C4    C6    A    
Cu2   O2    S    
C43   O11   D    
C4    C23   S    
C25   C26   A    
C35   H21   S    
C39   C43   S    
C37   H1    S    
C38   H2    S    
C13   H10   S    
C14   H9    S    
C28   C38   A    
C19   H16   S    
C9    C11   A    
Cu2   O3    S    
C11   H12   S    
C10   C12   A    
C42   O10   D    
C44   O12   D    
C13   C15   A    
C14   C16   A    
Cu1   O5    S    
Cu2   O6    S    
C21   H4    S    
C27   H5    S    
C21   C25   A    
C28   H6    S    
C42   H18   S    
C3    C5    A    
C1    O3    A    
Cu1   O8    S    
C23   O7    A    
C28   C30   A    
Cu1   N1    S    
C21   N2    A    
C29   C31   A    
C36   H22   S    
C30   C32   A    
C27   C37   A    
C8    C11   A    
C36   C38   A    
C33   C35   A    
C18   C20   A    
C41   H17   S    
C43   H23   S    
C22   H3    S    
C44   H24   S    
C22   C26   A    
C5    C40   A    
C34   H20   S    
C6    C39   A    
C20   N1    A    
C2    O4    A    
C32   C34   A    
