data_mof_unit_28215.cif
_audit_creation_date              2012-12-10T19:50:00-0500
_audit_creation_method            fapswitch 2.2
_symmetry_space_group_name_H-M    P1
_symmetry_Int_Tables_number       1
_space_group_crystal_system       triclinic
_cell_length_a                    14.270284
_cell_length_b                    14.883984
_cell_length_c                    15.497188
_cell_angle_alpha                 90.608135
_cell_angle_beta                  66.804602
_cell_angle_gamma                 88.693555
_cell_volume                      3024.03955959

loop_
_atom_site_label
_atom_site_type_symbol
_atom_type_description
_atom_site_fract_x
_atom_site_fract_y
_atom_site_fract_z
_atom_type_partial_charge
C1    C     C_R   0.499980 0.672178 0.498321 0.861210
C2    C     C_R   0.502000 0.327601 0.497300 0.866161
C3    C     C_R   0.372201 0.513812 0.110222 -0.230752
C4    C     C_R   0.598973 0.590494 0.908328 -0.231264
C5    C     C_R   0.300705 0.505745 0.070606 -0.245031
C6    C     C_R   0.669795 0.599772 0.948629 -0.242023
C7    C     C_R   0.427583 0.914241 0.520784 -0.193420
C8    C     C_R   0.579600 0.088255 0.498702 -0.200507
C9    C     C_R   0.420625 0.822815 0.533423 -0.232213
C10   C     C_R   0.574539 0.180307 0.511444 -0.212265
C11   C     C_R   0.505200 0.767359 0.484815 -0.037752
C12   C     C_R   0.509538 0.231587 0.482803 -0.057702
C13   C     C_R   0.596728 0.802609 0.422791 -0.218487
C14   C     C_R   0.452706 0.191431 0.437802 -0.229656
C15   C     C_R   0.605161 0.894764 0.408571 0.107303
C16   C     C_R   0.457424 0.098745 0.423531 0.113982
C17   C     C_R   0.518220 0.950409 0.457879 0.086780
C18   C     C_R   0.521904 0.047242 0.455065 0.085287
C19   C     C_R   0.856625 0.527906 0.583775 -0.289155
C20   C     C_R   0.124008 0.419434 0.466453 -0.292335
C21   C     C_R   0.760792 0.533572 0.576801 -0.005551
C22   C     C_R   0.224478 0.426927 0.462335 -0.017378
C23   C     C_R   0.435823 0.501769 0.676437 0.866260
C24   C     C_R   0.564026 0.500662 0.323578 0.855019
C25   C     C_R   0.831299 0.460179 0.427650 0.244188
C26   C     C_R   0.179400 0.567748 0.542841 0.253603
C27   C     C_R   0.927281 0.453150 0.433876 -0.283031
C28   C     C_R   0.078757 0.560757 0.548497 -0.282805
C29   C     C_R   0.942295 0.487082 0.511263 0.117723
C30   C     C_R   0.048803 0.487217 0.510662 0.118724
C31   C     C_R   0.394809 0.510069 0.778857 -0.067185
C32   C     C_R   0.602591 0.513090 0.222210 -0.060741
C33   C     C_R   0.260977 0.494249 0.932766 -0.201010
C34   C     C_R   0.720102 0.578299 0.079498 -0.201911
C35   C     C_R   0.293295 0.492320 0.835260 -0.206336
C36   C     C_R   0.696427 0.551989 0.171769 -0.206556
C37   C     C_R   0.461662 0.534535 0.820284 -0.257979
C38   C     C_R   0.534415 0.499249 0.179410 -0.251617
C39   C     C_R   0.431555 0.536515 0.917518 0.093333
C40   C     C_R   0.551315 0.534323 0.091651 0.093340
C41   C     C_R   0.330313 0.513059 0.974061 0.177131
C42   C     C_R   0.647721 0.570575 0.039403 0.176433
C43   C     C_R   0.502155 0.553886 0.959018 0.070182
C44   C     C_R   0.475079 0.533061 0.054493 0.067638
H1    H     H_    0.222951 0.490002 0.115256 0.142269
H2    H     H_    0.742617 0.628944 0.908087 0.141624
H3    H     H_    0.863049 0.555207 0.646151 0.138583
H4    H     H_    0.105458 0.360340 0.435756 0.138419
H5    H     H_    0.696948 0.565054 0.633722 0.128097
H6    H     H_    0.279977 0.373409 0.429020 0.128743
H7    H     H_    0.991966 0.423526 0.375914 0.132874
H8    H     H_    0.023694 0.615081 0.580480 0.132717
H9    H     H_    0.466589 0.462454 0.217194 0.148702
H10   H     H_    0.539513 0.546470 0.775013 0.148770
H11   H     H_    0.749514 0.565018 0.204211 0.139072
H12   H     H_    0.240327 0.473792 0.804246 0.149446
H13   H     H_    0.183058 0.477510 0.975698 0.132905
H14   H     H_    0.793239 0.607739 0.040780 0.133381
H15   H     H_    0.344106 0.507012 0.185385 0.152089
H16   H     H_    0.620835 0.615793 0.838333 0.138249
H17   H     H_    0.362804 0.957433 0.562036 0.138682
H18   H     H_    0.625405 0.048424 0.526528 0.138265
H19   H     H_    0.350781 0.796009 0.583392 0.146895
H20   H     H_    0.618587 0.211037 0.546404 0.154058
H21   H     H_    0.661580 0.757829 0.385614 0.143512
H22   H     H_    0.404072 0.232572 0.414246 0.139495
N1    N     N_R   0.747530 0.500020 0.500000 -0.097762
N2    N     N_R   0.252470 0.499980 0.500000 -0.096205
O1    O     O_R   0.420530 0.630930 0.499990 -0.629501
O2    O     O_R   0.579470 0.369070 0.500010 -0.628343
O3    O     O_R   0.579480 0.630940 0.499990 -0.614334
O4    O     O_R   0.420520 0.369060 0.500010 -0.620440
O5    O     O_R   0.375120 0.499990 0.632240 -0.625485
O6    O     O_R   0.624880 0.500010 0.367760 -0.634279
O7    O     O_R   0.534080 0.500000 0.632240 -0.616713
O8    O     O_R   0.465920 0.500000 0.367760 -0.608942
Zn1   Zn    Zn3+2 0.393860 0.499990 0.500000 0.927971
Zn2   Zn    Zn3+2 0.606140 0.500010 0.500000 0.924979
C45   C     C_3   0.828897 0.425538 0.336267 -0.408950
C46   C     C_3   0.778403 0.333714 0.345199 -0.248015
C47   C     C_3   0.843344 0.266238 0.269026 -0.955607
H23   H     H_    0.857622 0.292736 0.198334 0.268652
H24   H     H_    0.917304 0.252376 0.275099 0.264127
H25   H     H_    0.802357 0.202297 0.277395 0.261753
H26   H     H_    0.764439 0.303959 0.414549 0.226902
H27   H     H_    0.704605 0.342422 0.337845 0.234626
H28   H     H_    0.795734 0.476823 0.305457 0.194334
H29   H     H_    0.908166 0.419267 0.282042 0.175895
C48   C     C_3   0.200380 0.654261 0.583670 -0.408288
C49   C     C_3   0.212135 0.641156 0.677480 -0.267706
C50   C     C_3   0.147404 0.709140 0.753252 -0.959138
H30   H     H_    0.169026 0.778738 0.729842 0.262907
H31   H     H_    0.065180 0.700938 0.768787 0.265515
H32   H     H_    0.160108 0.697951 0.818620 0.262392
H33   H     H_    0.189366 0.572690 0.704320 0.224493
H34   H     H_    0.292609 0.650167 0.667222 0.233674
H35   H     H_    0.263959 0.688989 0.530751 0.203482
H36   H     H_    0.136866 0.704032 0.595640 0.177671
C51   C     C_3   0.707870 0.930502 0.344737 -0.434879
C52   C     C_3   0.706034 0.969857 0.254438 -0.350929
C53   C     C_3   0.812841 0.994022 0.186549 -0.879803
H37   H     H_    0.846473 0.042583 0.220353 0.262551
H38   H     H_    0.863037 0.932707 0.164192 0.259991
H39   H     H_    0.808644 0.025170 0.123329 0.250406
H40   H     H_    0.675296 0.920042 0.219187 0.222532
H41   H     H_    0.657000 0.031811 0.271337 0.227184
H42   H     H_    0.733175 0.981791 0.382644 0.199991
H43   H     H_    0.767055 0.875441 0.324872 0.201876
C54   C     C_3   0.389230 0.057849 0.379725 -0.437145
C55   C     C_3   0.450396 0.013900 0.283334 -0.349166
C56   C     C_3   0.380322 0.982735 0.236469 -0.870347
H44   H     H_    0.326036 0.933247 0.280977 0.263310
H45   H     H_    0.336908 0.040919 0.224772 0.257568
H46   H     H_    0.426695 0.950165 0.167478 0.250789
H47   H     H_    0.504343 0.062730 0.237140 0.220025
H48   H     H_    0.494090 0.954332 0.291293 0.229734
H49   H     H_    0.338770 0.008040 0.427221 0.202104
H50   H     H_    0.337419 0.110681 0.370988 0.198060

loop_
_geom_bond_atom_site_label_1
_geom_bond_atom_site_label_2
_ccdc_geom_bond_type
C53   H37   S    
O2    Zn2   S    
C28   H8    S    
O1    Zn1   S    
C56   H44   S    
C1    C11   S    
C2    C12   S    
C45   H28   S    
C47   H23   S    
C54   H49   S    
C49   H33   S    
C39   C41   A    
C13   H21   S    
C26   C48   S    
C51   H43   S    
C52   H40   S    
C46   H26   S    
C32   C36   A    
C19   C21   A    
C19   H3    S    
C27   C29   A    
C7    C9    A    
C55   C56   S    
C7    H17   S    
C46   H27   S    
O4    Zn1   S    
C34   C42   A    
C7    C17   A    
C25   N1    A    
C54   H50   S    
C32   C38   A    
C34   C36   A    
C22   H6    S    
C40   C42   A    
C53   H38   S    
C25   C45   S    
C21   N1    A    
N1    Zn2   S    
C23   O5    A    
C2    O4    A    
C21   H5    S    
C45   H29   S    
C47   H24   S    
C27   H7    S    
C16   C54   S    
C3    C44   A    
O8    Zn1   S    
C4    C6    A    
C15   C51   S    
C50   H30   S    
C24   O8    A    
C39   C43   A    
C5    H1    S    
C1    O1    A    
C31   C37   A    
C48   H35   S    
C23   C31   S    
C43   C44   A    
C24   C32   S    
C29   C30   S    
C50   H31   S    
C51   C52   S    
C4    H16   S    
C17   C18   S    
C14   H22   S    
C56   H45   S    
C1    O3    A    
C9    C11   A    
C22   N2    A    
C20   H4    S    
C10   C12   A    
C37   H10   S    
C8    C10   A    
C20   C22   A    
C53   H39   S    
C13   C15   A    
O6    Zn2   S    
C31   C35   A    
C19   C29   A    
C55   H48   S    
C47   H25   S    
N2    Zn1   S    
C15   C17   A    
C5    C41   A    
C33   H13   S    
C6    H2    S    
C35   H12   S    
C9    H19   S    
C52   H41   S    
C10   H20   S    
C23   O7    A    
C46   C47   S    
C3    C5    A    
C49   H34   S    
C4    C43   A    
C25   C27   A    
C51   H42   S    
C26   C28   A    
C48   H36   S    
C26   N2    A    
C28   C30   A    
C12   C14   A    
C33   C41   A    
C37   C39   A    
C36   H11   S    
C54   C55   S    
C20   C30   A    
C50   H32   S    
C38   C40   A    
C11   C13   A    
C24   O6    A    
C49   C50   S    
C38   H9    S    
C52   C53   S    
C33   C35   A    
C56   H46   S    
C14   C16   A    
O7    Zn2   S    
C8    C18   A    
C45   C46   S    
C40   C44   A    
C16   C18   A    
C6    C42   A    
C34   H14   S    
O5    Zn1   S    
C48   C49   S    
C2    O2    A    
C55   H47   S    
O3    Zn2   S    
C8    H18   S    
C3    H15   S    
