data_mof_unit_64292.cif
_audit_creation_date              2012-12-10T19:15:22-0500
_audit_creation_method            fapswitch 2.2
_symmetry_space_group_name_H-M    P1
_symmetry_Int_Tables_number       1
_space_group_crystal_system       triclinic
_cell_length_a                    44.379368
_cell_length_b                    38.905609
_cell_length_c                    21.462018
_cell_angle_alpha                 90.000028
_cell_angle_beta                  118.714908
_cell_angle_gamma                 90.0
_cell_volume                      32499.2971628

loop_
_atom_site_label
_atom_site_type_symbol
_atom_type_description
_atom_site_fract_x
_atom_site_fract_y
_atom_site_fract_z
_atom_type_partial_charge
C1    C     C_R   0.067248 0.000026 0.567227 0.862143
C2    C     C_R   0.622843 0.000259 0.065864 -0.191295
C3    C     C_R   0.567183 0.000009 0.067086 0.867564
C4    C     C_R   0.932817 0.500009 0.932914 0.867563
C5    C     C_R   0.067183 0.500017 0.067087 0.867574
C6    C     C_R   0.500000 0.067137 0.000000 0.891200
C7    C     C_R   1.000000 0.567137 1.000000 0.891201
C8    C     C_R   0.499904 0.877111 0.943341 -0.191629
C9    C     C_R   0.500096 0.877111 0.056658 -0.191205
C10   C     C_R   0.999923 0.377111 0.943361 -0.191206
C11   C     C_R   0.000077 0.377111 0.056639 -0.191629
C12   C     C_R   0.499913 0.841416 0.943375 -0.179449
C13   C     C_R   0.877157 0.500259 0.934136 -0.191297
C14   C     C_R   0.500086 0.841416 0.056624 -0.179231
C15   C     C_R   0.999934 0.341416 0.943396 -0.179232
C16   C     C_R   0.000067 0.341416 0.056605 -0.179447
C17   C     C_R   0.500000 0.823408 0.999999 0.116590
C18   C     C_R   0.000000 0.323408 0.000000 0.116590
C19   C     C_R   0.500000 0.895191 1.000000 -0.035112
C20   C     C_R   0.000000 0.395191 0.000000 -0.035112
C21   C     C_R   0.522143 0.767814 0.982158 -0.185812
C22   C     C_R   0.477856 0.767814 0.017841 -0.185806
C23   C     C_R   0.022158 0.267814 0.982199 -0.185806
C24   C     C_R   0.122850 0.499962 0.065887 -0.191293
C25   C     C_R   0.977842 0.267814 0.017802 -0.185813
C26   C     C_3   0.012043 0.034722 0.224514 -0.476664
C27   C     C_3   0.987948 0.034720 0.775476 -0.476753
C28   C     C_3   0.512056 0.534720 0.224528 -0.476753
C29   C     C_3   0.487956 0.534722 0.775485 -0.476663
C30   C     C_R   0.022173 0.232121 0.982240 -0.186672
C31   C     C_R   0.977827 0.232121 0.017760 -0.186622
C32   C     C_R   0.522158 0.732120 0.982199 -0.186623
C33   C     C_R   0.477842 0.732120 0.017799 -0.186672
C34   C     C_R   0.000000 0.214111 0.000000 0.106909
C35   C     C_R   0.341458 0.999982 0.898571 -0.179071
C36   C     C_R   0.500000 0.714111 0.999999 0.106908
C37   C     C_R   0.500000 0.785824 0.999999 0.107177
C38   C     C_R   0.000000 0.285824 0.000000 0.107179
C39   C     C_R   0.968826 0.158520 0.968337 -0.180730
C40   C     C_R   0.031174 0.158520 0.031663 -0.180716
C41   C     C_R   0.468825 0.658520 0.968371 -0.180718
C42   C     C_R   0.531174 0.658520 0.031628 -0.180729
C43   C     C_R   0.968812 0.122826 0.968306 -0.197240
C44   C     C_R   0.031187 0.122826 0.031694 -0.197255
C45   C     C_R   0.468812 0.622826 0.968340 -0.197256
C46   C     C_R   0.658535 0.000313 0.101388 -0.179099
C47   C     C_R   0.531188 0.622826 0.031659 -0.197241
C48   C     C_R   0.000000 0.104749 0.000000 -0.036795
C49   C     C_R   0.500000 0.604749 1.000000 -0.036795
C50   C     C_R   1.000000 0.176528 0.000000 0.117344
C51   C     C_R   0.500000 0.676528 0.999999 0.117343
C52   C     C_R   0.492370 0.122727 0.047225 -0.179403
C53   C     C_R   0.507630 0.122727 0.952776 -0.178981
C54   C     C_R   0.992371 0.622727 0.047225 -0.178983
C55   C     C_R   0.007629 0.622727 0.952775 -0.179402
C56   C     C_R   0.492186 0.158478 0.047445 0.097647
C57   C     C_R   0.841465 0.500313 0.898611 -0.179098
C58   C     C_R   0.507814 0.158478 0.952556 0.097671
C59   C     C_R   0.992186 0.658478 0.047444 0.097671
C60   C     C_R   0.007814 0.658478 0.952555 0.097647
C61   C     C_R   0.500000 0.176532 0.000000 0.006277
C62   C     C_R   1.000000 0.676532 1.000000 0.006277
C63   C     C_3   0.964626 0.990892 0.252387 -0.422098
C64   C     C_3   0.035376 0.990901 0.747614 -0.421912
C65   C     C_3   0.464623 0.490905 0.252385 -0.421910
C66   C     C_3   0.535374 0.490892 0.747613 -0.422098
C67   C     C_R   0.500000 0.104708 0.000000 -0.133561
C68   C     C_R   0.158542 0.499972 0.101429 -0.179072
C69   C     C_R   1.000000 0.604708 1.000000 -0.133561
C70   C     C_R   0.527773 0.231822 0.053302 -0.195819
C71   C     C_R   0.472227 0.231822 0.946699 -0.195819
C72   C     C_R   0.027773 0.731822 0.053301 -0.195820
C73   C     C_R   0.972227 0.731822 0.946699 -0.195818
C74   C     C_R   0.027732 0.767538 0.053525 -0.187481
C75   C     C_R   0.972267 0.767538 0.946475 -0.187434
C76   C     C_R   0.527732 0.267538 0.053526 -0.187433
C77   C     C_R   0.472268 0.267538 0.946475 -0.187482
C78   C     C_R   1.000000 0.785647 0.000000 0.109434
C79   C     C_R   0.323473 0.000061 0.824139 0.116251
C80   C     C_R   0.500000 0.285647 0.000000 0.109434
C81   C     C_R   0.500000 0.214010 0.000000 0.103426
C82   C     C_R   1.000000 0.714010 0.000000 0.103427
C83   C     C_R   0.969770 0.841461 0.983746 -0.180842
C84   C     C_R   0.030230 0.841461 0.016254 -0.180814
C85   C     C_R   0.469770 0.341461 0.983746 -0.180816
C86   C     C_R   0.530230 0.341461 0.016255 -0.180841
C87   C     C_R   0.969731 0.877177 0.983441 -0.191807
C88   C     C_R   0.030268 0.877177 0.016558 -0.191798
C89   C     C_R   0.469731 0.377177 0.983442 -0.191795
C90   C     C_R   0.676528 0.000198 0.175819 0.116233
C91   C     C_R   0.530268 0.377177 0.016559 -0.191809
C92   C     C_R   1.000000 0.895240 1.000000 -0.027513
C93   C     C_R   0.500000 0.395240 0.000000 -0.027513
C94   C     C_R   1.000000 0.823360 0.000000 0.116213
C95   C     C_R   0.500000 0.323360 0.000000 0.116214
C96   C     C_3   0.026756 0.972326 0.312607 -0.442916
C97   C     C_3   0.973250 0.972320 0.687400 -0.442729
C98   C     C_3   0.526747 0.472317 0.312597 -0.442725
C99   C     C_3   0.473244 0.472326 0.687393 -0.442917
C100  C     C_3   0.001192 0.999845 0.311616 0.161645
C101  C     C_R   0.823472 0.500198 0.824181 0.116233
C102  C     C_3   0.998807 0.999845 0.688383 0.161539
C103  C     C_3   0.501193 0.499845 0.311617 0.161539
C104  C     C_3   0.498808 0.499845 0.688384 0.161647
C105  C     C_3   0.000078 0.998987 0.189598 0.168592
C106  C     C_3   0.999922 0.998988 0.810402 0.168587
C107  C     C_3   0.500078 0.498988 0.189598 0.168586
C108  C     C_3   0.499922 0.498987 0.810402 0.168592
C109  C     C_3   0.963452 0.992134 0.179838 -0.377581
C110  C     C_3   0.036549 0.992144 0.820163 -0.377534
C111  C     C_3   0.463450 0.492148 0.179836 -0.377533
C112  C     C_R   0.932752 0.000030 0.432775 0.862128
C113  C     C_R   0.176527 0.500061 0.175861 0.116253
C114  C     C_3   0.536548 0.492135 0.820162 -0.377580
C115  C     C_R   0.341518 0.000176 0.785566 -0.179300
C116  C     C_R   0.658491 0.000003 0.214408 -0.179263
C117  C     C_R   0.841509 0.500004 0.785591 -0.179263
C118  C     C_R   0.158482 0.500185 0.214434 -0.179301
C119  C     C_R   0.377203 0.000184 0.821052 -0.190524
C120  C     C_R   0.622805 0.999927 0.178937 -0.190528
C121  C     C_R   0.877195 0.499928 0.821063 -0.190527
C122  C     C_R   0.122797 0.500193 0.178947 -0.190520
C123  C     C_R   0.395261 0.000062 0.895574 -0.035227
C124  C     C_R   0.567248 0.500030 0.567225 0.862128
C125  C     C_R   0.604740 0.000063 0.104416 -0.035229
C126  C     C_R   0.895260 0.500063 0.895584 -0.035229
C127  C     C_R   0.104739 0.500062 0.104426 -0.035227
C128  C     C_R   0.267780 0.022043 0.808609 -0.185645
C129  C     C_R   0.732061 0.022310 0.271207 -0.185643
C130  C     C_R   0.767939 0.522310 0.728793 -0.185642
C131  C     C_R   0.232051 0.477921 0.271221 -0.185626
C132  C     C_R   0.232090 0.022048 0.772887 -0.186551
C133  C     C_R   0.767746 0.022309 0.306884 -0.186731
C134  C     C_R   0.732254 0.522309 0.693117 -0.186732
C135  C     C_R   0.432752 0.500026 0.432772 0.862143
C136  C     C_R   0.267735 0.477898 0.306884 -0.186708
C137  C     C_R   0.214161 0.999973 0.714970 0.106707
C138  C     C_R   0.785838 0.000237 0.284996 0.106681
C139  C     C_R   0.714161 0.500237 0.715004 0.106681
C140  C     C_R   0.285839 0.499973 0.285030 0.106708
C141  C     C_R   0.001152 0.000041 0.379720 0.850025
C142  C     C_R   0.998847 0.000041 0.620279 0.850006
C143  C     C_R   0.501153 0.500041 0.379721 0.850005
C144  C     C_R   0.498848 0.500041 0.620280 0.850026
C145  C     C_R   0.232265 0.977891 0.693129 -0.186707
C146  C     C_3   0.025862 0.971365 0.239754 -0.052171
C147  C     C_R   0.767899 0.978205 0.227008 -0.186526
C148  C     C_R   0.732101 0.478205 0.772992 -0.186525
C149  C     C_R   0.267910 0.522041 0.227100 -0.186553
C150  C     C_R   0.267949 0.977914 0.728793 -0.185627
C151  C     C_R   0.732210 0.978237 0.191271 -0.185605
C152  C     C_R   0.767790 0.478237 0.808729 -0.185606
C153  C     C_R   0.232220 0.522035 0.191378 -0.185644
C154  C     C_R   0.285881 0.999996 0.786692 0.107067
C155  C     C_R   0.714119 0.000266 0.213245 0.107138
C156  C     C_R   0.785881 0.500266 0.786755 0.107138
C157  C     C_3   0.974144 0.971359 0.760253 -0.052250
C158  C     C_R   0.214118 0.499996 0.213308 0.107067
C159  C     C_R   0.158543 0.968820 0.659349 -0.180808
C160  C     C_R   0.841396 0.968959 0.341017 -0.180629
C161  C     C_R   0.658604 0.468959 0.658982 -0.180629
C162  C     C_R   0.341457 0.468820 0.340668 -0.180807
C163  C     C_R   0.122858 0.968821 0.623418 -0.197653
C164  C     C_R   0.877086 0.968894 0.376996 -0.197774
C165  C     C_R   0.622914 0.468894 0.623004 -0.197774
C166  C     C_R   0.377142 0.468821 0.376598 -0.197654
C167  C     C_R   0.104792 0.000027 0.604962 -0.038182
C168  C     C_3   0.525853 0.471357 0.239743 -0.052253
C169  C     C_R   0.895207 0.000068 0.395045 -0.038188
C170  C     C_R   0.604793 0.500068 0.604955 -0.038187
C171  C     C_R   0.395207 0.500027 0.395038 -0.038182
C172  C     C_R   0.122881 0.031219 0.622947 -0.197848
C173  C     C_R   0.877173 0.031292 0.376653 -0.197733
C174  C     C_R   0.622827 0.531292 0.623347 -0.197733
C175  C     C_R   0.377119 0.531220 0.377036 -0.197849
C176  C     C_R   0.158571 0.031193 0.658917 -0.180504
C177  C     C_R   0.841488 0.031332 0.340720 -0.180679
C178  C     C_R   0.658512 0.531332 0.659281 -0.180679
C179  C     C_3   0.474138 0.471364 0.760246 -0.052171
C180  C     C_R   0.341429 0.531193 0.341066 -0.180504
C181  C     C_R   0.176571 0.999998 0.677265 0.117261
C182  C     C_R   0.823428 0.000173 0.322730 0.117248
C183  C     C_R   0.676571 0.500173 0.677270 0.117248
C184  C     C_R   0.323429 0.499998 0.322735 0.117261
C185  C     C_R   0.000000 0.067205 0.000000 0.860799
C186  C     C_R   0.500000 0.567205 1.000000 0.860796
C187  C     C_3   0.011792 0.035577 0.295749 -0.379064
C188  C     C_3   0.988199 0.035575 0.704241 -0.379227
C189  C     C_3   0.511806 0.535573 0.295763 -0.379233
C190  C     C_R   0.377150 0.999971 0.934112 -0.191292
C191  C     C_3   0.488207 0.535577 0.704251 -0.379064
C192  C     C_R   0.999932 0.999291 0.121286 0.874335
C193  C     C_R   0.000068 0.999292 0.878714 0.874340
C194  C     C_R   0.499932 0.499292 0.121286 0.874341
C195  C     C_R   0.500067 0.499291 0.878714 0.874336
C196  C     C_R   1.000000 0.932780 1.000000 0.889203
C197  C     C_R   0.500000 0.432780 0.000000 0.889206
C198  C     C_R   0.500000 0.932744 1.000000 0.868698
C199  C     C_R   1.000000 0.432744 0.000000 0.868697
C200  C     C_R   0.432817 0.000017 0.932913 0.867574
H1    H     H_    0.993412 0.055704 0.293272 0.188773
H2    H     H_    0.047287 0.967684 0.849245 0.170422
H3    H     H_    0.950702 0.718030 0.905329 0.133854
H4    H     H_    0.049152 0.780979 0.095857 0.129819
H5    H     H_    0.950847 0.780979 0.904142 0.129854
H6    H     H_    0.549152 0.280979 0.095859 0.129854
H7    H     H_    0.450848 0.280979 0.904142 0.129819
H8    H     H_    0.946282 0.828005 0.972117 0.127553
H9    H     H_    0.053717 0.828005 0.027883 0.127602
H10   H     H_    0.446282 0.328005 0.972117 0.127603
H11   H     H_    0.553717 0.328005 0.027884 0.127553
H12   H     H_    0.946131 0.890617 0.971013 0.151148
H13   H     H_    0.452709 0.467689 0.150752 0.170426
H14   H     H_    0.053869 0.890617 0.028987 0.151207
H15   H     H_    0.446131 0.390617 0.971013 0.151207
H16   H     H_    0.553869 0.390617 0.028988 0.151148
H17   H     H_    0.994782 0.055172 0.188947 0.170122
H18   H     H_    0.005204 0.055174 0.811038 0.170007
H19   H     H_    0.494801 0.555175 0.188969 0.170005
H20   H     H_    0.505217 0.555172 0.811052 0.170120
H21   H     H_    0.945618 0.009399 0.252968 0.162888
H22   H     H_    0.054379 0.009413 0.747028 0.162682
H23   H     H_    0.445622 0.509419 0.252974 0.162683
H24   H     H_    0.547281 0.467673 0.849240 0.170236
H25   H     H_    0.554382 0.509400 0.747031 0.162888
H26   H     H_    0.945640 0.013028 0.147503 0.179830
H27   H     H_    0.054357 0.013042 0.852492 0.179661
H28   H     H_    0.445645 0.513048 0.147509 0.179657
H29   H     H_    0.554360 0.513029 0.852496 0.179828
H30   H     H_    0.020412 0.946590 0.325804 0.185686
H31   H     H_    0.979601 0.946585 0.674210 0.185800
H32   H     H_    0.520394 0.446583 0.325784 0.185801
H33   H     H_    0.479589 0.446590 0.674196 0.185686
H34   H     H_    0.053221 0.978654 0.354929 0.144514
H35   H     H_    0.390504 0.999798 0.991648 0.155153
H36   H     H_    0.946783 0.978641 0.645077 0.144679
H37   H     H_    0.553215 0.478635 0.354921 0.144680
H38   H     H_    0.446779 0.478653 0.645071 0.144513
H39   H     H_    0.052105 0.978018 0.248827 0.160242
H40   H     H_    0.947900 0.978007 0.751179 0.160331
H41   H     H_    0.552098 0.478002 0.248818 0.160330
H42   H     H_    0.447895 0.478017 0.751173 0.160241
H43   H     H_    0.037724 0.920392 0.238927 0.184431
H44   H     H_    0.995620 0.927414 0.208632 0.191823
H45   H     H_    0.962294 0.920383 0.761094 0.184696
H46   H     H_    0.609484 0.000452 0.008329 0.155170
H47   H     H_    0.004397 0.927416 0.791386 0.191913
H48   H     H_    0.537698 0.420380 0.238897 0.184696
H49   H     H_    0.495596 0.427416 0.208605 0.191913
H50   H     H_    0.462277 0.420391 0.761075 0.184430
H51   H     H_    0.504381 0.427414 0.791369 0.191823
H52   H     H_    0.462529 0.191981 0.066077 0.192550
H53   H     H_    0.504364 0.191112 0.129654 0.188105
H54   H     H_    0.537471 0.191981 0.933924 0.192623
H55   H     H_    0.495636 0.191112 0.870346 0.188145
H56   H     H_    0.962529 0.691981 0.066078 0.192623
H57   H     H_    0.890516 0.500452 0.991671 0.155169
H58   H     H_    0.004364 0.691113 0.129654 0.188145
H59   H     H_    0.037471 0.691981 0.933922 0.192550
H60   H     H_    0.995635 0.691113 0.870346 0.188105
H61   H     H_    0.109496 0.499782 0.008352 0.155152
H62   H     H_    0.327892 0.999514 0.929157 0.129496
H63   H     H_    0.672094 0.000843 0.070793 0.129533
H64   H     H_    0.827906 0.500843 0.929207 0.129533
H65   H     H_    0.006573 0.055707 0.706712 0.188651
H66   H     H_    0.172107 0.499498 0.070843 0.129495
H67   H     H_    0.328002 0.000640 0.728025 0.129598
H68   H     H_    0.672014 0.999515 0.271948 0.129599
H69   H     H_    0.827986 0.499515 0.728052 0.129600
H70   H     H_    0.171998 0.500656 0.271975 0.129598
H71   H     H_    0.390593 0.000354 0.790121 0.155539
H72   H     H_    0.609421 0.999686 0.209878 0.155517
H73   H     H_    0.890579 0.499686 0.790121 0.155517
H74   H     H_    0.109407 0.500370 0.209879 0.155539
H75   H     H_    0.281250 0.039469 0.852855 0.130805
H76   H     H_    0.493433 0.555708 0.293295 0.188653
H77   H     H_    0.718470 0.039703 0.288458 0.130770
H78   H     H_    0.781530 0.539703 0.711542 0.130770
H79   H     H_    0.218454 0.460517 0.288435 0.130780
H80   H     H_    0.218485 0.039048 0.790815 0.130048
H81   H     H_    0.781217 0.039272 0.351966 0.129977
H82   H     H_    0.718783 0.539273 0.648035 0.129978
H83   H     H_    0.281197 0.460909 0.351925 0.129905
H84   H     H_    0.218803 0.960896 0.648099 0.129905
H85   H     H_    0.781496 0.961214 0.209044 0.130032
H86   H     H_    0.718503 0.461214 0.790955 0.130032
H87   H     H_    0.506586 0.555705 0.706727 0.188773
H88   H     H_    0.281515 0.539035 0.209162 0.130048
H89   H     H_    0.037760 0.042801 0.338916 0.166722
H90   H     H_    0.962229 0.042792 0.661072 0.166479
H91   H     H_    0.537776 0.542788 0.338933 0.166476
H92   H     H_    0.462239 0.542801 0.661083 0.166723
H93   H     H_    0.281546 0.960504 0.711589 0.130780
H94   H     H_    0.718732 0.960838 0.146978 0.130636
H95   H     H_    0.781268 0.460838 0.853022 0.130635
H96   H     H_    0.218750 0.539456 0.147122 0.130804
H97   H     H_    0.172068 0.944493 0.673846 0.129258
H98   H     H_    0.957181 0.964747 0.261214 0.174669
H99   H     H_    0.827816 0.944659 0.328203 0.129229
H100  H     H_    0.672184 0.444659 0.671797 0.129229
H101  H     H_    0.327932 0.444493 0.326185 0.129258
H102  H     H_    0.109473 0.944417 0.610299 0.154139
H103  H     H_    0.890430 0.944469 0.390755 0.154041
H104  H     H_    0.609570 0.444469 0.609245 0.154041
H105  H     H_    0.390527 0.444417 0.389731 0.154138
H106  H     H_    0.109511 0.055630 0.609137 0.154186
H107  H     H_    0.890583 0.055682 0.389826 0.154286
H108  H     H_    0.609417 0.555683 0.610174 0.154285
H109  H     H_    0.042827 0.964758 0.738793 0.174913
H110  H     H_    0.390489 0.555631 0.390832 0.154187
H111  H     H_    0.172125 0.055507 0.671672 0.129265
H112  H     H_    0.827988 0.055673 0.326273 0.129308
H113  H     H_    0.672012 0.555673 0.673727 0.129308
H114  H     H_    0.327875 0.555507 0.328297 0.129265
H115  H     H_    0.499741 0.890489 0.898929 0.154984
H116  H     H_    0.500259 0.890489 0.101070 0.155108
H117  H     H_    0.999777 0.390489 0.898965 0.155108
H118  H     H_    0.000223 0.390489 0.101035 0.154985
H119  H     H_    0.499460 0.827864 0.898841 0.129469
H120  H     H_    0.457169 0.464763 0.261203 0.174911
H121  H     H_    0.500540 0.827864 0.101158 0.129549
H122  H     H_    0.999496 0.327864 0.898877 0.129549
H123  H     H_    0.000504 0.327864 0.101123 0.129469
H124  H     H_    0.539616 0.781358 0.968852 0.130768
H125  H     H_    0.460383 0.781358 0.031147 0.130858
H126  H     H_    0.039642 0.281358 0.968924 0.130858
H127  H     H_    0.960358 0.281358 0.031076 0.130768
H128  H     H_    0.039243 0.218576 0.967797 0.130142
H129  H     H_    0.960757 0.218576 0.032203 0.130200
H130  H     H_    0.539217 0.718576 0.967725 0.130200
H131  H     H_    0.542820 0.464748 0.738787 0.174669
H132  H     H_    0.460783 0.718576 0.032274 0.130142
H133  H     H_    0.944523 0.172072 0.942952 0.129429
H134  H     H_    0.055477 0.172072 0.057049 0.129435
H135  H     H_    0.444522 0.672072 0.943013 0.129436
H136  H     H_    0.555478 0.672072 0.056986 0.129429
H137  H     H_    0.038437 0.040404 0.233567 0.177930
H138  H     H_    0.961553 0.040396 0.766423 0.177795
H139  H     H_    0.538451 0.540392 0.233582 0.177801
H140  H     H_    0.461562 0.540403 0.766432 0.177932
H141  H     H_    0.944416 0.109445 0.943349 0.154320
H142  H     H_    0.952720 0.967672 0.150761 0.170236
H143  H     H_    0.055584 0.109445 0.056652 0.154319
H144  H     H_    0.444416 0.609445 0.943410 0.154320
H145  H     H_    0.555584 0.609445 0.056589 0.154321
H146  H     H_    0.486196 0.109074 0.083651 0.171146
H147  H     H_    0.513804 0.109074 0.916350 0.171272
H148  H     H_    0.986196 0.609074 0.083651 0.171272
H149  H     H_    0.013804 0.609074 0.916349 0.171147
H150  H     H_    0.549298 0.218030 0.094672 0.133854
H151  H     H_    0.450702 0.218030 0.905329 0.133946
H152  H     H_    0.049298 0.718030 0.094671 0.133946
N1    N     N_3   0.017436 0.936941 0.207744 -0.475132
N2    N     N_3   0.982579 0.936938 0.792272 -0.475057
N3    N     N_3   0.517415 0.436937 0.207720 -0.475059
N4    N     N_3   0.482565 0.436941 0.792257 -0.475131
N5    N     N_3   0.483515 0.175893 0.095542 -0.468201
N6    N     N_3   0.516485 0.175893 0.904459 -0.467960
N7    N     N_3   0.983515 0.675893 0.095542 -0.467960
N8    N     N_3   0.016484 0.675893 0.904458 -0.468201
O1    O     O_R   0.050910 0.028760 0.550880 -0.626076
O2    O     O_R   0.550890 0.000020 0.998620 -0.626213
O3    O     O_R   0.949110 0.500020 0.001380 -0.626215
O4    O     O_R   0.050890 0.500020 0.998620 -0.626205
O5    O     O_R   0.500000 0.050860 0.947620 -0.623919
O6    O     O_R   0.500000 0.050860 0.052380 -0.624062
O7    O     O_R   1.000000 0.550860 0.947620 -0.624061
O8    O     O_R   0.000000 0.550860 0.052380 -0.623920
O9    O     O_R   0.050940 0.971280 0.550860 -0.626398
O10   O     O_R   0.949060 0.971280 0.449140 -0.626334
O11   O     O_R   0.550940 0.471280 0.550860 -0.626335
O12   O     O_R   0.949090 0.028760 0.449120 -0.626135
O13   O     O_R   0.449060 0.471280 0.449140 -0.626397
O14   O     O_R   0.000010 0.028760 0.407400 -0.631306
O15   O     O_R   0.999990 0.028760 0.592600 -0.631424
O16   O     O_R   0.500010 0.528760 0.407400 -0.631423
O17   O     O_R   0.499990 0.528760 0.592600 -0.631306
O18   O     O_R   0.000040 0.971280 0.407380 -0.630140
O19   O     O_R   0.999960 0.971280 0.592620 -0.630031
O20   O     O_R   0.500040 0.471280 0.407380 -0.630030
O21   O     O_R   0.499960 0.471280 0.592620 -0.630142
O22   O     O_R   0.028770 0.050900 0.028770 -0.627413
O23   O     O_R   0.550910 0.528760 0.550880 -0.626136
O24   O     O_R   0.971230 0.050900 0.971230 -0.627406
O25   O     O_R   0.528770 0.550900 0.028770 -0.627407
O26   O     O_R   0.471230 0.550900 0.971230 -0.627412
O27   O     O_R   0.028750 1.000000 0.121310 -0.630446
O28   O     O_R   0.971250 0.000000 0.878690 -0.630461
O29   O     O_R   0.528750 0.500000 0.121310 -0.630461
O30   O     O_R   0.471250 0.500000 0.878690 -0.630445
O31   O     O_R   0.971270 0.000040 0.063860 -0.635401
O32   O     O_R   0.028730 0.000040 0.936140 -0.635408
O33   O     O_R   0.471270 0.500040 0.063860 -0.635409
O34   O     O_R   0.449090 0.528760 0.449120 -0.626075
O35   O     O_R   0.528730 0.500040 0.936140 -0.635402
O36   O     O_R   0.028750 0.949090 0.028660 -0.623997
O37   O     O_R   0.971250 0.949090 0.971340 -0.623996
O38   O     O_R   0.528750 0.449090 0.028660 -0.623997
O39   O     O_R   0.471250 0.449090 0.971340 -0.623997
O40   O     O_R   0.500050 0.949040 0.947810 -0.625835
O41   O     O_R   0.499950 0.949040 0.052190 -0.625693
O42   O     O_R   0.000050 0.449040 0.947810 -0.625693
O43   O     O_R   0.999950 0.449040 0.052190 -0.625834
O44   O     O_R   0.449110 0.999950 0.896830 -0.625119
O45   O     O_R   0.550890 0.999950 0.103170 -0.625109
O46   O     O_R   0.949110 0.499950 0.896830 -0.625107
O47   O     O_R   0.050890 0.499950 0.103170 -0.625117
O48   O     O_R   0.449110 0.000020 0.001380 -0.626204
Zn1   Zn    Zn3+2 1.000000 0.038400 0.500000 0.926054
Zn2   Zn    Zn3+2 0.499980 0.999940 0.069820 0.940845
Zn3   Zn    Zn3+2 0.000020 0.499940 0.930180 0.940846
Zn4   Zn    Zn3+2 0.999980 0.499940 0.069820 0.940834
Zn5   Zn    Zn3+2 0.500000 0.538400 0.500000 0.926053
Zn6   Zn    Zn3+2 1.000000 0.961640 0.500000 0.924704
Zn7   Zn    Zn3+2 0.500000 0.461640 0.500000 0.924705
Zn8   Zn    Zn3+2 0.038400 0.999990 0.038350 0.931764
Zn9   Zn    Zn3+2 0.961600 0.999990 0.961650 0.931758
Zn10  Zn    Zn3+2 0.538400 0.499990 0.038350 0.931758
Zn11  Zn    Zn3+2 0.461600 0.499990 0.961650 0.931764
Zn12  Zn    Zn3+2 0.500020 0.999940 0.930180 0.940835

loop_
_geom_bond_atom_site_label_1
_geom_bond_atom_site_label_2
_ccdc_geom_bond_type
C177  H112  S    
C87   H12   S    
O1    Zn1   S    
C136  C140  A    
O29   Zn10  S    
C47   H145  S    
C21   C37   A    
H54   N6    S    
C122  H74   S    
C21   H124  S    
C99   H33   S    
C6    O5    A    
C1    C167  S    
C177  C182  A    
O20   Zn7   S    
C112  O12   A    
C33   C36   A    
C200  O48   A    
C60   C62   A    
C149  C153  A    
C200  O44   A    
C9    C19   A    
C49   C186  S    
C152  C156  A    
C10   C20   A    
C19   C198  S    
C24   C127  A    
C30   H128  S    
C29   C108  S    
C151  C155  A    
O9    Zn6   S    
O3    Zn4   S    
C128  C154  A    
C9    H116  S    
C58   C61   A    
C141  O14   A    
C148  H86   S    
C124  O11   A    
C73   C75   A    
C130  C134  A    
C26   C105  S    
C14   H121  S    
C76   H6    S    
C11   C20   A    
C84   C88   A    
C193  O28   A    
C86   H11   S    
C120  C125  A    
C132  C137  A    
H47   N2    S    
O44   Zn12  S    
C131  C158  A    
O45   Zn2   S    
C42   H136  S    
C197  O39   A    
C198  O40   A    
C112  C169  S    
C140  C184  S    
C159  C181  A    
C108  C195  S    
O43   Zn4   S    
C186  O26   A    
C98   H32   S    
O48   Zn2   S    
H43   N1    S    
C35   C190  A    
C119  C123  A    
O16   Zn5   S    
C199  O42   A    
C170  C174  A    
C63   H98   S    
C66   H131  S    
C111  H13   S    
C92   C196  S    
O5    Zn12  S    
C103  C143  S    
C117  H69   S    
C53   C58   A    
O21   Zn7   S    
O19   Zn6   S    
O22   Zn8   S    
C119  H71   S    
C120  H72   S    
C110  H2    S    
C18   C38   S    
C75   H5    S    
H58   N7    S    
C78   C94   S    
C105  C146  S    
C66   H25   S    
O24   Zn9   S    
O25   Zn10  S    
C138  C182  S    
C86   C95   A    
C27   H18   S    
C41   C45   A    
C130  C156  A    
C190  H35   S    
C178  H113  S    
C41   C51   A    
H55   N6    S    
C98   C168  S    
C44   C48   A    
C97   C157  S    
H59   N8    S    
C25   C31   A    
C15   C18   A    
C57   H64   S    
O37   Zn9   S    
C79   C115  A    
C33   H132  S    
C93   C197  S    
C191  H87   S    
C28   C189  S    
O38   Zn10  S    
C98   H37   S    
C64   C102  S    
C73   H3    S    
C63   C100  S    
C187  H89   S    
C32   C36   A    
C35   H62   S    
H56   N7    S    
C77   H7    S    
C40   H134  S    
C137  C181  S    
C142  O15   A    
C118  C122  A    
C153  C158  A    
C13   H57   S    
C99   H38   S    
C64   C110  S    
C24   H61   S    
C29   C191  S    
C135  O13   A    
C145  C150  A    
C65   H120  S    
H44   N1    S    
C196  O37   A    
C198  O41   A    
C189  H91   S    
O40   Zn12  S    
C14   C17   A    
C157  N2    S    
C64   H109  S    
O39   Zn11  S    
C7    O7    A    
C54   C59   A    
C132  H80   S    
C139  C148  A    
C8    C19   A    
C30   C34   A    
C131  C136  A    
C134  C139  A    
C27   C106  S    
C46   H63   S    
C116  C120  A    
C108  C179  S    
C80   C95   S    
C5    O4    A    
C63   C109  S    
C135  O34   A    
C147  C151  A    
C128  H75   S    
O6    Zn2   S    
C25   C38   A    
C144  O21   A    
C157  H40   S    
C8    C12   A    
C11   H118  S    
H50   N4    S    
O18   Zn6   S    
C31   C34   A    
C64   H22   S    
C123  C190  A    
C55   C69   A    
C52   C67   A    
C39   H133  S    
C6    C67   S    
C115  C119  A    
O8    Zn4   S    
C31   H129  S    
C193  O32   A    
C143  O20   A    
C65   C103  S    
C71   C77   A    
C174  C178  A    
C107  C111  S    
C148  C152  A    
C116  H68   S    
C199  O43   A    
C109  H26   S    
C175  C180  A    
C106  C157  S    
C57   C101  A    
H52   N5    S    
C4    C126  S    
C188  H65   S    
C48   C185  S    
C61   C81   S    
C28   H139  S    
C32   H130  S    
C85   C95   A    
O34   Zn5   S    
O4    Zn3   S    
C74   H4    S    
C185  O24   A    
H60   N8    S    
C35   C79   A    
C159  C163  A    
C89   C93   A    
O27   Zn8   S    
C53   C67   A    
C161  C165  A    
C3    O45   A    
C147  H85   S    
C2    C125  A    
C180  C184  A    
C40   C44   A    
C179  N4    S    
C12   H119  S    
C169  C173  A    
O17   Zn5   S    
H51   N4    S    
C102  C142  S    
C114  H24   S    
C87   C92   A    
C161  H100  S    
C140  C149  A    
C107  C194  S    
C172  C176  A    
C71   C81   A    
O26   Zn11  S    
C83   C87   A    
O13   Zn7   S    
C63   H21   S    
C114  H29   S    
C192  O31   A    
C134  H82   S    
C111  H28   S    
C160  C164  A    
C137  C145  A    
C160  H99   S    
C26   H137  S    
H53   N5    S    
C86   C91   A    
C10   H117  S    
C98   C103  S    
C185  O22   A    
O30   Zn11  S    
O14   Zn1   S    
C108  C114  S    
O28   Zn9   S    
C105  C109  S    
C197  O38   A    
C162  C166  A    
C163  H102  S    
C29   H20   S    
C12   C17   A    
C41   H135  S    
C176  H111  S    
C103  C189  S    
C135  C171  S    
C194  O29   A    
O23   Zn5   S    
C68   H66   S    
C178  C183  A    
C68   C113  A    
C99   C104  S    
C62   C82   S    
C133  C138  A    
O15   Zn1   S    
C55   C60   A    
C26   H17   S    
O31   Zn9   S    
C191  H92   S    
C115  H67   S    
C153  H96   S    
C176  C181  A    
H45   N2    S    
C196  O36   A    
C173  H107  S    
C174  H108  S    
C100  C187  S    
C72   C74   A    
C129  C155  A    
C85   C89   A    
C101  C156  S    
C97   H36   S    
C1    O1    A    
C161  C183  A    
C9    C14   A    
C99   C179  S    
C91   H16   S    
C146  N1    S    
C66   C104  S    
C91   C93   A    
C11   C16   A    
C168  H41   S    
C45   C49   A    
C55   H149  S    
C5    C127  S    
C84   C94   A    
C143  O16   A    
C194  O33   A    
C88   H14   S    
C13   C126  A    
C56   N5    S    
C28   H19   S    
O46   Zn3   S    
C8    H115  S    
C149  H88   S    
C71   H151  S    
C73   C82   A    
C65   H23   S    
C96   C146  S    
O33   Zn11  S    
C77   C80   A    
C165  C170  A    
C107  C168  S    
C66   C114  S    
C84   H9    S    
C150  H93   S    
O35   Zn10  S    
C53   H147  S    
C144  O17   A    
C167  C172  A    
C25   H127  S    
C23   C38   A    
C187  H1    S    
C22   H125  S    
C110  H27   S    
C101  C117  A    
C100  C141  S    
C2    H46   S    
C165  H104  S    
C22   C37   A    
C54   C69   A    
C175  H110  S    
C40   C50   A    
C27   C188  S    
C4    O3    A    
C121  H73   S    
C24   C68   A    
C186  O25   A    
O32   Zn8   S    
C13   C57   A    
C146  H39   S    
C74   C78   A    
C96   H34   S    
C56   C61   A    
C6    O6    A    
C15   H122  S    
O7    Zn3   S    
C90   C116  A    
C54   H148  S    
C151  H94   S    
C195  O35   A    
C85   H10   S    
C47   C49   A    
C16   H123  S    
C2    C46   A    
C162  C184  A    
C141  O18   A    
H48   N3    S    
C1    O9    A    
C124  O23   A    
C10   C15   A    
C28   C107  S    
C96   C100  S    
C122  C127  A    
C195  O30   A    
C70   C81   A    
C136  H83   S    
C117  C121  A    
C65   C111  S    
C27   H138  S    
O10   Zn6   S    
O42   Zn3   S    
C88   C92   A    
C46   C90   A    
C97   C102  S    
C104  C144  S    
C129  H77   S    
C96   H30   S    
C113  C158  S    
C4    O46   A    
C43   C48   A    
C5    O47   A    
C192  O27   A    
C42   C51   A    
C89   H15   S    
C59   N7    S    
C168  N3    S    
C166  C171  A    
C105  C192  S    
C164  C169  A    
C128  C132  A    
C160  C182  A    
C106  C193  S    
H49   N3    S    
C21   C32   A    
C34   C50   S    
C72   H152  S    
C23   C30   A    
C123  C200  S    
C164  H103  S    
C83   C94   A    
C39   C43   A    
C60   N8    S    
C171  C175  A    
C102  C188  S    
O11   Zn7   S    
C43   H141  S    
C130  H78   S    
C163  C167  A    
C20   C199  S    
C83   H8    S    
C104  C191  S    
C26   C187  S    
C52   H146  S    
C173  C177  A    
C138  C147  A    
C39   C50   A    
C112  O10   A    
C17   C37   S    
O47   Zn4   S    
O12   Zn1   S    
C36   C51   S    
C70   H150  S    
C189  H76   S    
O2    Zn12  S    
C70   C76   A    
C129  C133  A    
C76   C80   A    
O41   Zn2   S    
C139  C183  S    
C7    O8    A    
C109  H142  S    
C106  C110  S    
C131  H79   S    
C22   C33   A    
C59   C62   A    
C152  H95   S    
C7    C69   S    
C188  H90   S    
C3    C125  S    
C58   N6    S    
C44   H143  S    
C159  H97   S    
C121  C126  A    
C162  H101  S    
O36   Zn8   S    
C79   C154  S    
C23   H126  S    
C97   H31   S    
C180  H114  S    
C133  H81   S    
C42   C47   A    
C3    O2    A    
C75   C78   A    
C179  H42   S    
C113  C118  A    
C45   H144  S    
C124  C170  S    
C29   H140  S    
C16   C18   A    
C150  C154  A    
C172  H106  S    
C166  H105  S    
C142  O19   A    
C118  H70   S    
C90   C155  S    
C145  H84   S    
C72   C82   A    
C52   C56   A    
