data_mof_unit_61260.cif
_audit_creation_date              2013-03-05T16:25:37-0500
_audit_creation_method            fapswitch 2.2
_symmetry_space_group_name_H-M    P1
_symmetry_Int_Tables_number       1
_space_group_crystal_system       triclinic
_cell_length_a                    18.383377
_cell_length_b                    18.384323
_cell_length_c                    38.863908
_cell_angle_alpha                 90.000076
_cell_angle_beta                  90.000033
_cell_angle_gamma                 89.99948
_cell_volume                      13134.677222

loop_
_atom_site_label
_atom_site_type_symbol
_atom_site_description
_atom_site_fract_x
_atom_site_fract_y
_atom_site_fract_z
_atom_type_partial_charge
O1    O     O_R   0.561130 0.105710 0.500120 -0.568529
O2    O     O_R   0.894290 0.561130 0.500120 -0.568550
O3    O     O_R   0.438870 0.894290 0.500120 -0.568528
O4    O     O_R   0.105710 0.438870 0.500120 -0.568555
O5    O     O_R   0.561130 0.894290 0.499880 -0.568511
O6    O     O_R   0.894290 0.438870 0.499880 -0.568825
O7    O     O_R   0.438870 0.105710 0.499880 -0.568512
O8    O     O_R   0.105710 0.561130 0.499880 -0.568817
O9    O     O_R   0.061130 0.605710 0.000120 -0.568429
O10   O     O_R   0.394290 0.061130 0.000120 -0.568593
O11   O     O_R   0.938870 0.394290 0.000120 -0.568423
O12   O     O_R   0.605710 0.938870 0.000120 -0.568594
O13   O     O_R   0.061130 0.394290 0.999880 -0.568531
O14   O     O_R   0.394290 0.938870 0.999880 -0.568578
O15   O     O_R   0.938870 0.605710 0.999880 -0.568527
O16   O     O_R   0.605710 0.061130 0.999880 -0.568577
C1    C     C_R   0.500000 0.139774 0.500000 0.877247
C2    C     C_R   0.860227 0.500000 0.500004 0.886257
C3    C     C_R   0.500000 0.860226 0.500000 0.877249
C4    C     C_R   0.139773 0.499999 0.500004 0.886261
C5    C     C_R   1.000000 0.639774 0.000000 0.877039
C6    C     C_R   0.360227 0.000000 0.999999 0.885491
C7    C     C_R   0.000000 0.360226 0.000000 0.877045
C8    C     C_R   0.639773 1.000000 0.999999 0.885491
O17   O     O_R   0.561130 0.999920 0.450200 -0.550016
O18   O     O_R   0.000080 0.561130 0.450200 -0.553687
O19   O     O_R   0.438870 0.000080 0.450200 -0.550015
O20   O     O_R   0.999920 0.438870 0.450200 -0.553690
O21   O     O_R   0.561130 0.000080 0.549800 -0.550025
O22   O     O_R   0.000080 0.438870 0.549800 -0.553201
O23   O     O_R   0.438870 0.999920 0.549800 -0.550024
O24   O     O_R   0.999920 0.561130 0.549800 -0.553203
O25   O     O_R   0.061130 0.499920 0.950200 -0.550011
O26   O     O_R   0.500080 0.061130 0.950200 -0.553158
O27   O     O_R   0.938870 0.500080 0.950200 -0.550012
O28   O     O_R   0.499920 0.938870 0.950200 -0.553158
O29   O     O_R   0.061130 0.500080 0.049800 -0.549840
O30   O     O_R   0.500080 0.938870 0.049800 -0.553210
O31   O     O_R   0.938870 0.499920 0.049800 -0.549839
O32   O     O_R   0.499920 0.061130 0.049800 -0.553212
C9    C     C_R   0.500000 0.000000 0.433747 0.898965
C10   C     C_R   0.000000 0.500000 0.433753 0.907766
C11   C     C_R   0.500000 1.000000 0.566253 0.898985
C12   C     C_R   1.000000 0.500000 0.566251 0.906162
C13   C     C_R   1.000000 0.500000 0.933747 0.898985
C14   C     C_R   0.500000 1.000000 0.933749 0.906234
C15   C     C_R   0.000000 0.499999 0.066257 0.898637
C16   C     C_R   0.500000 1.000000 0.066250 0.906428
Cu1   Cu    Cu3+1 0.572410 1.000000 0.500000 1.127462
Cu2   Cu    Cu3+1 1.000000 0.572410 0.500000 1.121550
Cu3   Cu    Cu3+1 0.427590 1.000000 0.500000 1.127462
Cu4   Cu    Cu3+1 1.000000 0.427590 0.500000 1.121552
Cu5   Cu    Cu3+1 0.072410 0.500000 0.000000 1.127638
Cu6   Cu    Cu3+1 0.500000 0.072410 0.000000 1.121943
Cu7   Cu    Cu3+1 0.927590 0.500000 0.000000 1.127642
Cu8   Cu    Cu3+1 0.500000 0.927590 0.000000 1.121944
C17   C     C_1   0.499999 0.217189 0.500000 -0.074807
C18   C     C_1   0.782811 0.500001 0.500003 -0.072077
C19   C     C_1   0.500001 0.782811 0.500000 -0.074805
C20   C     C_1   0.217189 0.499999 0.500003 -0.072087
C21   C     C_1   0.999999 0.717189 0.000000 -0.075022
C22   C     C_1   0.282811 0.000001 1.000000 -0.072669
C23   C     C_1   0.000001 0.282811 0.000000 -0.075014
C24   C     C_1   0.717189 0.999999 1.000000 -0.072669
C25   C     C_1   0.499999 0.282402 0.500000 -0.123984
C26   C     C_1   0.717597 0.500001 0.500001 -0.123878
C27   C     C_1   0.500000 0.717597 0.500000 -0.123983
C28   C     C_1   0.282403 0.499999 0.500001 -0.123886
C29   C     C_1   0.999999 0.782402 0.000000 -0.124098
C30   C     C_1   0.217597 0.000000 1.000000 -0.124060
C31   C     C_1   0.000000 0.217598 0.000000 -0.124098
C32   C     C_1   0.782403 0.999999 1.000000 -0.124059
C33   C     C_R   0.453290 0.047237 0.377414 0.280699
C34   C     C_R   0.950947 0.455107 0.377452 0.273371
C35   C     C_R   0.546710 0.952763 0.377414 0.280701
C36   C     C_R   0.049062 0.544879 0.377450 0.273328
C37   C     C_R   0.453309 0.952745 0.622584 0.280679
C38   C     C_R   0.951551 0.545535 0.622568 0.273432
C39   C     C_R   0.546691 0.047254 0.622584 0.280680
C40   C     C_R   0.048448 0.454466 0.622568 0.273432
C41   C     C_R   0.953312 0.547258 0.877416 0.280670
C42   C     C_R   0.451542 0.954476 0.877433 0.273421
C43   C     C_R   0.046688 0.452742 0.877416 0.280670
C44   C     C_R   0.548458 0.045523 0.877433 0.273419
C45   C     C_R   0.953082 0.452960 0.122599 0.280893
C46   C     C_R   0.451479 0.045457 0.122566 0.273391
C47   C     C_R   0.046920 0.547021 0.122602 0.280890
C48   C     C_R   0.548521 0.954543 0.122565 0.273393
C49   C     C_R   0.452779 0.047375 0.341036 0.030243
C50   C     C_R   0.950362 0.455065 0.341034 0.029110
C51   C     C_R   0.547222 0.952625 0.341036 0.030238
C52   C     C_R   0.049660 0.544897 0.341031 0.029117
C53   C     C_R   0.452800 0.952603 0.658962 0.030261
C54   C     C_R   0.950987 0.545599 0.658984 0.028939
C55   C     C_R   0.547200 0.047395 0.658962 0.030260
C56   C     C_R   0.049012 0.454401 0.658984 0.028940
C57   C     C_R   0.952803 0.547400 0.841038 0.030265
C58   C     C_R   0.450977 0.954412 0.841016 0.028951
C59   C     C_R   0.047196 0.452600 0.841038 0.030265
C60   C     C_R   0.549024 0.045586 0.841016 0.028951
C61   C     C_R   0.952548 0.452849 0.158979 0.030134
C62   C     C_R   0.450910 0.045516 0.158983 0.028960
C63   C     C_R   0.047457 0.547120 0.158981 0.030141
C64   C     C_R   0.549090 0.954484 0.158983 0.028960
C65   C     C_R   0.500001 1.000000 0.322886 -0.063430
C66   C     C_R   0.000012 0.499976 0.322869 -0.061905
C67   C     C_R   0.500000 0.999999 0.677112 -0.063387
C68   C     C_R   1.000000 0.500000 0.677148 -0.061783
C69   C     C_R   1.000000 0.500000 0.822888 -0.063377
C70   C     C_R   0.500001 0.999999 0.822852 -0.061776
C71   C     C_R   0.000004 0.499981 0.177129 -0.063709
C72   C     C_R   0.500000 1.000000 0.177146 -0.061788
O33   O     O_R   0.394020 0.499870 0.471240 -0.574008
O34   O     O_R   0.500130 0.394020 0.471240 -0.574399
O35   O     O_R   0.605980 0.500130 0.471240 -0.574001
O36   O     O_R   0.499870 0.605980 0.471240 -0.574398
O37   O     O_R   0.394020 0.500130 0.528760 -0.574279
O38   O     O_R   0.500130 0.605980 0.528760 -0.574428
O39   O     O_R   0.605980 0.499870 0.528760 -0.574282
O40   O     O_R   0.499870 0.394020 0.528760 -0.574428
O41   O     O_R   0.894020 0.999870 0.971240 -0.574189
O42   O     O_R   0.000130 0.894020 0.971240 -0.574373
O43   O     O_R   0.105980 0.000130 0.971240 -0.574188
O44   O     O_R   0.999870 0.105980 0.971240 -0.574373
O45   O     O_R   0.894020 0.000130 0.028760 -0.574195
O46   O     O_R   0.000130 0.105980 0.028760 -0.574512
O47   O     O_R   0.105980 0.999870 0.028760 -0.574196
O48   O     O_R   0.999870 0.894020 0.028760 -0.574511
C73   C     C_R   0.359832 0.500000 0.500000 0.837826
C74   C     C_R   0.500000 0.359832 0.500000 0.837836
C75   C     C_R   0.640168 0.500000 0.500000 0.837826
C76   C     C_R   0.500000 0.640168 0.500000 0.837836
C77   C     C_R   0.859832 1.000000 1.000000 0.837894
C78   C     C_R   1.000000 0.859832 1.000000 0.837883
C79   C     C_R   0.140168 0.000000 0.000000 0.837894
C80   C     C_R   0.000000 0.140168 0.000000 0.837882
C81   C     C_R   0.500000 1.000000 0.395587 -0.296319
C82   C     C_R   0.000002 0.499997 0.395595 -0.297116
C83   C     C_R   0.500000 1.000000 0.604412 -0.296289
C84   C     C_R   1.000000 0.500000 0.604417 -0.297347
C85   C     C_R   1.000000 0.500000 0.895588 -0.296284
C86   C     C_R   0.500000 1.000000 0.895583 -0.297373
C87   C     C_R   0.000000 0.499994 0.104423 -0.296589
C88   C     C_R   0.500000 0.000000 0.104415 -0.297361
N1    N     N_R   0.552618 0.035773 0.267187 -0.240716
N2    N     N_R   0.052038 0.463348 0.267099 -0.243856
N3    N     N_R   0.447383 0.964226 0.267187 -0.240713
N4    N     N_R   0.947976 0.536598 0.267101 -0.243843
N5    N     N_R   0.552687 0.964327 0.732812 -0.240746
N6    N     N_R   0.052706 0.535637 0.732914 -0.243961
N7    N     N_R   0.447313 0.035671 0.732812 -0.240747
N8    N     N_R   0.947294 0.464364 0.732914 -0.243962
N9    N     N_R   0.052692 0.535662 0.767189 -0.240750
N10   N     N_R   0.552701 0.964352 0.767086 -0.243959
N11   N     N_R   0.947307 0.464338 0.767188 -0.240750
N12   N     N_R   0.447300 0.035645 0.767086 -0.243958
N13   N     N_R   0.052020 0.463322 0.232824 -0.240344
N14   N     N_R   0.552632 0.035747 0.232913 -0.243970
N15   N     N_R   0.947990 0.536627 0.232826 -0.240357
N16   N     N_R   0.447369 0.964252 0.232913 -0.243968
C89   C     C_R   0.500000 1.000000 0.215189 0.442289
C90   C     C_R   0.000004 0.499976 0.215125 0.436958
C91   C     C_R   0.500000 0.999999 0.784810 0.442310
C92   C     C_R   1.000000 0.500000 0.784890 0.437717
C93   C     C_R   1.000000 0.500000 0.715191 0.442317
C94   C     C_R   0.500000 0.999999 0.715110 0.437707
C95   C     C_R   0.000008 0.499973 0.284824 0.442001
C96   C     C_R   0.500001 1.000000 0.284889 0.437633
Cu9   Cu    Cu3+1 0.500000 0.500000 0.465910 1.037510
Cu10  Cu    Cu3+1 0.500000 0.500000 0.534090 1.037185
Cu11  Cu    Cu3+1 0.000000 1.000000 0.965910 1.037253
Cu12  Cu    Cu3+1 1.000000 1.000000 0.034090 1.037060
N17   N     N_R   0.408611 0.097658 0.396028 0.127882
O49   O     O_R   0.438573 0.150370 0.413284 -0.374591
O50   O     O_R   0.339292 0.085337 0.399388 -0.332798
N18   N     N_R   0.900105 0.411001 0.396196 0.126677
O51   O     O_R   0.851787 0.441362 0.415998 -0.377266
O52   O     O_R   0.904111 0.340429 0.394707 -0.332839
N19   N     N_R   0.591389 0.902342 0.396028 0.127883
O53   O     O_R   0.561426 0.849630 0.413285 -0.374592
O54   O     O_R   0.660707 0.914662 0.399388 -0.332796
N20   N     N_R   0.099890 0.589007 0.396191 0.126704
O55   O     O_R   0.148182 0.558669 0.416015 -0.377269
O56   O     O_R   0.095915 0.659577 0.394667 -0.332849
N21   N     N_R   0.408651 0.902308 0.603970 0.127846
O57   O     O_R   0.438635 0.849598 0.586719 -0.374603
O58   O     O_R   0.339330 0.914608 0.600604 -0.332786
N22   N     N_R   0.901292 0.590316 0.603835 0.126984
O59   O     O_R   0.852452 0.560604 0.584101 -0.376556
O60   O     O_R   0.906340 0.660824 0.605274 -0.332670
N23   N     N_R   0.591349 0.097692 0.603970 0.127846
O61   O     O_R   0.561365 0.150401 0.586719 -0.374603
O62   O     O_R   0.660670 0.085392 0.600604 -0.332786
N24   N     N_R   0.098706 0.409683 0.603835 0.126983
O63   O     O_R   0.147551 0.439395 0.584104 -0.376555
O64   O     O_R   0.093654 0.339175 0.605272 -0.332668
N25   N     N_R   0.908657 0.597699 0.896031 0.127842
O65   O     O_R   0.938644 0.650407 0.913281 -0.374565
O66   O     O_R   0.839335 0.585404 0.899397 -0.332748
N26   N     N_R   0.401275 0.909704 0.896165 0.126975
O67   O     O_R   0.352443 0.939426 0.915900 -0.376469
O68   O     O_R   0.406308 0.839195 0.894725 -0.332636
N27   N     N_R   0.091343 0.402301 0.896030 0.127842
O69   O     O_R   0.061355 0.349593 0.913280 -0.374565
O70   O     O_R   0.160665 0.414596 0.899397 -0.332748
N28   N     N_R   0.598725 0.090296 0.896166 0.126977
O71   O     O_R   0.647556 0.060575 0.915902 -0.376469
O72   O     O_R   0.593694 0.160805 0.894723 -0.332638
N29   N     N_R   0.908170 0.402732 0.103993 0.128145
O73   O     O_R   0.937898 0.349949 0.086693 -0.374671
O74   O     O_R   0.838892 0.415322 0.100669 -0.332730
N30   N     N_R   0.401154 0.090163 0.103831 0.126955
O75   O     O_R   0.352394 0.060381 0.084078 -0.376564
O76   O     O_R   0.406054 0.160680 0.105294 -0.332671
N31   N     N_R   0.091831 0.597256 0.103999 0.128144
O77   O     O_R   0.062100 0.650044 0.086704 -0.374655
O78   O     O_R   0.161108 0.584667 0.100672 -0.332733
N32   N     N_R   0.598846 0.909837 0.103831 0.126953
O79   O     O_R   0.647608 0.939620 0.084079 -0.376564
O80   O     O_R   0.593941 0.839321 0.105291 -0.332668
C97   C     C_3   0.404854 0.101255 0.321770 -0.353165
C98   C     C_3   0.445574 0.172128 0.314990 -0.759151
H1    H     H_    0.462273 0.197621 0.339667 0.280094
H2    H     H_    0.494642 0.161900 0.299058 0.258223
H3    H     H_    0.409573 0.210512 0.300969 0.242023
H4    H     H_    0.385636 0.078392 0.296973 0.208342
H5    H     H_    0.354492 0.113517 0.336339 0.251493
C99   C     C_3   0.895756 0.408002 0.321674 -0.346686
C100  C     C_3   0.930346 0.337207 0.309221 -0.736757
H6    H     H_    0.974312 0.348235 0.290403 0.252611
H7    H     H_    0.953285 0.306310 0.331234 0.284948
H8    H     H_    0.888437 0.303127 0.296437 0.239281
H9    H     H_    0.848007 0.394528 0.337933 0.246465
H10   H     H_    0.872672 0.437913 0.299424 0.206317
C101  C     C_3   0.595146 0.898744 0.321770 -0.353163
C102  C     C_3   0.554426 0.827868 0.314993 -0.759131
H11   H     H_    0.537731 0.802378 0.339672 0.280096
H12   H     H_    0.505354 0.838094 0.299063 0.258219
H13   H     H_    0.590427 0.789484 0.300972 0.242023
H14   H     H_    0.614361 0.921604 0.296973 0.208340
H15   H     H_    0.645511 0.886485 0.336338 0.251491
C103  C     C_3   0.104285 0.591931 0.321667 -0.346649
C104  C     C_3   0.069719 0.662721 0.309192 -0.736711
H16   H     H_    0.025781 0.651684 0.290361 0.252591
H17   H     H_    0.046750 0.693636 0.331192 0.284951
H18   H     H_    0.111650 0.696789 0.296416 0.239271
H19   H     H_    0.152029 0.605412 0.337929 0.246463
H20   H     H_    0.127379 0.561991 0.299428 0.206305
C105  C     C_3   0.404906 0.898695 0.678229 -0.353157
C106  C     C_3   0.445700 0.827880 0.685049 -0.759271
H21   H     H_    0.462482 0.802377 0.660387 0.280049
H22   H     H_    0.494723 0.838187 0.701001 0.258236
H23   H     H_    0.409716 0.789471 0.699064 0.242041
H24   H     H_    0.385615 0.921579 0.703008 0.208394
H25   H     H_    0.354586 0.886343 0.663645 0.251507
C107  C     C_3   0.897107 0.593481 0.678347 -0.346742
C108  C     C_3   0.932791 0.663706 0.690822 -0.737052
H26   H     H_    0.976552 0.651971 0.709650 0.252532
H27   H     H_    0.956235 0.694245 0.668816 0.284869
H28   H     H_    0.891413 0.698432 0.703601 0.239378
H29   H     H_    0.849591 0.607729 0.662086 0.246559
H30   H     H_    0.873534 0.563917 0.700584 0.206519
C109  C     C_3   0.595094 0.101303 0.678229 -0.353156
C110  C     C_3   0.554301 0.172118 0.685049 -0.759270
H31   H     H_    0.537518 0.197621 0.660387 0.280049
H32   H     H_    0.505279 0.161812 0.701002 0.258235
H33   H     H_    0.590285 0.210528 0.699063 0.242041
H34   H     H_    0.614385 0.078419 0.703008 0.208393
H35   H     H_    0.645416 0.113654 0.663645 0.251507
C111  C     C_3   0.102892 0.406519 0.678347 -0.346743
C112  C     C_3   0.067207 0.336294 0.690822 -0.737055
H36   H     H_    0.023446 0.348029 0.709650 0.252532
H37   H     H_    0.043763 0.305755 0.668816 0.284870
H38   H     H_    0.108585 0.301568 0.703601 0.239378
H39   H     H_    0.150407 0.392271 0.662086 0.246559
H40   H     H_    0.126465 0.436083 0.700584 0.206520
C113  C     C_3   0.904914 0.601313 0.821771 -0.353157
C114  C     C_3   0.945716 0.672119 0.814946 -0.759284
H41   H     H_    0.962509 0.697623 0.839606 0.280047
H42   H     H_    0.994733 0.661802 0.798991 0.258238
H43   H     H_    0.909735 0.710532 0.800932 0.242045
H44   H     H_    0.885613 0.578427 0.796994 0.208400
H45   H     H_    0.854599 0.613678 0.836357 0.251515
C115  C     C_3   0.397084 0.906544 0.821653 -0.346743
C116  C     C_3   0.432752 0.836310 0.809177 -0.737031
H46   H     H_    0.476513 0.848036 0.790348 0.252527
H47   H     H_    0.456192 0.805764 0.831181 0.284875
H48   H     H_    0.391364 0.801595 0.796398 0.239377
H49   H     H_    0.349567 0.892307 0.837915 0.246559
H50   H     H_    0.373516 0.936116 0.799417 0.206519
C117  C     C_3   0.095086 0.398687 0.821771 -0.353157
C118  C     C_3   0.054283 0.327881 0.814945 -0.759283
H51   H     H_    0.037489 0.302377 0.839606 0.280047
H52   H     H_    0.005267 0.338199 0.798990 0.258238
H53   H     H_    0.090264 0.289468 0.800931 0.242045
H54   H     H_    0.114386 0.421574 0.796994 0.208400
H55   H     H_    0.145401 0.386322 0.836357 0.251515
C119  C     C_3   0.602917 0.093453 0.821653 -0.346742
C120  C     C_3   0.567250 0.163687 0.809176 -0.737028
H56   H     H_    0.523490 0.151960 0.790346 0.252527
H57   H     H_    0.543809 0.194233 0.831180 0.284875
H58   H     H_    0.608639 0.198402 0.796398 0.239377
H59   H     H_    0.650435 0.107690 0.837915 0.246559
H60   H     H_    0.626485 0.063880 0.799417 0.206518
C121  C     C_3   0.904292 0.399266 0.178244 -0.353291
C122  C     C_3   0.944332 0.327874 0.184713 -0.758082
H61   H     H_    0.960373 0.302447 0.159923 0.280349
H62   H     H_    0.993758 0.337411 0.200497 0.258205
H63   H     H_    0.908128 0.289740 0.198770 0.241885
H64   H     H_    0.885664 0.422004 0.203168 0.207924
H65   H     H_    0.853597 0.387786 0.163787 0.251317
C123  C     C_3   0.396937 0.093292 0.178346 -0.346716
C124  C     C_3   0.432486 0.163582 0.190826 -0.737029
H66   H     H_    0.476260 0.151925 0.209658 0.252525
H67   H     H_    0.455882 0.194168 0.168824 0.284883
H68   H     H_    0.391037 0.198228 0.203603 0.239370
H69   H     H_    0.349396 0.107451 0.162084 0.246556
H70   H     H_    0.373418 0.063676 0.200581 0.206497
C125  C     C_3   0.095716 0.600696 0.178250 -0.353292
C126  C     C_3   0.055672 0.672080 0.184733 -0.758111
H71   H     H_    0.039614 0.697518 0.159949 0.280344
H72   H     H_    0.006255 0.662528 0.200523 0.258209
H73   H     H_    0.091879 0.710209 0.198791 0.241886
H74   H     H_    0.114357 0.577943 0.203169 0.207927
H75   H     H_    0.146403 0.612191 0.163791 0.251322
C127  C     C_3   0.603063 0.906708 0.178346 -0.346723
C128  C     C_3   0.567514 0.836418 0.190825 -0.737030
H76   H     H_    0.523739 0.848073 0.209657 0.252527
H77   H     H_    0.544118 0.805832 0.168822 0.284884
H78   H     H_    0.608963 0.801771 0.203601 0.239371
H79   H     H_    0.650603 0.892549 0.162084 0.246555
H80   H     H_    0.626582 0.936322 0.200581 0.206499

loop_
_geom_bond_atom_site_label_1
_geom_bond_atom_site_label_2
_geom_bond_distance
_ccdc_geom_bond_type
N24   O64   1.300771 A    
C107  H30   1.109078 S    
C112  H38   1.110336 S    
O25   C13   1.292958 A    
C39   C83   1.410756 A    
C117  C118  1.525616 S    
N8    C93   1.357381 A    
N2    N13   1.332072 A    
N27   O70   1.300854 A    
C50   C99   1.523951 S    
C115  C116  1.527158 S    
O18   Cu2   1.946501 S    
C36   N20   1.435885 S    
O10   Cu6   1.954348 S    
C106  H22   1.110151 S    
C112  H36   1.108664 S    
C15   C87   1.483288 S    
C16   C88   1.483241 S    
N25   O66   1.300853 A    
N20   O55   1.301064 A    
O37   Cu10  1.959255 S    
C2    C18   1.423173 S    
Cu1   Cu3   2.662279 S    
Cu2   Cu4   2.662416 S    
O3    C3    1.286495 A    
C127  C128  1.527151 S    
C113  H44   1.109119 S    
C35   N19   1.434282 S    
C106  H23   1.110350 S    
C55   C109  1.522519 S    
C56   C68   1.418760 A    
O46   C80   1.282325 A    
N5    N10   1.332037 A    
C39   N23   1.434279 S    
O34   C74   1.282326 A    
O5    Cu1   1.954446 S    
C99   C100  1.527256 S    
N23   O61   1.300890 A    
C44   C60   1.415342 A    
C126  H73   1.110360 S    
O17   C9    1.292964 A    
N28   O71   1.301025 A    
O31   C15   1.293031 A    
N31   O77   1.300901 A    
C34   N18   1.435873 S    
C100  H6    1.108690 S    
C44   C86   1.411250 A    
C62   C123  1.523891 S    
C122  H61   1.110695 S    
C47   C63   1.413877 A    
C52   C66   1.418897 A    
C23   C31   1.198899 T    
C105  H25   1.108403 S    
C119  C120  1.527156 S    
O27   C13   1.292957 A    
O8    Cu2   1.954342 S    
C128  H77   1.110119 S    
O32   C16   1.292960 A    
O47   C79   1.282306 A    
C45   N29   1.434318 S    
C97   H5    1.108406 S    
C43   C85   1.410753 A    
C34   C50   1.415387 A    
C118  H52   1.110146 S    
C116  H47   1.110121 S    
O9    C5    1.286495 A    
C32   C77   1.423408 S    
C33   C81   1.410769 A    
C38   C54   1.415338 A    
O11   C7    1.286495 A    
C58   C115  1.523904 S    
O16   Cu6   1.954342 S    
O46   Cu12  1.959353 S    
C33   C49   1.413840 A    
O4    C4    1.286518 A    
C44   N28   1.435778 S    
N30   O75   1.301016 A    
N26   O68   1.300773 A    
N4    C95   1.357463 A    
O6    Cu4   1.954344 S    
N13   C90   1.357057 A    
C121  H64   1.109186 S    
O15   Cu7   1.954444 S    
N1    C96   1.357005 A    
N2    C95   1.357466 A    
C101  H14   1.109127 S    
C51   C65   1.417628 A    
C25   C74   1.423483 S    
N21   O57   1.300890 A    
O21   Cu1   1.946496 S    
C22   C30   1.198854 T    
C105  C106  1.525622 S    
O23   C11   1.292958 A    
C100  H8    1.110383 S    
C49   C97   1.522507 S    
N21   O58   1.300853 A    
C61   C121  1.522485 S    
C51   C101  1.522509 S    
C123  C124  1.527154 S    
O13   C7    1.286497 A    
N22   O60   1.300772 A    
C108  H26   1.108664 S    
C57   C113  1.522516 S    
O42   C78   1.282326 A    
O2    Cu2   1.954348 S    
C19   C27   1.198899 T    
C110  H31   1.110713 S    
O7    C1    1.286497 A    
O39   C75   1.282302 A    
O28   C14   1.292968 A    
O26   C14   1.292968 A    
O29   C15   1.293031 A    
O37   C73   1.282305 A    
O30   C16   1.292960 A    
C35   C51   1.413836 A    
O29   Cu5   1.946496 S    
N18   O52   1.300793 A    
C113  C114  1.525615 S    
N3    N16   1.332041 A    
C48   C64   1.415350 A    
O19   Cu3   1.946500 S    
N17   O50   1.300852 A    
C31   C80   1.423483 S    
C64   C72   1.418762 A    
C98   H3    1.110349 S    
C3    C19   1.423230 S    
C114  H43   1.110349 S    
C103  H20   1.109155 S    
N19   O53   1.300889 A    
O43   C79   1.282308 A    
C126  H72   1.110243 S    
C97   C98   1.525616 S    
O48   C78   1.282327 A    
C57   C69   1.417639 A    
N32   O80   1.300766 A    
O36   C76   1.282327 A    
C104  H18   1.110390 S    
N29   O73   1.300903 A    
C98   H2    1.110157 S    
C99   H9    1.109581 S    
O32   Cu6   1.946498 S    
C127  H80   1.109079 S    
C123  H70   1.109080 S    
C46   C62   1.415350 A    
O18   C10   1.292889 A    
C26   C75   1.423408 S    
O22   Cu4   1.946497 S    
C9    C81   1.483043 S    
C111  H39   1.109493 S    
O23   Cu3   1.946496 S    
O12   C8    1.286521 A    
O1    C1    1.286495 A    
C102  H13   1.110352 S    
C108  H28   1.110336 S    
C66   C95   1.478554 S    
O14   C6    1.286519 A    
C68   C93   1.478488 S    
C110  H33   1.110349 S    
C48   N32   1.435784 S    
C119  H59   1.109500 S    
N25   O65   1.300887 A    
C120  H58   1.110339 S    
N20   O56   1.300799 A    
O38   C76   1.282325 A    
C115  H50   1.109080 S    
C109  H35   1.108404 S    
O30   Cu8   1.946497 S    
C12   C84   1.483272 S    
O42   Cu11  1.959355 S    
C49   C65   1.417627 A    
C114  H41   1.110709 S    
O34   Cu9   1.959355 S    
C60   C70   1.418768 A    
C29   C78   1.423483 S    
C58   C70   1.418769 A    
C10   C82   1.482977 S    
C42   C58   1.415338 A    
C62   C72   1.418766 A    
C27   C76   1.423483 S    
C42   C86   1.411249 A    
C45   C87   1.410900 A    
C46   C88   1.411235 A    
C109  C110  1.525623 S    
C14   C86   1.483268 S    
O10   C6    1.286521 A    
C72   C89   1.478504 S    
C34   C82   1.411207 A    
C46   N30   1.435786 S    
C41   N25   1.434279 S    
N28   O72   1.300772 A    
C21   C29   1.198899 T    
C104  H16   1.108682 S    
C59   C69   1.417640 A    
C63   C71   1.417550 A    
N14   C89   1.357387 A    
O31   Cu7   1.946496 S    
C125  H75   1.108477 S    
N12   C91   1.357385 A    
N6    N9    1.332037 A    
C122  H62   1.110247 S    
C101  C102  1.525623 S    
C4    C20   1.423173 S    
C5    C21   1.423230 S    
C7    C23   1.423230 S    
N24   O63   1.301022 A    
C105  H24   1.109124 S    
C8    C24   1.423171 S    
C43   C59   1.413836 A    
C107  H29   1.109497 S    
O21   C11   1.292957 A    
C13   C85   1.483012 S    
O22   C12   1.292970 A    
C71   C90   1.476673 S    
O13   Cu5   1.954446 S    
C109  H34   1.109123 S    
C122  H63   1.110360 S    
C63   C125  1.522485 S    
O44   C80   1.282327 A    
C50   C66   1.418891 A    
C43   N27   1.434279 S    
C35   C81   1.410766 A    
O3    Cu3   1.954442 S    
O33   Cu9   1.959255 S    
C106  H21   1.110711 S    
C40   C84   1.411245 A    
C97   H4    1.109128 S    
N4    N15   1.332068 A    
C120  H56   1.108665 S    
N23   O62   1.300853 A    
C39   C55   1.413832 A    
C116  H46   1.108666 S    
O28   Cu8   1.946502 S    
N8    N11   1.332037 A    
C103  C104  1.527270 S    
N15   C90   1.357054 A    
N7    N12   1.332041 A    
C55   C67   1.417640 A    
N30   O76   1.300769 A    
C115  H49   1.109499 S    
C30   C79   1.423408 S    
O9    Cu5   1.954440 S    
C60   C119  1.523901 S    
O11   Cu7   1.954442 S    
C125  H74   1.109187 S    
C37   C83   1.410755 A    
C17   C25   1.198899 T    
C69   C92   1.476735 S    
C38   C84   1.411246 A    
C70   C91   1.478492 S    
C65   C96   1.476727 S    
O5    C3    1.286497 A    
C36   C82   1.411223 A    
C61   C71   1.417549 A    
C117  H54   1.109120 S    
O7    Cu3   1.954444 S    
C128  H76   1.108662 S    
C100  H7    1.110125 S    
C121  H65   1.108480 S    
C126  H71   1.110693 S    
N1    N14   1.332041 A    
O40   Cu10  1.959354 S    
C124  H66   1.108661 S    
O44   Cu11  1.959352 S    
C37   C53   1.413832 A    
C102  H12   1.110164 S    
O17   Cu1   1.946500 S    
C124  H67   1.110121 S    
N3    C96   1.357006 A    
C125  C126  1.525662 S    
C20   C28   1.198852 T    
C110  H32   1.110150 S    
C121  C122  1.525665 S    
C47   N31   1.434318 S    
C111  C112  1.527152 S    
O43   Cu11  1.959253 S    
C1    C17   1.423230 S    
O14   Cu8   1.954344 S    
Cu11  Cu12  2.649737 S    
O2    C2    1.286518 A    
C37   N21   1.434280 S    
Cu9   Cu10  2.649737 S    
O35   Cu9   1.959253 S    
O35   C75   1.282312 A    
N17   O49   1.300889 A    
C102  H11   1.110711 S    
C54   C68   1.418763 A    
O8    C4    1.286523 A    
O33   C73   1.282309 A    
O4    Cu4   1.954346 S    
O40   C74   1.282327 A    
C118  H51   1.110712 S    
C116  H48   1.110338 S    
N31   O78   1.300852 A    
O38   Cu10  1.959353 S    
C56   C111  1.523896 S    
O45   Cu12  1.959255 S    
C52   C103  1.523974 S    
C18   C26   1.198852 T    
C101  H15   1.108413 S    
N26   O67   1.301026 A    
C104  H17   1.110126 S    
C11   C83   1.483020 S    
C40   C56   1.415338 A    
C99   H10   1.109149 S    
C41   C85   1.410754 A    
C113  H45   1.108402 S    
C67   C94   1.476735 S    
O16   C8    1.286519 A    
C28   C73   1.423408 S    
C59   C117  1.522516 S    
C53   C105  1.522519 S    
Cu5   Cu7   2.662279 S    
O25   Cu5   1.946500 S    
O6    C2    1.286523 A    
Cu6   Cu8   2.662416 S    
N9    C92   1.357007 A    
O27   Cu7   1.946500 S    
C111  H40   1.109077 S    
N10   C91   1.357385 A    
C124  H68   1.110334 S    
O47   Cu12  1.959253 S    
N6    C93   1.357383 A    
N22   O59   1.301025 A    
C108  H27   1.110123 S    
C42   N26   1.435776 S    
C54   C107  1.523896 S    
C6    C22   1.423171 S    
O19   C9    1.292963 A    
C107  C108  1.527150 S    
O24   C12   1.292970 A    
C119  H60   1.109078 S    
C120  H57   1.110122 S    
O24   Cu2   1.946498 S    
O12   Cu8   1.954346 S    
C36   C52   1.415404 A    
N18   O51   1.301078 A    
O41   Cu11  1.959255 S    
C64   C127  1.523890 S    
O48   Cu12  1.959354 S    
C114  H42   1.110147 S    
C38   N22   1.435774 S    
C45   C61   1.413877 A    
O45   C77   1.282308 A    
C112  H37   1.110120 S    
C118  H53   1.110350 S    
N5    C94   1.357010 A    
C128  H78   1.110334 S    
O26   Cu6   1.946501 S    
N11   C92   1.357005 A    
N7    C94   1.357007 A    
C40   N24   1.435774 S    
C103  H19   1.109583 S    
C47   C87   1.410902 A    
N16   C89   1.357387 A    
C53   C67   1.417639 A    
O20   Cu4   1.946502 S    
N32   O79   1.301015 A    
C41   C57   1.413836 A    
O20   C10   1.292886 A    
N29   O74   1.300854 A    
O36   Cu9   1.959352 S    
C24   C32   1.198854 T    
C33   N17   1.434281 S    
C98   H1    1.110707 S    
C117  H55   1.108400 S    
O39   Cu10  1.959253 S    
O15   C5    1.286497 A    
C127  H79   1.109494 S    
C123  H69   1.109496 S    
N27   O69   1.300886 A    
O41   C77   1.282306 A    
O1    Cu1   1.954440 S    
C48   C88   1.411233 A    
N19   O54   1.300852 A    
