data_mof_unit_44171.cif
_audit_creation_date              2012-10-26T21:11:02-0400
_audit_creation_method            fapswitch 2.2
_symmetry_space_group_name_H-M    P1
_symmetry_Int_Tables_number       1
_space_group_crystal_system       triclinic
_cell_length_a                    10.9257
_cell_length_b                    10.924023
_cell_length_c                    13.117212
_cell_angle_alpha                 91.168521
_cell_angle_beta                  91.341429
_cell_angle_gamma                 88.577632
_cell_volume                      1564.35455097

loop_
_atom_site_label
_atom_site_type_symbol
_atom_type_description
_atom_site_fract_x
_atom_site_fract_y
_atom_site_fract_z
_atom_type_partial_charge
Br1   Br    Br    0.296916 0.915698 0.125036 -0.513274
Br2   Br    Br    0.790513 0.340257 0.021158 -0.474753
Br3   Br    Br    0.179605 0.020949 0.352436 -0.487662
Br4   Br    Br    0.769691 0.117738 0.834042 -0.517849
Br5   Br    Br    0.842886 0.661055 0.321826 -0.457141
Br6   Br    Br    0.155730 0.334190 0.672708 -0.464437
C1    C     C_R   0.497617 0.259300 0.498484 0.568341
C2    C     C_R   0.473716 0.899989 0.776013 -0.085656
C3    C     C_R   0.525515 0.108325 0.301909 0.050263
C4    C     C_R   0.409216 0.886462 0.682794 0.046723
C5    C     C_R   0.629137 0.073393 0.245642 -0.085254
C6    C     C_R   0.301264 0.818795 0.678815 -0.040366
C7    C     C_R   0.636462 0.104304 0.143124 -0.046635
C8    C     C_R   0.260128 0.763372 0.766409 -0.079296
C9    C     C_R   0.540757 0.170535 0.095834 -0.051022
C10   C     C_R   0.325669 0.776064 0.858659 -0.071254
C11   C     C_R   0.508517 0.930417 0.410085 -0.105057
C12   C     C_R   0.491032 0.740306 0.500736 0.554354
C13   C     C_R   0.461468 0.069092 0.586030 -0.102456
C14   C     C_R   0.484357 0.872865 0.501263 0.000105
C15   C     C_R   0.489718 0.126940 0.495255 0.011028
C16   C     C_R   0.259740 0.495845 0.498826 0.584676
C17   C     C_R   0.740286 0.506221 0.501310 0.594972
C18   C     C_R   0.454357 0.942446 0.589195 -0.021727
C19   C     C_R   0.508731 0.056912 0.404630 -0.010193
C20   C     C_1   0.499905 0.500688 0.173575 0.161811
C21   C     C_1   0.499844 0.500266 0.826434 0.153703
C22   C     C_1   0.499596 0.501030 0.050686 -0.014875
C23   C     C_R   0.872955 0.508153 0.503130 -0.024213
C24   C     C_1   0.499603 0.500776 0.949310 -0.022941
C25   C     C_R   0.181452 0.851324 0.313544 0.211163
C26   C     C_R   0.815190 0.281161 0.804673 0.209678
C27   C     C_R   0.131317 0.769544 0.380385 -0.086469
C28   C     C_R   0.848462 0.307692 0.705069 -0.040781
C29   C     C_R   0.122021 0.645487 0.353224 0.034261
C30   C     C_R   0.886341 0.425469 0.682022 0.041686
C31   C     C_R   0.164724 0.602787 0.258701 -0.069331
C32   C     C_R   0.885725 0.517766 0.757859 -0.109865
C33   C     C_R   0.218067 0.683821 0.192682 -0.107226
C34   C     C_R   0.127282 0.495923 0.497010 -0.023654
C35   C     C_R   0.852463 0.491653 0.856842 -0.107256
C36   C     C_R   0.226383 0.808181 0.219462 0.215731
C37   C     C_R   0.819795 0.373169 0.881314 0.212936
C38   C     C_R   0.932790 0.565519 0.423638 0.138919
C39   C     C_R   0.067261 0.436838 0.575115 0.132637
C40   C     C_R   0.940886 0.451688 0.582905 -0.043298
C41   C     C_R   0.060461 0.563245 0.422842 -0.039935
C42   C     C_R   0.438196 0.207081 0.151283 -0.075262
C43   C     C_R   0.432210 0.844525 0.863514 -0.081168
C44   C     C_R   0.430214 0.175843 0.253634 -0.000863
Cu1   Cu    Cu3+1 0.499990 0.499990 0.592680 1.035588
Cu2   Cu    Cu3+1 0.500010 0.500010 0.407320 1.040865
H1    H     H_    0.702632 0.019256 0.280474 0.147014
H2    H     H_    0.915532 0.608886 0.741052 0.126923
H3    H     H_    0.251554 0.650153 0.120051 0.124852
H4    H     H_    0.855817 0.562871 0.915373 0.161039
H5    H     H_    0.545915 0.193378 0.016169 0.171325
H6    H     H_    0.294082 0.732568 0.926292 0.142924
H7    H     H_    0.363976 0.258196 0.114567 0.132725
H8    H     H_    0.482995 0.854113 0.934963 0.159981
H9    H     H_    0.348869 0.202804 0.294652 0.173902
H10   H     H_    0.556854 0.951803 0.780447 0.163244
H11   H     H_    0.249934 0.807978 0.607683 0.103039
H12   H     H_    0.715700 0.075475 0.099959 0.190625
H13   H     H_    0.177714 0.710220 0.762650 0.124521
H14   H     H_    0.525836 0.876192 0.341459 0.168665
H15   H     H_    0.441071 0.122989 0.654186 0.168204
H16   H     H_    0.096129 0.803148 0.452544 0.140049
H17   H     H_    0.849301 0.235963 0.646844 0.155293
H18   H     H_    0.156859 0.507206 0.236513 0.146545
N1    N     N_1   0.500030 0.500030 0.268070 -0.164923
N2    N     N_1   0.499970 0.499970 0.731930 -0.162942
O1    O     O_R   0.499980 0.319630 0.578260 -0.485411
O2    O     O_R   0.500020 0.680370 0.421740 -0.492472
O3    O     O_R   0.500000 0.319650 0.421740 -0.509068
O4    O     O_R   0.500000 0.680350 0.578260 -0.497874
O5    O     O_R   0.319630 0.500000 0.578260 -0.462859
O6    O     O_R   0.680370 0.500000 0.421740 -0.436470
O7    O     O_R   0.319650 0.500020 0.421740 -0.517270
O8    O     O_R   0.680350 0.499980 0.578260 -0.509857

loop_
_geom_bond_atom_site_label_1
_geom_bond_atom_site_label_2
_ccdc_geom_bond_type
C34   C41   A    
Br6   C39   S    
C9    H5    S    
Cu2   O3    S    
C29   C41   S    
C3    C19   S    
C1    O1    A    
C39   C40   A    
C7    H12   S    
C11   H14   S    
C43   H8    S    
C17   C23   S    
C29   C31   A    
C16   O7    A    
Cu2   O2    S    
C11   C14   A    
Cu1   O8    S    
C8    H13   S    
C33   H3    S    
C14   C18   A    
C25   C27   A    
C13   H15   S    
C17   O8    A    
Cu2   O7    S    
C12   C14   S    
C5    H1    S    
C38   C41   A    
C42   C44   A    
C12   O2    A    
C31   H18   S    
C21   C24   S    
C20   N1    T    
C35   C37   A    
C9    C42   A    
Cu2   O6    S    
C33   C36   A    
C34   C39   A    
Cu1   Cu2   S    
Cu1   O4    S    
C32   C35   A    
C6    H11   S    
C1    O3    A    
C4    C18   S    
C1    C15   S    
C26   C28   A    
Cu1   O5    S    
C35   H4    S    
C32   H2    S    
Br2   C37   S    
C16   C34   S    
C10   H6    S    
C10   C43   A    
Br3   C25   S    
C3    C5    A    
C28   H17   S    
Br4   C26   S    
C4    C6    A    
Br5   C38   S    
C6    C8    A    
C7    C9    A    
C23   C38   A    
C8    C10   A    
Cu1   N2    S    
C42   H7    S    
C15   C19   A    
C12   O4    A    
C13   C15   A    
C3    C44   A    
Cu1   O1    S    
C16   O5    A    
C20   C22   S    
C23   C40   A    
C11   C19   A    
C22   C24   T    
C13   C18   A    
C31   C33   A    
Cu2   N1    S    
C30   C40   S    
C5    C7    A    
C25   C36   A    
C30   C32   A    
C27   C29   A    
C26   C37   A    
C28   C30   A    
C17   O6    A    
Br1   C36   S    
C2    C4    A    
C44   H9    S    
C2    C43   A    
C21   N2    T    
C27   H16   S    
C2    H10   S    
