data_mof_unit_68005.cif
_audit_creation_date              2012-12-11T15:50:23-0500
_audit_creation_method            fapswitch 2.2
_symmetry_space_group_name_H-M    P1
_symmetry_Int_Tables_number       1
_space_group_crystal_system       triclinic
_cell_length_a                    19.141114
_cell_length_b                    11.017704
_cell_length_c                    18.465315
_cell_angle_alpha                 89.926174
_cell_angle_beta                  90.294155
_cell_angle_gamma                 90.014315
_cell_volume                      3894.11644609

loop_
_atom_site_label
_atom_site_type_symbol
_atom_type_description
_atom_site_fract_x
_atom_site_fract_y
_atom_site_fract_z
_atom_type_partial_charge
C1    C     C_R   0.291225 0.993800 0.860554 0.544391
C2    C     C_R   0.709282 0.994428 0.139344 0.550275
C3    C     C_R   0.789781 0.497738 0.861034 0.543548
C4    C     C_R   0.208854 0.494037 0.139463 0.545362
C5    C     C_3   0.526708 0.728458 0.964016 0.326371
C6    C     C_3   0.482036 0.726855 0.032423 0.325680
C7    C     C_3   0.010164 0.224524 0.971812 0.310810
C8    C     C_3   0.964373 0.236958 0.039480 0.315708
C9    C     C_R   0.218204 0.507691 0.061343 -0.005190
C10   C     C_R   0.778203 0.520348 0.937550 -0.003521
C11   C     C_R   0.716439 0.002022 0.060119 -0.008617
C12   C     C_R   0.282061 0.007362 0.938710 -0.004018
C13   C     C_R   0.281909 0.482327 0.028304 -0.011370
C14   C     C_R   0.715982 0.488531 0.971642 -0.006768
C15   C     C_R   0.768636 0.943091 0.019525 0.002887
C16   C     C_R   0.218891 0.980055 0.972189 -0.013711
C17   C     C_R   0.295205 0.515403 0.957079 0.017723
C18   C     C_R   0.704030 0.515910 0.043821 0.033172
C19   C     C_R   0.780833 0.976761 0.948503 -0.003592
C20   C     C_R   0.205214 0.013985 0.043128 0.009673
C21   C     C_R   0.175057 0.578262 0.945205 -0.176152
C22   C     C_R   0.822444 0.589318 0.052962 -0.172464
C23   C     C_R   0.673540 0.086000 0.946215 -0.174284
C24   C     C_R   0.324836 0.079843 0.054544 -0.176090
C25   C     C_R   0.164317 0.555837 0.018611 -0.172312
C26   C     C_R   0.831293 0.573599 0.979067 -0.168707
C27   C     C_R   0.664685 0.063762 0.020148 -0.171717
C28   C     C_R   0.335359 0.058413 0.981016 -0.172810
C29   C     C_3   0.317360 0.363707 0.020119 -0.260577
C30   C     C_3   0.683607 0.367324 0.977078 -0.262129
C31   C     C_3   0.844070 0.911548 0.029866 -0.255183
C32   C     C_3   0.183721 0.861134 0.980906 -0.261762
C33   C     C_3   0.335509 0.401746 0.943841 -0.259424
C34   C     C_3   0.668870 0.396223 0.055411 -0.262520
C35   C     C_3   0.857286 0.955912 0.952896 -0.241173
C36   C     C_3   0.164025 0.901080 0.056423 -0.262908
C37   C     C_R   0.241649 0.563419 0.914433 0.007063
C38   C     C_R   0.757630 0.566365 0.085326 0.009574
C39   C     C_R   0.737688 0.059290 0.912669 0.007627
C40   C     C_R   0.258492 0.063242 0.085689 0.007255
C41   C     C_R   0.540259 0.836188 0.433458 0.037510
C42   C     C_R   0.501064 0.833568 0.578105 0.021452
C43   C     C_R   0.999210 0.333333 0.422066 0.022802
C44   C     C_R   0.959834 0.336567 0.566607 0.037156
C45   C     C_R   0.445028 0.818009 0.863184 0.534404
C46   C     C_R   0.558764 0.817530 0.136931 0.541159
C47   C     C_R   0.939953 0.317304 0.862822 0.539376
C48   C     C_R   0.051098 0.319244 0.137022 0.536245
C49   C     C_R   0.472449 0.805836 0.451894 0.096972
C50   C     C_R   0.456114 0.796587 0.523478 0.006070
C51   C     C_R   0.044291 0.297058 0.476877 0.005531
C52   C     C_R   0.027686 0.306359 0.548397 0.097382
C53   C     C_R   0.565186 0.886110 0.559565 -0.143755
C54   C     C_R   0.585386 0.886095 0.486378 -0.152747
C55   C     C_R   0.914731 0.386060 0.513502 -0.152986
C56   C     C_R   0.935014 0.385730 0.440364 -0.143449
C57   C     C_3   0.430793 0.695680 0.432883 -0.031270
C58   C     C_3   0.420796 0.678291 0.513160 -0.042183
C59   C     C_3   0.079801 0.178962 0.487863 -0.044348
C60   C     C_3   0.069324 0.196522 0.568067 -0.030114
C61   C     C_R   0.213978 0.494431 0.440418 0.022579
C62   C     C_R   0.745194 0.619207 0.585958 0.006535
C63   C     C_R   0.754832 0.119122 0.413998 0.004433
C64   C     C_R   0.285998 0.994555 0.559652 0.022672
C65   C     C_R   0.158293 0.519555 0.487396 -0.006604
C66   C     C_R   0.788546 0.704669 0.552686 0.024560
C67   C     C_R   0.711463 0.204524 0.447170 0.023791
C68   C     C_R   0.341737 0.019207 0.512613 -0.006335
C69   C     C_R   0.170473 0.546132 0.559421 0.099628
C70   C     C_R   0.778925 0.735161 0.481584 0.026169
C71   C     C_R   0.721073 0.235066 0.518230 0.026339
C72   C     C_R   0.329572 0.045668 0.440517 0.098991
C73   C     C_R   0.290459 0.498679 0.545381 -0.115086
C74   C     C_R   0.670132 0.627625 0.479944 -0.147356
C75   C     C_R   0.829878 0.127757 0.520044 -0.146957
C76   C     C_R   0.209498 0.998770 0.454741 -0.115386
C77   C     C_R   0.278839 0.467973 0.473049 -0.110196
C78   C     C_R   0.680904 0.593791 0.552596 -0.148599
C79   C     C_R   0.819137 0.093858 0.447428 -0.148491
C80   C     C_R   0.221067 0.968334 0.527134 -0.110666
C81   C     C_3   0.096262 0.601936 0.485893 -0.042152
C82   C     C_3   0.866099 0.718945 0.547847 -0.032145
C83   C     C_3   0.633913 0.218892 0.451979 -0.032267
C84   C     C_3   0.403775 0.101607 0.513977 -0.042647
C85   C     C_3   0.109056 0.627286 0.565844 0.168211
C86   C     C_3   0.855460 0.751775 0.468520 0.170915
C87   C     C_3   0.644567 0.251814 0.531249 0.170774
C88   C     C_3   0.391010 0.126856 0.433991 0.167960
C89   C     C_R   0.258937 0.631208 0.849116 0.526903
C90   C     C_R   0.740991 0.631375 0.151136 0.542725
C91   C     C_R   0.758822 0.131585 0.849578 0.536081
C92   C     C_R   0.241089 0.131104 0.150937 0.526225
C93   C     C_R   0.238563 0.553150 0.586145 0.020042
C94   C     C_R   0.724359 0.684734 0.441391 0.004838
C95   C     C_R   0.775620 0.184733 0.558532 0.004453
C96   C     C_R   0.261457 0.052875 0.413830 0.018855
C97   C     C_R   0.292683 0.992691 0.638845 0.608103
C98   C     C_R   0.729082 0.049552 0.352531 0.530497
C99   C     C_R   0.770979 0.549485 0.647388 0.527560
C100  C     C_R   0.207331 0.492650 0.361195 0.608523
C101  C     C_R   0.474312 0.824086 0.650381 0.535706
C102  C     C_R   0.562351 0.819973 0.360284 0.539456
C103  C     C_R   0.937641 0.320101 0.639724 0.540244
C104  C     C_R   0.025884 0.323972 0.349777 0.531569
C105  C     C_R   0.258079 0.631205 0.646506 0.533626
C106  C     C_R   0.724569 0.693237 0.362810 0.572218
C107  C     C_R   0.775415 0.193250 0.637139 0.574112
C108  C     C_R   0.241942 0.131072 0.353453 0.531720
C109  C     C_3   0.481849 0.925155 0.034260 -0.177126
C110  C     C_3   0.525220 0.926591 0.963839 -0.173852
C111  C     C_3   0.973760 0.434169 0.034065 -0.175126
C112  C     C_3   0.017712 0.422295 0.964518 -0.173344
C113  C     C_3   0.433319 0.825682 0.002258 -0.184524
C114  C     C_3   0.574720 0.827307 0.995344 -0.180672
C115  C     C_3   0.920874 0.338492 0.004361 -0.183971
C116  C     C_3   0.061851 0.320343 0.999871 -0.176706
C117  C     C_3   0.477694 0.826046 0.933642 0.025180
C118  C     C_3   0.530095 0.824970 0.064090 0.020430
C119  C     C_3   0.966398 0.325348 0.936570 0.016391
C120  C     C_3   0.016775 0.330414 0.067663 0.036753
Cr1   Cr    Cr6+3 0.229640 0.835880 0.747370 0.972643
Cr2   Cr    Cr6+3 0.770360 0.835880 0.252630 0.952210
Cr3   Cr    Cr6+3 0.729640 0.335880 0.747370 0.946541
Cr4   Cr    Cr6+3 0.270360 0.335880 0.252630 0.974628
Cr5   Cr    Cr6+3 0.387390 0.989720 0.750850 0.983627
Cr6   Cr    Cr6+3 0.612610 0.989720 0.249150 0.961655
Cr7   Cr    Cr6+3 0.887390 0.489720 0.750850 0.961982
Cr8   Cr    Cr6+3 0.112610 0.489720 0.249150 0.981558
Cr9   Cr    Cr6+3 0.385770 0.677220 0.749340 1.030051
Cr10  Cr    Cr6+3 0.614230 0.677220 0.250660 1.035249
Cr11  Cr    Cr6+3 0.885770 0.177220 0.749340 1.029479
Cr12  Cr    Cr6+3 0.114230 0.177220 0.250660 1.033158
H1    H     H_    0.375437 0.826849 0.001351 0.096426
H2    H     H_    0.632494 0.827892 0.996219 0.105729
H3    H     H_    0.863140 0.342790 0.002480 0.097517
H4    H     H_    0.119775 0.317803 0.001882 0.093207
H5    H     H_    0.600414 0.919514 0.601027 0.161957
H6    H     H_    0.637063 0.917551 0.471827 0.114210
H7    H     H_    0.863002 0.417375 0.527883 0.114269
H8    H     H_    0.899802 0.418824 0.398754 0.158629
H9    H     H_    0.134565 0.186318 0.469942 0.152704
H10   H     H_    0.039766 0.121640 0.593886 0.196271
H11   H     H_    0.460241 0.620964 0.406879 0.196482
H12   H     H_    0.366205 0.685631 0.531579 0.153646
H13   H     H_    0.342392 0.495960 0.566690 0.201587
H14   H     H_    0.622242 0.601894 0.453048 0.189644
H15   H     H_    0.877808 0.102267 0.546967 0.189504
H16   H     H_    0.157559 0.996344 0.433487 0.201953
H17   H     H_    0.323134 0.437878 0.441590 0.174089
H18   H     H_    0.642349 0.539935 0.580363 0.157092
H19   H     H_    0.857786 0.040218 0.419743 0.157472
H20   H     H_    0.176707 0.938577 0.558667 0.173739
H21   H     H_    0.046458 0.554256 0.475161 0.156995
H22   H     H_    0.895493 0.633063 0.555750 0.174456
H23   H     H_    0.604464 0.133041 0.444232 0.174648
H24   H     H_    0.453585 0.054024 0.524856 0.157272
H25   H     H_    0.123489 0.723278 0.577051 0.145828
H26   H     H_    0.867814 0.847176 0.454249 0.132390
H27   H     H_    0.632285 0.347259 0.545312 0.132615
H28   H     H_    0.376609 0.222846 0.422637 0.146022
H29   H     H_    0.466810 0.006429 0.065625 0.124565
H30   H     H_    0.538607 0.008753 0.932302 0.130387
H31   H     H_    0.963797 0.520476 0.062738 0.119609
H32   H     H_    0.036219 0.498768 0.930872 0.125565
H33   H     H_    0.133239 0.619493 0.914498 0.127141
H34   H     H_    0.864959 0.628152 0.084027 0.125873
H35   H     H_    0.634250 0.140053 0.918867 0.132456
H36   H     H_    0.366534 0.121884 0.084994 0.128277
H37   H     H_    0.114128 0.577656 0.042055 0.145140
H38   H     H_    0.880847 0.598577 0.955178 0.143536
H39   H     H_    0.618541 0.099730 0.046202 0.148064
H40   H     H_    0.385201 0.082052 0.957342 0.146108
H41   H     H_    0.852280 0.813303 0.034578 0.141097
H42   H     H_    0.223159 0.787625 0.981364 0.150215
H43   H     H_    0.278187 0.289859 0.021377 0.150108
H44   H     H_    0.724081 0.296437 0.970632 0.144042
H45   H     H_    0.363538 0.353631 0.056333 0.153005
H46   H     H_    0.635822 0.359017 0.943025 0.155167
H47   H     H_    0.871401 0.961909 0.072254 0.187118
H48   H     H_    0.138210 0.848980 0.944090 0.148179
H49   H     H_    0.392135 0.420544 0.936666 0.172107
H50   H     H_    0.612236 0.406917 0.066881 0.171403
H51   H     H_    0.887537 0.041889 0.950745 0.200049
H52   H     H_    0.107345 0.921064 0.061836 0.167296
H53   H     H_    0.312306 0.343210 0.901263 0.146090
H54   H     H_    0.697201 0.335818 0.093711 0.136822
H55   H     H_    0.874886 0.882971 0.915674 0.147533
H56   H     H_    0.185223 0.842495 0.100024 0.147896
O1    O     O_R   0.214300 0.709080 0.827500 -0.549145
O2    O     O_R   0.785700 0.709080 0.172500 -0.542799
O3    O     O_R   0.714300 0.209080 0.827500 -0.545045
O4    O     O_R   0.285700 0.209080 0.172500 -0.549380
O5    O     O_R   0.445900 0.919370 0.676500 -0.531998
O6    O     O_R   0.554100 0.919370 0.323500 -0.479361
O7    O     O_R   0.945900 0.419370 0.676500 -0.478318
O8    O     O_R   0.054100 0.419370 0.323500 -0.533685
O9    O     O_R   0.456660 0.717710 0.669820 -0.479270
O10   O     O_R   0.543340 0.717710 0.330180 -0.517393
O11   O     O_R   0.956660 0.217710 0.669820 -0.516645
O12   O     O_R   0.043340 0.217710 0.330180 -0.476266
O13   O     O_R   0.320590 0.625770 0.672930 -0.487198
O14   O     O_R   0.679410 0.625770 0.327070 -0.483297
O15   O     O_R   0.820590 0.125770 0.672930 -0.480505
O16   O     O_R   0.179410 0.125770 0.327070 -0.487042
O17   O     O_3   0.334270 0.834280 0.749190 -0.309698
O18   O     O_3   0.665730 0.834280 0.250810 -0.331302
O19   O     O_3   0.834270 0.334280 0.749190 -0.329004
O20   O     O_3   0.165730 0.334280 0.250810 -0.307547
O21   O     O_R   0.236190 0.958390 0.823150 -0.509142
O22   O     O_R   0.763810 0.958390 0.176850 -0.518146
O23   O     O_R   0.736190 0.458390 0.823150 -0.521710
O24   O     O_R   0.263810 0.458390 0.176850 -0.509744
O25   O     O_R   0.332090 0.075280 0.831290 -0.524441
O26   O     O_R   0.667910 0.075280 0.168710 -0.530783
O27   O     O_R   0.832090 0.575280 0.831290 -0.528247
O28   O     O_R   0.167910 0.575280 0.168710 -0.525314
O29   O     O_R   0.446280 0.918040 0.826620 -0.537198
O30   O     O_R   0.553720 0.918040 0.173380 -0.539446
O31   O     O_R   0.946280 0.418040 0.826620 -0.535337
O32   O     O_R   0.053720 0.418040 0.173380 -0.540536
O33   O     O_R   0.457080 0.716270 0.831760 -0.478099
O34   O     O_R   0.542920 0.716270 0.168240 -0.465797
O35   O     O_R   0.957080 0.216270 0.831760 -0.474983
O36   O     O_R   0.042920 0.216270 0.168240 -0.472567
O37   O     O_R   0.320980 0.624440 0.823040 -0.495989
O38   O     O_R   0.679020 0.624440 0.176960 -0.493116
O39   O     O_R   0.820980 0.124440 0.823040 -0.498084
O40   O     O_R   0.179020 0.124440 0.176960 -0.495939
O41   O     O_R   0.213880 0.710510 0.665560 -0.556935
O42   O     O_R   0.786120 0.710510 0.334440 -0.482643
O43   O     O_R   0.713880 0.210510 0.665560 -0.479591
O44   O     O_R   0.286120 0.210510 0.334440 -0.557341
O45   O     O_R   0.235800 0.959720 0.673040 -0.494190
O46   O     O_R   0.764200 0.959720 0.326960 -0.537826
O47   O     O_R   0.735800 0.459720 0.673040 -0.540593
O48   O     O_R   0.264200 0.459720 0.326960 -0.491786
O49   O     O_R   0.331670 0.076720 0.669350 -0.453040
O50   O     O_R   0.668330 0.076720 0.330650 -0.523043
O51   O     O_R   0.831670 0.576720 0.669350 -0.522812
O52   O     O_R   0.168330 0.576720 0.330650 -0.453400
I1    I     I_    0.336852 0.743791 0.377529 -0.387848
I2    I     I_    0.488072 0.532542 0.548865 -0.493839
I3    I     I_    0.012641 0.032931 0.452183 -0.490208
I4    I     I_    0.162252 0.245566 0.625208 -0.381494
I5    I     I_    0.115841 0.760219 0.425186 -0.444339
I6    I     I_    0.898563 0.866942 0.614589 -0.441338
I7    I     I_    0.601479 0.366908 0.385021 -0.443054
I8    I     I_    0.384154 0.259946 0.574303 -0.444975
O53   O     O_3   0.058091 0.572381 0.610428 -0.558197
C121  C     C_3   0.030072 0.655012 0.661183 0.033253
H57   H     H_    0.972705 0.642939 0.660445 0.202119
H58   H     H_    0.039656 0.752566 0.648825 0.134292
C122  C     C_3   0.056039 0.625637 0.737639 -0.252533
H59   H     H_    0.045867 0.528767 0.750348 0.211124
H60   H     H_    0.113093 0.640449 0.741110 0.200239
C123  C     C_3   0.019563 0.705692 0.793382 -0.453215
H61   H     H_    0.032303 0.802727 0.783710 0.150950
H62   H     H_    0.036996 0.680946 0.848712 0.122307
H63   H     H_    0.962054 0.693161 0.790227 0.182756
O54   O     O_3   0.882472 0.660970 0.422059 -0.561208
C124  C     C_3   0.944007 0.701532 0.387515 0.005075
H64   H     H_    0.978845 0.622024 0.381377 0.170329
H65   H     H_    0.971939 0.770392 0.420276 0.188551
C125  C     C_3   0.929209 0.751866 0.311429 -0.242240
H66   H     H_    0.902651 0.681061 0.278482 0.196806
H67   H     H_    0.895204 0.833239 0.315401 0.193245
C126  C     C_3   0.995975 0.788350 0.272215 -0.461767
H68   H     H_    0.021940 0.864702 0.300814 0.204221
H69   H     H_    0.982835 0.818657 0.216398 0.134912
H70   H     H_    0.032354 0.710036 0.268700 0.184905
O55   O     O_3   0.617499 0.161141 0.577914 -0.560728
C127  C     C_3   0.555967 0.201841 0.612315 0.005878
H71   H     H_    0.521186 0.122288 0.618898 0.170467
H72   H     H_    0.527969 0.270193 0.579173 0.188871
C128  C     C_3   0.570799 0.253117 0.688106 -0.242423
H73   H     H_    0.597348 0.182722 0.721455 0.199244
H74   H     H_    0.604835 0.334431 0.683660 0.192027
C129  C     C_3   0.504065 0.290019 0.727169 -0.462711
H75   H     H_    0.478057 0.365986 0.698169 0.204612
H76   H     H_    0.517258 0.321032 0.782791 0.133850
H77   H     H_    0.467696 0.211715 0.731178 0.185298
O56   O     O_3   0.442022 0.072015 0.389547 -0.558712
C130  C     C_3   0.469941 0.154643 0.338595 0.033230
H78   H     H_    0.527318 0.142767 0.339300 0.202256
H79   H     H_    0.460322 0.252190 0.350758 0.134463
C131  C     C_3   0.443914 0.125072 0.262242 -0.253414
H80   H     H_    0.454408 0.028352 0.249615 0.209625
H81   H     H_    0.386793 0.139175 0.258882 0.199432
C132  C     C_3   0.480006 0.205644 0.206361 -0.451555
H82   H     H_    0.466464 0.302390 0.215618 0.152901
H83   H     H_    0.462992 0.180159 0.151077 0.121940
H84   H     H_    0.537593 0.194546 0.209773 0.181696
O57   O     O_3   0.546004 0.625537 0.922717 -0.542314
C133  C     C_3   0.610332 0.643748 0.886085 0.017227
H85   H     H_    0.625852 0.554281 0.864348 0.181063
H86   H     H_    0.652019 0.673096 0.923870 0.131196
C134  C     C_3   0.607036 0.731839 0.821260 -0.274896
H87   H     H_    0.572835 0.693714 0.778215 0.202754
H88   H     H_    0.586899 0.821527 0.838206 0.176357
C135  C     C_3   0.679218 0.752769 0.788808 -0.457073
H89   H     H_    0.715901 0.788413 0.830495 0.167930
H90   H     H_    0.675342 0.819957 0.744066 0.156753
H91   H     H_    0.700020 0.666938 0.766406 0.198516
O58   O     O_3   0.463237 0.621932 0.072369 -0.539731
C136  C     C_3   0.396559 0.635435 0.104712 0.017872
H92   H     H_    0.381849 0.546014 0.127540 0.174805
H93   H     H_    0.357100 0.658348 0.063072 0.128989
C137  C     C_3   0.393329 0.728466 0.167123 -0.254702
H94   H     H_    0.418614 0.690469 0.216471 0.216398
H95   H     H_    0.419648 0.814168 0.152650 0.180297
C138  C     C_3   0.318246 0.762749 0.184377 -0.444892
H96   H     H_    0.291305 0.791650 0.134152 0.133406
H97   H     H_    0.317548 0.840344 0.222650 0.180603
H98   H     H_    0.290387 0.685053 0.209071 0.231102
O59   O     O_3   0.026620 0.116506 0.933714 -0.554369
C139  C     C_3   0.094642 0.122409 0.903150 0.021836
H99   H     H_    0.107182 0.031219 0.881556 0.166035
H100  H     H_    0.133053 0.142634 0.946028 0.133316
C140  C     C_3   0.103496 0.214052 0.840167 -0.254924
H101  H     H_    0.077610 0.178897 0.790459 0.215345
H102  H     H_    0.080618 0.303024 0.853615 0.180673
C141  C     C_3   0.180067 0.238718 0.823222 -0.437815
H103  H     H_    0.211144 0.246718 0.873759 0.138583
H104  H     H_    0.184849 0.325328 0.792771 0.171274
H105  H     H_    0.201388 0.165529 0.788927 0.235091
O60   O     O_3   0.939607 0.144587 0.086198 -0.563797
C142  C     C_3   0.877755 0.179878 0.123659 -0.000918
H106  H     H_    0.860345 0.099837 0.154753 0.180323
H107  H     H_    0.834519 0.201680 0.085414 0.121523
C143  C     C_3   0.887712 0.280289 0.180895 -0.273975
H108  H     H_    0.928274 0.252391 0.220577 0.207381
H109  H     H_    0.903123 0.367094 0.155352 0.164486
C144  C     C_3   0.820550 0.302850 0.223029 -0.455819
H110  H     H_    0.778872 0.336130 0.186224 0.157996
H111  H     H_    0.830091 0.372849 0.265182 0.160572
H112  H     H_    0.802828 0.218223 0.250032 0.178302

loop_
_geom_bond_atom_site_label_1
_geom_bond_atom_site_label_2
_ccdc_geom_bond_type
C141  H104  S    
C107  O43   A    
C134  H88   S    
Cr2   O18   S    
C73   C93   A    
C75   C95   A    
C48   C120  S    
C144  H110  S    
O56   C130  S    
C53   H5    S    
C63   C98   S    
C69   C93   A    
C5    C6    S    
C56   H8    S    
C141  H105  S    
C71   C95   A    
C121  H58   S    
O55   C127  S    
C22   C38   A    
C123  H63   S    
C29   C33   S    
C55   H7    S    
C34   H54   S    
Cr7   O19   S    
Cr5   O25   S    
C12   C16   A    
C127  H71   S    
O60   C142  S    
Cr10  O14   S    
C137  C138  S    
C121  C122  S    
C96   C108  S    
C59   C60   S    
C29   H45   S    
Cr4   O20   S    
C33   H49   S    
C29   H43   S    
C102  O6    A    
C30   H44   S    
C109  C118  S    
C112  H32   S    
C143  H108  S    
C9    C25   A    
C51   C52   A    
C7    C119  S    
C82   I6    S    
C91   O3    A    
C106  O42   A    
C76   H16   S    
C139  H99   S    
C36   H56   S    
Cr7   O7    S    
C66   C82   S    
Cr5   O5    S    
C68   C72   A    
Cr4   O44   S    
C23   H35   S    
C64   C97   S    
Cr2   O46   S    
C2    O26   A    
C100  O48   A    
Cr6   O50   S    
C35   H51   S    
C135  H89   S    
C122  H60   S    
C144  H112  S    
C47   O35   A    
C131  C132  S    
C90   O38   A    
C84   C88   S    
C88   O56   S    
C97   O49   A    
C38   C90   S    
C46   O34   A    
C18   C38   A    
C19   C35   S    
C76   C96   A    
C131  H81   S    
C84   H24   S    
C44   C55   A    
Cr7   O27   S    
C66   C70   A    
C127  C128  S    
C20   C40   A    
Cr5   O17   S    
C87   H27   S    
C88   H28   S    
C62   C99   S    
C72   C96   A    
C61   C65   A    
Cr10  O38   S    
C83   I7    S    
C73   C77   A    
C32   H48   S    
Cr8   O20   S    
C3    O27   A    
Cr9   O9    S    
Cr6   O30   S    
C140  H102  S    
C85   O53   S    
C4    O28   A    
C111  C112  S    
C30   C34   S    
Cr11  O19   S    
C110  H30   S    
C7    C8    S    
C53   C54   A    
O53   C121  S    
C139  C140  S    
C64   C68   A    
C42   C53   A    
Cr1   O1    S    
C124  H64   S    
C126  H70   S    
C101  O9    A    
C83   H23   S    
Cr12  O12   S    
C49   C57   S    
C41   C102  S    
C58   I2    S    
C43   C104  S    
C9    C13   A    
C52   C60   S    
C28   H40   S    
C61   C77   A    
C125  H66   S    
C136  H93   S    
C123  H62   S    
C11   C27   A    
Cr2   O22   S    
Cr8   O32   S    
C135  H91   S    
Cr9   O13   S    
C44   C52   A    
C130  C131  S    
C104  O12   A    
C1    C12   S    
C11   C15   A    
C2    C11   S    
C44   C103  S    
C137  H95   S    
C3    O23   A    
Cr1   O41   S    
C62   C66   A    
C1    O21   A    
C128  C129  S    
C10   C14   A    
C142  H107  S    
C17   C37   A    
C48   O36   A    
C143  C144  S    
C116  C120  S    
C73   H13   S    
Cr4   O48   S    
C7    C116  S    
C107  O15   A    
O57   C133  S    
Cr10  O18   S    
C86   H26   S    
C105  O13   A    
C98   O46   A    
C132  H82   S    
C30   H46   S    
C50   C58   S    
C21   C37   A    
C86   O54   S    
C6    O58   S    
Cr8   O28   S    
C113  C117  S    
C26   H38   S    
C35   H55   S    
C42   C50   A    
C98   O50   A    
C115  C119  S    
C138  H97   S    
C74   C78   A    
C61   C100  S    
C42   C101  S    
C112  C116  S    
C69   C85   S    
C108  O44   A    
C45   C117  S    
C21   C25   A    
C62   C78   A    
C76   C80   A    
O54   C124  S    
C124  C125  S    
C126  H68   S    
C15   C31   S    
C16   C32   S    
C13   C17   A    
C84   I8    S    
C45   O33   A    
C128  H74   S    
C57   C58   S    
C115  H3    S    
C125  C126  S    
C114  H2    S    
C100  O52   A    
C129  H76   S    
C58   H12   S    
C51   C59   S    
C59   H9    S    
C127  H72   S    
C49   C50   A    
Cr9   O37   S    
C130  H78   S    
C129  H75   S    
Cr11  O35   S    
C4    C9    S    
C81   C85   S    
C83   C87   S    
C55   C56   A    
Cr7   O51   S    
C46   O30   A    
C74   C94   A    
C128  H73   S    
Cr1   O17   S    
C113  H1    S    
Cr7   O31   S    
C15   C19   A    
C8    C120  S    
C143  H109  S    
C12   C28   A    
C13   C29   S    
C70   C94   A    
Cr12  O40   S    
C90   O2    A    
C133  H85   S    
C132  H84   S    
C21   H33   S    
C46   C118  S    
C139  H100  S    
C39   C91   S    
C57   I1    S    
Cr6   O26   S    
C60   H10   S    
C135  H90   S    
C129  H77   S    
Cr11  O15   S    
C99   O51   A    
C141  H103  S    
O59   C139  S    
C64   C80   A    
C17   C33   S    
C110  C117  S    
C101  O5    A    
Cr2   O2    S    
C144  H111  S    
C60   I4    S    
Cr12  O16   S    
C68   C84   S    
C24   C28   A    
Cr10  O34   S    
C133  C134  S    
C77   H17   S    
Cr4   O24   S    
C75   H15   S    
C121  H57   S    
C82   C86   S    
C32   H42   S    
C31   H47   S    
C105  O41   A    
C5    O57   S    
C122  C123  S    
Cr9   O17   S    
Cr6   O6    S    
C65   C81   S    
C104  O8    A    
C95   C107  S    
Cr3   O47   S    
Cr1   O45   S    
C1    O25   A    
C31   C35   S    
Cr3   O3    S    
C32   C36   S    
Cr4   O4    S    
Cr5   O49   S    
C48   O32   A    
C24   C40   A    
C91   O39   A    
Cr12  O36   S    
C74   H14   S    
C89   O37   A    
C112  C119  S    
C116  H4    S    
Cr8   O52   S    
C37   C89   S    
C142  H106  S    
C109  C110  S    
C126  H69   S    
C43   C51   A    
C122  H59   S    
Cr6   O18   S    
C65   C69   A    
C7    O59   S    
C67   C71   A    
C140  H101  S    
C20   C36   S    
Cr11  O39   S    
Cr3   O43   S    
C92   O40   A    
C125  H67   S    
C136  H92   S    
C22   C26   A    
C89   O1    A    
C33   H53   S    
C92   O4    A    
Cr5   O29   S    
C138  H96   S    
C5    C114  S    
C130  H79   S    
C45   O29   A    
C134  H87   S    
C14   C18   A    
C81   H21   S    
C63   C79   A    
C24   H36   S    
C102  O10   A    
C131  H80   S    
C59   I3    S    
C8    C115  S    
C87   O55   S    
C41   C49   A    
Cr3   O23   S    
C36   H52   S    
C22   H34   S    
C23   C27   A    
C8    O60   S    
C16   C20   A    
C93   C105  S    
C10   C26   A    
C47   C119  S    
C140  C141  S    
C14   C30   S    
C72   C88   S    
Cr2   O42   S    
C63   C67   A    
C2    O22   A    
C57   H11   S    
C81   I5    S    
C111  H31   S    
Cr9   O33   S    
C124  H65   S    
C47   O31   A    
C5    C117  S    
C111  C120  S    
Cr11  O11   S    
C6    C113  S    
C106  O14   A    
C99   O47   A    
C136  C137  S    
C97   O45   A    
C123  H61   S    
Cr3   O19   S    
C103  O11   A    
C67   C83   S    
C40   C92   S    
C18   C34   S    
C114  C118  S    
C19   C39   A    
O58   C136  S    
Cr12  O20   S    
Cr1   O21   S    
C134  C135  S    
C71   C87   S    
C75   C79   A    
C70   C86   S    
C27   H39   S    
C137  H94   S    
C78   H18   S    
C79   H19   S    
C31   H41   S    
C25   H37   S    
C80   H20   S    
C110  C114  S    
C94   C106  S    
Cr8   O8    S    
C142  C143  S    
C103  O7    A    
C109  C113  S    
C4    O24   A    
C108  O16   A    
C3    C10   S    
C109  H29   S    
C133  H86   S    
C54   H6    S    
C23   C39   A    
C132  H83   S    
C34   H50   S    
C41   C54   A    
C82   H22   S    
C43   C56   A    
C138  H98   S    
C85   H25   S    
C111  C115  S    
Cr10  O10   S    
C6    C118  S    
