data_mof_unit_31452.cif
_audit_creation_date              2013-03-05T16:13:32-0500
_audit_creation_method            fapswitch 2.2
_symmetry_space_group_name_H-M    P1
_symmetry_Int_Tables_number       1
_space_group_crystal_system       triclinic
_cell_length_a                    10.738174
_cell_length_b                    9.895753
_cell_length_c                    10.606744
_cell_angle_alpha                 89.279418
_cell_angle_beta                  91.25897
_cell_angle_gamma                 88.441478
_cell_volume                      1126.3104001

loop_
_atom_site_label
_atom_site_type_symbol
_atom_site_description
_atom_site_fract_x
_atom_site_fract_y
_atom_site_fract_z
_atom_type_partial_charge
O1    O     O_R   0.316770 0.614620 0.499990 -0.582963
O2    O     O_R   0.683230 0.614620 0.500010 -0.550073
O3    O     O_R   0.316800 0.385290 0.500000 -0.603462
O4    O     O_R   0.683200 0.385290 0.500000 -0.616059
C1    C     C_R   0.260221 0.502086 0.503932 0.954945
C2    C     C_R   0.739810 0.497642 0.498366 0.971725
O5    O     O_R   0.500000 0.614690 0.316780 -0.551588
O6    O     O_R   0.500000 0.614690 0.683220 -0.568994
O7    O     O_R   0.500020 0.385360 0.316780 -0.649723
O8    O     O_R   0.499980 0.385360 0.683220 -0.641060
C3    C     C_R   0.499193 0.500656 0.260375 0.915829
C4    C     C_R   0.502798 0.499330 0.739385 0.888768
Zn1   Zn    Zn3+2 0.500000 0.653120 0.500000 1.114783
Zn2   Zn    Zn3+2 0.500000 0.346880 0.500000 0.954056
C5    C     C_R   0.419267 0.584318 0.059921 0.115717
C6    C     C_R   0.422126 0.584521 0.930872 0.114244
C7    C     C_R   0.504203 0.502479 0.128479 -0.071345
C8    C     C_R   0.506687 0.500297 0.871126 -0.091747
C9    C     C_R   0.597357 0.426765 0.068995 -0.155121
C10   C     C_R   0.598351 0.425239 0.938603 -0.185826
H1    H     H_    0.666299 0.367103 0.123092 0.167591
H2    H     H_    0.667789 0.364434 0.890808 0.158877
C11   C     C_3   0.283563 0.585860 0.915204 -0.114744
C12   C     C_3   0.278924 0.584565 0.058718 -0.070284
H3    H     H_    0.249312 0.493945 0.867539 0.157329
H4    H     H_    0.237649 0.677224 0.100173 0.256708
C13   C     C_R   0.069273 0.403045 0.577005 0.115373
C14   C     C_R   0.940605 0.392266 0.564891 0.116561
C15   C     C_R   0.872613 0.492430 0.494162 -0.266818
C16   C     C_R   0.127427 0.506684 0.510210 -0.266690
C17   C     C_R   0.931052 0.597895 0.430880 0.179185
C18   C     C_R   0.058522 0.608598 0.443246 0.168146
C19   C     C_R   0.538525 0.070206 0.604044 -0.194937
C20   C     C_R   0.461687 0.075517 0.396136 -0.125464
H5    H     H_    0.571567 0.123210 0.686324 0.187520
H6    H     H_    0.432398 0.132324 0.312337 0.178792
C21   C     C_R   0.540829 0.926917 0.604212 0.320344
C22   C     C_R   0.463118 0.932706 0.394718 0.372152
N1    N     N_R   0.500000 0.857200 0.500000 -0.183432
N2    N     N_R   0.500000 0.142810 0.500000 -0.128895
N3    N     N_2   0.236556 0.711474 0.857433 -0.273907
H7    H     H_    0.270470 0.798505 0.896600 0.275090
C23   C     C_3   0.103684 0.717609 0.832240 -0.652924
H8    H     H_    0.078460 0.811841 0.778569 0.252923
H9    H     H_    0.052631 0.717410 0.922228 0.256440
H10   H     H_    0.075339 0.630198 0.774575 0.230223
N4    N     N_2   0.230237 0.460024 0.110003 -0.313602
H11   H     H_    0.276043 0.372554 0.082421 0.241276
C24   C     C_3   0.096130 0.450306 0.103167 -0.708284
H12   H     H_    0.067924 0.360017 0.157594 0.242630
H13   H     H_    0.063942 0.440193 0.003550 0.224837
H14   H     H_    0.050354 0.540796 0.144316 0.286587
N5    N     N_2   0.138785 0.323241 0.668736 -0.315283
H15   H     H_    0.108542 0.331193 0.759993 0.199726
C25   C     C_3   0.178278 0.187791 0.634220 -0.619821
H16   H     H_    0.121630 0.112096 0.683502 0.214667
H17   H     H_    0.277003 0.170415 0.664539 0.248457
H18   H     H_    0.170868 0.172840 0.530609 0.257151
N6    N     N_2   0.878797 0.285282 0.627530 -0.302959
H19   H     H_    0.909704 0.264839 0.718592 0.219498
C26   C     C_3   0.864489 0.163779 0.553981 -0.585950
H20   H     H_    0.955845 0.114178 0.536280 0.240457
H21   H     H_    0.818259 0.186864 0.461327 0.258335
H22   H     H_    0.806969 0.091379 0.606222 0.234204
N7    N     N_R   0.860785 0.694395 0.353409 0.258080
O9    O     O_R   0.794523 0.653726 0.257676 -0.377567
O10   O     O_R   0.859515 0.822189 0.381039 -0.314272
N8    N     N_R   0.116203 0.724781 0.389975 0.257748
O11   O     O_R   0.154275 0.818926 0.465045 -0.359954
O12   O     O_R   0.097569 0.754530 0.271228 -0.352551
N9    N     N_R   0.594225 0.857250 0.711899 0.221813
O13   O     O_R   0.697526 0.787257 0.700650 -0.367164
O14   O     O_R   0.557761 0.889280 0.824087 -0.380640
N10   N     N_R   0.434968 0.870276 0.277825 0.213798
O15   O     O_R   0.524701 0.853326 0.198570 -0.329641
O16   O     O_R   0.321106 0.879073 0.233786 -0.368841

loop_
_geom_bond_atom_site_label_1
_geom_bond_atom_site_label_2
_geom_bond_distance
_ccdc_geom_bond_type
C26   H22   1.109497 S    
C16   C18   1.409740 A    
C23   H8    1.110453 S    
C13   N5    1.429752 S    
C24   H13   1.111041 S    
O6    Zn1   1.975529 S    
O6    C4    1.280324 A    
O7    C3    1.281330 A    
N3    H7    1.032646 S    
N3    C23   1.445339 S    
N5    C25   1.448700 S    
C8    C10   1.395950 A    
C9    C10   1.383589 A    
C11   N3    1.452088 S    
C18   N8    1.436155 S    
O7    Zn2   1.975623 S    
C24   H14   1.108730 S    
C4    C8    1.397214 S    
C24   H12   1.110287 S    
C25   H16   1.110520 S    
C11   H3    1.113459 S    
N9    O13   1.300211 A    
N4    C24   1.446167 S    
C21   N9    1.427794 S    
C20   C22   1.413162 A    
N5    H15   1.030975 S    
C13   C16   1.407029 A    
O5    C3    1.284009 A    
C23   H9    1.111114 S    
O2    C2    1.293125 A    
O3    Zn2   1.993441 S    
O8    C4    1.282864 A    
C20   N2    1.356387 A    
N8    O12   1.299810 A    
C5    C12   1.506742 S    
C9    H1    1.083929 S    
C12   H4    1.107770 S    
N7    O9    1.301310 A    
C6    C11   1.493210 S    
C20   H6    1.081889 S    
C25   H17   1.109304 S    
O4    Zn2   2.013741 S    
C26   H20   1.105771 S    
C21   N1    1.379967 A    
C23   H10   1.111044 S    
O1    C1    1.283479 A    
C17   N7    1.438842 S    
N6    C26   1.451286 S    
C19   N2    1.359792 A    
Zn1   N1    2.019525 S    
N10   O15   1.301399 A    
N10   O16   1.299534 A    
C11   C12   1.524023 S    
Zn2   N2    2.019427 S    
C5    C6    1.369780 A    
C7    C9    1.399610 A    
O1    Zn1   2.014249 S    
N6    H19   1.030210 S    
C2    C15   1.427284 S    
C22   N1    1.380454 A    
C6    C8    1.384980 A    
C1    C16   1.428498 S    
C22   N10   1.422398 S    
C14   N6    1.429212 S    
N9    O14   1.301142 A    
C13   C14   1.391917 A    
C5    C7    1.390094 A    
O2    Zn1   1.993901 S    
C25   H18   1.112135 S    
C14   C15   1.412867 A    
N7    O10   1.301501 A    
O5    Zn1   1.984916 S    
C19   H5    1.081981 S    
N4    H11   1.032613 S    
C15   C17   1.403596 A    
C12   N4    1.455603 S    
O4    C2    1.281670 A    
C26   H21   1.109587 S    
C19   C21   1.417478 A    
C17   C18   1.379262 A    
C10   H2    1.083931 S    
N8    O11   1.301592 A    
O3    C1    1.292609 A    
O8    Zn2   1.985020 S    
C3    C7    1.401115 S    
