data_mof_unit_51253.cif
_audit_creation_date              2012-12-10T18:47:42-0500
_audit_creation_method            fapswitch 2.2
_symmetry_space_group_name_H-M    P1
_symmetry_Int_Tables_number       1
_space_group_crystal_system       triclinic
_cell_length_a                    9.899868
_cell_length_b                    10.616473
_cell_length_c                    15.440187
_cell_angle_alpha                 91.369605
_cell_angle_beta                  68.525408
_cell_angle_gamma                 91.340654
_cell_volume                      1509.51702259

loop_
_atom_site_label
_atom_site_type_symbol
_atom_type_description
_atom_site_fract_x
_atom_site_fract_y
_atom_site_fract_z
_atom_type_partial_charge
C1    C     C_R   0.502609 0.739373 0.497967 1.000162
C2    C     C_R   0.498026 0.260363 0.500559 1.012937
C3    C     C_R   0.371989 0.354145 0.083315 0.561297
C4    C     C_R   0.686280 0.471281 0.887089 0.492655
C5    C     C_R   0.276476 0.322340 0.038397 0.690822
C6    C     C_R   0.789815 0.485013 0.928615 0.687025
C7    C     C_R   0.601394 0.936026 0.421270 -0.023101
C8    C     C_R   0.394347 0.062501 0.573368 -0.030668
C9    C     C_R   0.596843 0.066147 0.422785 0.585000
C10   C     C_R   0.402263 0.933081 0.573240 0.559993
C11   C     C_R   0.495308 0.127768 0.499008 -0.314186
C12   C     C_R   0.505061 0.871637 0.497992 -0.305762
C13   C     C_R   0.950532 0.406790 0.454914 0.653678
C14   C     C_R   0.050421 0.594147 0.543718 0.633747
C15   C     C_R   0.093985 0.403868 0.456708 -0.007116
C16   C     C_R   0.905310 0.594450 0.545066 0.041772
C17   C     C_R   0.409227 0.497154 0.675698 0.955627
C18   C     C_R   0.590294 0.503278 0.323741 0.960883
C19   C     C_R   0.353294 0.471975 0.775165 -0.334486
C20   C     C_R   0.645407 0.503357 0.221318 -0.361365
C21   C     C_R   0.205574 0.341777 0.902994 0.718342
C22   C     C_R   0.844871 0.505686 0.071268 0.677913
C23   C     C_R   0.235508 0.388778 0.814237 0.544264
C24   C     C_R   0.795538 0.507726 0.168459 0.540446
C25   C     C_R   0.435354 0.513672 0.827279 0.261530
C26   C     C_R   0.546691 0.495302 0.174515 0.210472
C27   C     C_R   0.427978 0.443392 0.904945 -0.092703
C28   C     C_R   0.597999 0.462458 0.080028 -0.045191
C29   C     C_R   0.302015 0.368293 0.949279 -0.362615
C30   C     C_R   0.746235 0.483519 0.025980 -0.370607
C31   C     C_R   0.538409 0.449588 0.942158 -0.194874
C32   C     C_R   0.500980 0.423781 0.036632 -0.130091
N1    N     N_R   0.142780 0.500030 0.500020 -0.187317
N2    N     N_R   0.857220 0.499970 0.499980 -0.184487
O1    O     O_R   0.385370 0.683250 0.500010 -0.541785
O2    O     O_R   0.614630 0.316750 0.499990 -0.549566
O3    O     O_R   0.614700 0.683220 0.500000 -0.640119
O4    O     O_R   0.385300 0.316780 0.500000 -0.618595
O5    O     O_R   0.319830 0.500020 0.632250 -0.508899
O6    O     O_R   0.680170 0.499980 0.367750 -0.507748
O7    O     O_R   0.549160 0.499990 0.632240 -0.579948
O8    O     O_R   0.450840 0.500010 0.367760 -0.672022
Zn1   Zn    Zn3+2 0.346870 0.500020 0.500000 1.051064
Zn2   Zn    Zn3+2 0.653130 0.499980 0.500000 1.079686
F1    F     F_    0.157505 0.250035 0.083554 -0.537868
F2    F     F_    0.930262 0.507145 0.873693 -0.546716
N3    N     N_2   0.403853 0.545675 0.214068 -0.257806
H1    H     H_    0.326951 0.495577 0.265756 0.287671
C33   C     C_3   0.396597 0.681213 0.226270 -0.725557
H2    H     H_    0.281873 0.710771 0.248287 0.247929
H3    H     H_    0.460009 0.727648 0.159542 0.246368
H4    H     H_    0.439769 0.712393 0.280432 0.229810
N4    N     N_2   0.504960 0.635407 0.810051 -0.271690
H5    H     H_    0.568259 0.658482 0.848263 0.239592
C34   C     C_3   0.408078 0.738136 0.815138 -0.677079
H6    H     H_    0.468630 0.829326 0.804003 0.223605
H7    H     H_    0.319753 0.741678 0.884894 0.262277
H8    H     H_    0.360103 0.727090 0.760825 0.290012
F3    F     F_    0.894429 0.521352 0.210148 -0.588924
F4    F     F_    0.149723 0.353221 0.766608 -0.591786
F5    F     F_    0.086990 0.265946 0.940947 -0.554792
F6    F     F_    0.988472 0.524840 0.022354 -0.590811
F7    F     F_    0.346176 0.304481 0.168238 -0.654698
F8    F     F_    0.732232 0.469576 0.792718 -0.638858
N5    N     N_2   0.690474 0.869858 0.339729 -0.305813
H9    H     H_    0.679405 0.901248 0.279985 0.265497
C35   C     C_3   0.841280 0.861472 0.329116 -0.606371
H10   H     H_    0.892336 0.956879 0.322623 0.273091
H11   H     H_    0.900476 0.805310 0.265386 0.252721
H12   H     H_    0.851182 0.813462 0.389272 0.217813
N6    N     N_2   0.287259 0.126240 0.648644 -0.268382
H13   H     H_    0.283322 0.096971 0.712781 0.269520
C36   C     C_3   0.144798 0.123403 0.642320 -0.526060
H14   H     H_    0.109413 0.025065 0.634391 0.235733
H15   H     H_    0.146300 0.179566 0.582509 0.241983
H16   H     H_    0.063783 0.164472 0.706505 0.281320
F9    F     F_    0.687769 0.132480 0.349457 -0.605599
F10   F     F_    0.307723 0.866816 0.645132 -0.643280
F11   F     F_    0.905910 0.319812 0.405089 -0.581555
F12   F     F_    0.100432 0.688720 0.584775 -0.609161
N7    N     N_2   0.189705 0.303436 0.412539 -0.260196
H17   H     H_    0.288156 0.327367 0.362797 0.286163
C37   C     C_3   0.134487 0.178511 0.402895 -0.577486
H18   H     H_    0.217727 0.108178 0.399299 0.205365
H19   H     H_    0.112152 0.170989 0.337516 0.309952
H20   H     H_    0.034840 0.155915 0.463752 0.226225
N8    N     N_2   0.812870 0.697869 0.585746 -0.242927
H21   H     H_    0.818779 0.765880 0.538122 0.218486
C38   C     C_3   0.813629 0.752804 0.672298 -0.556964
H22   H     H_    0.902864 0.823708 0.658887 0.249612
H23   H     H_    0.823587 0.679262 0.719331 0.300965
H24   H     H_    0.711203 0.803786 0.707097 0.202608

loop_
_geom_bond_atom_site_label_1
_geom_bond_atom_site_label_2
_ccdc_geom_bond_type
N8    H21   S    
C13   F11   S    
C27   C29   A    
C36   H14   S    
C34   H6    S    
C14   N1    A    
N7    H17   S    
C10   F10   S    
C15   N7    S    
N4    H5    S    
C20   C26   A    
C37   H18   S    
C22   C24   A    
C25   N4    S    
C18   O8    A    
C6    F2    S    
C7    N5    S    
C17   O5    A    
C18   O6    A    
C13   N2    A    
C16   N2    A    
C20   C24   A    
N5    C35   S    
C16   N8    S    
C14   C16   A    
C14   F12   S    
C38   H23   S    
O1    Zn1   S    
C21   F5    S    
C1    O3    A    
C36   H15   S    
C7    C12   A    
C1    C12   S    
C2    C11   S    
N7    C37   S    
C5    C29   A    
N4    C34   S    
C21   C23   A    
C23   F4    S    
C27   C31   A    
C35   H10   S    
N1    Zn1   S    
C28   C32   A    
N2    Zn2   S    
C4    C6    A    
N6    C36   S    
O5    Zn1   S    
C33   H3    S    
C21   C29   A    
C35   H11   S    
C19   C23   A    
C22   F6    S    
C2    O4    A    
N3    H1    S    
C8    C11   A    
C33   H4    S    
C9    F9    S    
C38   H24   S    
C9    C11   A    
C10   C12   A    
C26   N3    S    
C37   H19   S    
N5    H9    S    
C13   C15   A    
O7    Zn2   S    
O4    Zn1   S    
O2    Zn2   S    
C25   C27   A    
O8    Zn1   S    
C1    O1    A    
C2    O2    A    
C7    C9    A    
C8    N6    S    
C22   C30   A    
C6    C30   A    
C31   C32   A    
C3    C5    A    
C3    F7    S    
N3    C33   S    
C4    F8    S    
C26   C28   A    
C35   H12   S    
O3    Zn2   S    
C34   H7    S    
N6    H13   S    
C5    F1    S    
C24   F3    S    
C28   C30   A    
C17   C19   S    
C18   C20   S    
C3    C32   A    
C19   C25   A    
C17   O7    A    
C4    C31   A    
O6    Zn2   S    
C37   H20   S    
C36   H16   S    
C8    C10   A    
C33   H2    S    
C34   H8    S    
N8    C38   S    
C38   H22   S    
C15   N1    A    
