data_mof_unit_9585.cif
_audit_creation_date              2013-03-05T15:43:50-0500
_audit_creation_method            fapswitch 2.2
_symmetry_space_group_name_H-M    P1
_symmetry_Int_Tables_number       1
_space_group_crystal_system       triclinic
_cell_length_a                    21.494465
_cell_length_b                    21.547672
_cell_length_c                    22.503167
_cell_angle_alpha                 88.70685
_cell_angle_beta                  89.981709
_cell_angle_gamma                 89.994602
_cell_volume                      10419.8146292

loop_
_atom_site_label
_atom_site_type_symbol
_atom_site_description
_atom_site_fract_x
_atom_site_fract_y
_atom_site_fract_z
_atom_type_partial_charge
C1    C     C_R   0.915758 0.156875 0.081136 -0.124336
C2    C     C_R   0.063307 0.863935 0.889357 -0.094868
C3    C     C_R   0.136482 0.062178 0.111384 -0.094069
C4    C     C_R   0.842586 0.916401 0.918401 -0.110343
C5    C     C_R   0.085601 0.841716 0.080021 -0.120021
C6    C     C_R   0.938837 0.135619 0.887470 -0.094953
C7    C     C_R   0.865017 0.937556 0.112172 -0.095187
C8    C     C_R   0.158258 0.085087 0.920153 -0.116671
C9    C     C_R   0.916185 0.843357 0.918035 -0.128027
C10   C     C_R   0.063137 0.136005 0.110694 -0.096167
C11   C     C_R   0.136575 0.937822 0.888658 -0.093049
C12   C     C_R   0.842316 0.083772 0.080820 -0.113261
C13   C     C_R   0.085616 0.158296 0.920038 -0.114338
C14   C     C_R   0.938574 0.864189 0.112430 -0.089196
C15   C     C_R   0.865198 0.062382 0.887732 -0.091784
C16   C     C_R   0.158241 0.914927 0.079866 -0.117300
C17   C     C_R   0.415212 0.657515 0.580227 -0.112107
C18   C     C_R   0.560856 0.367035 0.387774 -0.088212
C19   C     C_R   0.633586 0.558710 0.612374 -0.102921
C20   C     C_R   0.342013 0.415233 0.419926 -0.120550
C21   C     C_R   0.585652 0.341593 0.579670 -0.119278
C22   C     C_R   0.438888 0.635444 0.387397 -0.090693
C23   C     C_R   0.365395 0.438077 0.612338 -0.089992
C24   C     C_R   0.658436 0.585353 0.420816 -0.116807
C25   C     C_R   0.415271 0.342503 0.419698 -0.116443
C26   C     C_R   0.560497 0.632728 0.612324 -0.094579
C27   C     C_R   0.633798 0.441240 0.387748 -0.110594
C28   C     C_R   0.341980 0.584781 0.580027 -0.120927
C29   C     C_R   0.585774 0.658467 0.420598 -0.120220
C30   C     C_R   0.438854 0.364563 0.612609 -0.090775
C31   C     C_R   0.365414 0.561949 0.387668 -0.090672
C32   C     C_R   0.658319 0.414715 0.579571 -0.118180
H1    H     H_    0.938212 0.201766 0.081846 0.133815
H2    H     H_    0.033262 0.826075 0.877963 0.112034
H3    H     H_    0.173866 0.031226 0.123958 0.112819
H4    H     H_    0.797502 0.938710 0.917771 0.126854
H5    H     H_    0.063333 0.797088 0.076055 0.117607
H6    H     H_    0.970269 0.172523 0.874724 0.114184
H7    H     H_    0.827871 0.968191 0.124459 0.108724
H8    H     H_    0.202722 0.062178 0.924700 0.114075
H9    H     H_    0.938603 0.798444 0.917350 0.133822
H10   H     H_    0.032927 0.173750 0.122126 0.114797
H11   H     H_    0.173953 0.968789 0.876094 0.113016
H12   H     H_    0.797315 0.061304 0.081402 0.131117
H13   H     H_    0.063342 0.202919 0.924063 0.113387
H14   H     H_    0.969786 0.827065 0.125116 0.117564
H15   H     H_    0.828033 0.031821 0.875396 0.109124
H16   H     H_    0.202702 0.937838 0.075306 0.114430
H17   H     H_    0.438118 0.702036 0.576784 0.114558
H18   H     H_    0.533986 0.326681 0.376244 0.129844
H19   H     H_    0.674004 0.531146 0.623870 0.135242
H20   H     H_    0.297196 0.437376 0.424062 0.118559
H21   H     H_    0.563338 0.297000 0.575574 0.119956
H22   H     H_    0.470179 0.672488 0.374657 0.119079
H23   H     H_    0.328540 0.469126 0.624625 0.112012
H24   H     H_    0.702882 0.562445 0.425559 0.114963
H25   H     H_    0.438193 0.297984 0.423102 0.115802
H26   H     H_    0.533568 0.673063 0.623826 0.133302
H27   H     H_    0.674139 0.468944 0.376292 0.128568
H28   H     H_    0.297168 0.562644 0.575868 0.118588
H29   H     H_    0.563435 0.703046 0.424743 0.119179
H30   H     H_    0.470105 0.327491 0.625352 0.118616
H31   H     H_    0.328556 0.530921 0.375380 0.111951
H32   H     H_    0.702773 0.437682 0.575267 0.117289
N1    N     N_R   0.940200 0.105310 0.059970 -0.048008
N2    N     N_R   0.059800 0.894690 0.940030 -0.047717
N3    N     N_R   0.105310 0.059800 0.059970 -0.047719
N4    N     N_R   0.894690 0.940200 0.940030 -0.048576
N5    N     N_R   0.059800 0.894690 0.059970 -0.048829
N6    N     N_R   0.940200 0.105310 0.940030 -0.046945
N7    N     N_R   0.894690 0.940200 0.059970 -0.047379
N8    N     N_R   0.105310 0.059800 0.940030 -0.047546
N9    N     N_R   0.940200 0.894690 0.940030 -0.047203
N10   N     N_R   0.059800 0.105310 0.059970 -0.048251
N11   N     N_R   0.105310 0.940200 0.940030 -0.047609
N12   N     N_R   0.894690 0.059800 0.059970 -0.049250
N13   N     N_R   0.059800 0.105310 0.940030 -0.048305
N14   N     N_R   0.940200 0.894690 0.059970 -0.047108
N15   N     N_R   0.894690 0.059800 0.940030 -0.047297
N16   N     N_R   0.105310 0.940200 0.059970 -0.047690
N17   N     N_R   0.440200 0.605310 0.559970 -0.047389
N18   N     N_R   0.559800 0.394690 0.440030 -0.048957
N19   N     N_R   0.605310 0.559800 0.559970 -0.049106
N20   N     N_R   0.394690 0.440200 0.440030 -0.047867
N21   N     N_R   0.559800 0.394690 0.559970 -0.048738
N22   N     N_R   0.440200 0.605310 0.440030 -0.048593
N23   N     N_R   0.394690 0.440200 0.559970 -0.047684
N24   N     N_R   0.605310 0.559800 0.440030 -0.045850
N25   N     N_R   0.440200 0.394690 0.440030 -0.047430
N26   N     N_R   0.559800 0.605310 0.559970 -0.050436
N27   N     N_R   0.605310 0.440200 0.440030 -0.048502
N28   N     N_R   0.394690 0.559800 0.559970 -0.047895
N29   N     N_R   0.559800 0.605310 0.440030 -0.048459
N30   N     N_R   0.440200 0.394690 0.559970 -0.048423
N31   N     N_R   0.394690 0.559800 0.440030 -0.047670
N32   N     N_R   0.605310 0.440200 0.559970 -0.046798
C33   C     C_R   0.266660 0.106208 0.303960 0.203636
C34   C     C_R   0.812985 0.778260 0.711799 0.228216
C35   C     C_R   0.361602 0.801941 0.154602 0.208362
C36   C     C_R   0.899853 0.263745 0.690806 0.200428
C37   C     C_R   0.740483 0.898588 0.308742 0.211713
C38   C     C_R   0.361647 0.198246 0.845563 0.208645
C39   C     C_R   0.814576 0.223623 0.286487 0.234335
C40   C     C_R   0.266708 0.893864 0.695825 0.203659
C41   C     C_R   0.639484 0.686530 0.842964 0.209853
C42   C     C_R   0.143774 0.305717 0.333044 0.200920
C43   C     C_R   0.702050 0.139193 0.656387 0.206264
C44   C     C_R   0.240325 0.601604 0.192076 0.206643
C45   C     C_R   0.240144 0.398418 0.807865 0.206384
C46   C     C_R   0.862130 0.698808 0.347422 0.200562
C47   C     C_R   0.143655 0.694412 0.666956 0.204404
C48   C     C_R   0.640099 0.315188 0.156401 0.210047
C49   C     C_R   0.797383 0.781250 0.772445 -0.043549
C50   C     C_R   0.211298 0.130837 0.279203 -0.034084
C51   C     C_R   0.876106 0.207255 0.714340 -0.031644
C52   C     C_R   0.300677 0.782230 0.140867 -0.034600
C53   C     C_R   0.300685 0.217906 0.859267 -0.034508
C54   C     C_R   0.795720 0.873550 0.285121 -0.032171
C55   C     C_R   0.211392 0.869247 0.720702 -0.034334
C56   C     C_R   0.798068 0.219873 0.226121 -0.048149
C57   C     C_R   0.203851 0.285428 0.349748 -0.035732
C58   C     C_R   0.656889 0.680473 0.782938 -0.046900
C59   C     C_R   0.295859 0.626332 0.215318 -0.032569
C60   C     C_R   0.720320 0.200810 0.642448 -0.041030
C61   C     C_R   0.801161 0.718458 0.361117 -0.028229
C62   C     C_R   0.295751 0.373739 0.784690 -0.032913
C63   C     C_R   0.657598 0.320839 0.216438 -0.047534
C64   C     C_R   0.203746 0.714661 0.650148 -0.037411
C65   C     C_R   0.745136 0.749100 0.796408 0.015056
C66   C     C_R   0.188349 0.188862 0.297706 0.002802
C67   C     C_R   0.818632 0.183978 0.693945 0.000831
C68   C     C_R   0.280546 0.721893 0.157611 0.007206
C69   C     C_R   0.280497 0.278209 0.842462 0.007109
C70   C     C_R   0.818004 0.815304 0.305952 0.007167
C71   C     C_R   0.188385 0.811251 0.702202 0.004491
C72   C     C_R   0.745241 0.251471 0.202641 0.015839
C73   C     C_R   0.224653 0.225466 0.334933 0.008229
C74   C     C_R   0.709896 0.712142 0.759689 0.018953
C75   C     C_R   0.318017 0.684762 0.194813 0.006711
C76   C     C_R   0.780477 0.221654 0.657877 0.014795
C77   C     C_R   0.780827 0.778552 0.343808 0.010626
C78   C     C_R   0.317962 0.315349 0.805249 0.007056
C79   C     C_R   0.710239 0.288472 0.239565 0.017029
C80   C     C_R   0.224594 0.774631 0.664895 0.008009
H33   H     H_    0.876132 0.837597 0.794678 0.162239
H34   H     H_    0.202570 0.060953 0.213204 0.153029
H35   H     H_    0.944994 0.198383 0.782918 0.153544
H36   H     H_    0.270790 0.871494 0.108726 0.153955
H37   H     H_    0.270871 0.128637 0.891494 0.153942
H38   H     H_    0.804990 0.943352 0.216379 0.149590
H39   H     H_    0.202819 0.939047 0.786827 0.152883
H40   H     H_    0.872498 0.157606 0.204669 0.167192
H41   H     H_    0.232138 0.373668 0.382333 0.154906
H42   H     H_    0.582887 0.616607 0.760683 0.172640
H43   H     H_    0.305596 0.555998 0.283491 0.151317
H44   H     H_    0.631932 0.228433 0.606401 0.155932
H45   H     H_    0.771534 0.629372 0.394057 0.148915
H46   H     H_    0.305469 0.444026 0.716473 0.151357
H47   H     H_    0.580546 0.380252 0.240512 0.171536
H48   H     H_    0.232095 0.626327 0.617788 0.154789
C81   C     C_R   0.675967 0.722740 0.880448 0.210139
C82   C     C_R   0.107606 0.269359 0.295220 0.217338
C83   C     C_R   0.740782 0.101020 0.691886 0.209991
C84   C     C_R   0.202077 0.639498 0.155858 0.206165
C85   C     C_R   0.201889 0.360502 0.844065 0.208837
C86   C     C_R   0.898717 0.735059 0.308172 0.206413
C87   C     C_R   0.107638 0.730800 0.704924 0.217216
C88   C     C_R   0.674892 0.276971 0.119283 0.209577
C89   C     C_R   0.303395 0.143294 0.340719 0.202456
C90   C     C_R   0.778692 0.739648 0.675332 0.220563
C91   C     C_R   0.398590 0.765183 0.192996 0.209212
C92   C     C_R   0.861511 0.301642 0.654672 0.203947
C93   C     C_R   0.702400 0.860957 0.345428 0.206185
C94   C     C_R   0.398628 0.235006 0.807148 0.208832
C95   C     C_R   0.778938 0.260165 0.323744 0.219222
C96   C     C_R   0.303345 0.856782 0.658944 0.203077
H49   H     H_    0.753555 0.798402 0.939264 0.171431
H50   H     H_    0.058028 0.197350 0.212501 0.161559
H51   H     H_    0.806835 0.055212 0.782747 0.150565
H52   H     H_    0.132687 0.728346 0.104352 0.157914
H53   H     H_    0.132578 0.271642 0.895617 0.156177
H54   H     H_    0.945861 0.803009 0.218007 0.156062
H55   H     H_    0.058200 0.802751 0.787613 0.152621
H56   H     H_    0.755299 0.205901 0.058637 0.170160
H57   H     H_    0.369279 0.229952 0.395754 0.158475
H58   H     H_    0.702895 0.665992 0.616688 0.166089
H59   H     H_    0.446730 0.695990 0.281661 0.155307
H60   H     H_    0.771792 0.369808 0.603857 0.156055
H61   H     H_    0.632957 0.772160 0.397158 0.156862
H62   H     H_    0.446773 0.304184 0.718439 0.155118
H63   H     H_    0.706708 0.337987 0.381586 0.167412
H64   H     H_    0.369100 0.770112 0.603762 0.158066
Ni1   Ni    Ni4+2 0.000000 0.104370 0.000000 0.234932
Ni2   Ni    Ni4+2 1.000000 0.895630 0.000000 0.237868
Ni3   Ni    Ni4+2 0.104370 0.000000 0.000000 0.236460
Ni4   Ni    Ni4+2 0.895630 0.000000 0.000000 0.236773
Ni5   Ni    Ni4+2 0.500000 0.604370 0.500000 0.235956
Ni6   Ni    Ni4+2 0.500000 0.395630 0.500000 0.238391
Ni7   Ni    Ni4+2 0.604370 0.500000 0.500000 0.236507
Ni8   Ni    Ni4+2 0.395630 0.500000 0.500000 0.240633
C97   C     C_R   0.854923 0.143928 0.093958 0.051008
C98   C     C_R   0.110341 0.890906 0.855046 0.057224
C99   C     C_R   0.110161 0.109077 0.145020 0.057530
C100  C     C_R   0.855607 0.856497 0.904464 0.056612
C101  C     C_R   0.147835 0.852591 0.092444 0.078339
C102  C     C_R   0.893124 0.108540 0.852701 0.053999
C103  C     C_R   0.892718 0.891220 0.147129 0.054019
C104  C     C_R   0.147854 0.147432 0.907617 0.080224
C105  C     C_R   0.353149 0.646341 0.593316 0.079060
C106  C     C_R   0.606722 0.395838 0.354293 0.043994
C107  C     C_R   0.606241 0.603954 0.645904 0.039750
C108  C     C_R   0.353223 0.353684 0.406576 0.078377
C109  C     C_R   0.647937 0.352305 0.591882 0.072734
C110  C     C_R   0.393296 0.608107 0.352633 0.052251
C111  C     C_R   0.393261 0.391930 0.647380 0.052155
C112  C     C_R   0.648166 0.647808 0.408744 0.072031
C113  C     C_R   0.834160 0.814578 0.810316 -0.085706
C114  C     C_R   0.181962 0.101854 0.231776 -0.092958
C115  C     C_R   0.904587 0.177582 0.763094 -0.092177
C116  C     C_R   0.257422 0.823741 0.116158 -0.088865
C117  C     C_R   0.257454 0.176369 0.883996 -0.088592
C118  C     C_R   0.825065 0.901953 0.236190 -0.090267
C119  C     C_R   0.182157 0.898191 0.768237 -0.091707
C120  C     C_R   0.832749 0.183988 0.188632 -0.087453
C121  C     C_R   0.245686 0.326067 0.376139 -0.084257
C122  C     C_R   0.623185 0.642543 0.745392 -0.095580
C123  C     C_R   0.325589 0.597478 0.263756 -0.089871
C124  C     C_R   0.678703 0.243042 0.616086 -0.080694
C125  C     C_R   0.758012 0.677023 0.386202 -0.075719
C126  C     C_R   0.325497 0.402585 0.736245 -0.089275
C127  C     C_R   0.622703 0.356809 0.254801 -0.095359
C128  C     C_R   0.245589 0.673969 0.623796 -0.083678
C129  C     C_R   0.817483 0.819218 0.869252 0.042822
C130  C     C_R   0.130054 0.129033 0.204247 0.047477
C131  C     C_R   0.876198 0.126346 0.791183 0.047762
C132  C     C_R   0.195693 0.805610 0.106755 0.050395
C133  C     C_R   0.195689 0.194442 0.893334 0.050676
C134  C     C_R   0.875254 0.873001 0.208398 0.055972
C135  C     C_R   0.130257 0.871017 0.795815 0.053944
C136  C     C_R   0.816768 0.180911 0.129427 0.042583
C137  C     C_R   0.306516 0.307377 0.389454 0.051466
C138  C     C_R   0.641712 0.637762 0.686846 0.044639
C139  C     C_R   0.375984 0.626187 0.291361 0.055042
C140  C     C_R   0.695649 0.305194 0.606456 0.057886
C141  C     C_R   0.696124 0.694976 0.395133 0.050398
C142  C     C_R   0.375941 0.373896 0.708669 0.054977
C143  C     C_R   0.642211 0.362490 0.312958 0.043752
C144  C     C_R   0.306402 0.692661 0.610353 0.051598
C145  C     C_R   0.764886 0.791236 0.893031 -0.095911
C146  C     C_R   0.101308 0.179990 0.230322 -0.083271
C147  C     C_R   0.826509 0.096892 0.763102 -0.081417
C148  C     C_R   0.179166 0.743157 0.114951 -0.102488
C149  C     C_R   0.179091 0.256868 0.885072 -0.100127
C150  C     C_R   0.903946 0.822026 0.236590 -0.108448
C151  C     C_R   0.101468 0.820122 0.769751 -0.094928
C152  C     C_R   0.765071 0.210400 0.105550 -0.097239
C153  C     C_R   0.323614 0.245288 0.382274 -0.106306
C154  C     C_R   0.692410 0.669629 0.663611 -0.102859
C155  C     C_R   0.404610 0.677237 0.263283 -0.103349
C156  C     C_R   0.757664 0.322976 0.614732 -0.087769
C157  C     C_R   0.679519 0.757405 0.386752 -0.090418
C158  C     C_R   0.404610 0.322903 0.736793 -0.105216
C159  C     C_R   0.694051 0.331936 0.335454 -0.103285
C160  C     C_R   0.323471 0.754776 0.617370 -0.104384
C161  C     C_R   0.728593 0.753991 0.857213 -0.045312
C162  C     C_R   0.131341 0.212321 0.275155 -0.043129
C163  C     C_R   0.796563 0.125623 0.714682 -0.032923
C164  C     C_R   0.220555 0.700986 0.141709 -0.043364
C165  C     C_R   0.220452 0.299059 0.858302 -0.042991
C166  C     C_R   0.874793 0.791366 0.284417 -0.044250
C167  C     C_R   0.131434 0.787813 0.724876 -0.042366
C168  C     C_R   0.727792 0.245891 0.142131 -0.044491
C169  C     C_R   0.283939 0.204176 0.353549 -0.043042
C170  C     C_R   0.727646 0.706657 0.699389 -0.050421
C171  C     C_R   0.375001 0.708466 0.216108 -0.043652
C172  C     C_R   0.800387 0.282177 0.641404 -0.038108
C173  C     C_R   0.720881 0.799522 0.359804 -0.039892
C174  C     C_R   0.374996 0.291684 0.783988 -0.043227
C175  C     C_R   0.727807 0.293249 0.299972 -0.048300
C176  C     C_R   0.283848 0.795907 0.646150 -0.042780
N33   N     N_R   0.658835 0.728157 0.941802 0.259883
O1    O     O_R   0.603927 0.748534 0.955928 -0.267351
O2    O     O_R   0.695651 0.706917 0.983398 -0.329355
N34   N     N_R   0.047915 0.291907 0.275886 0.267678
O3    O     O_R   0.005813 0.305528 0.315053 -0.234813
O4    O     O_R   0.039957 0.309833 0.220807 -0.334363
N35   N     N_R   0.721623 0.038791 0.707425 0.255740
O5    O     O_R   0.666049 0.027992 0.728133 -0.268390
O6    O     O_R   0.759587 0.992539 0.700102 -0.315083
N36   N     N_R   0.144035 0.615645 0.134769 0.259498
O7    O     O_R   0.143704 0.569125 0.098921 -0.272867
O8    O     O_R   0.092036 0.633803 0.158357 -0.290352
N37   N     N_R   0.143731 0.384265 0.865008 0.259466
O9    O     O_R   0.143189 0.430813 0.900820 -0.273414
O10   O     O_R   0.091846 0.365994 0.841312 -0.300800
N38   N     N_R   0.959402 0.713723 0.291700 0.260104
O11   O     O_R   0.002813 0.708454 0.331756 -0.275744
O12   O     O_R   0.968379 0.690675 0.239443 -0.309321
N39   N     N_R   0.048059 0.708330 0.724645 0.258166
O13   O     O_R   0.005187 0.696067 0.685854 -0.245959
O14   O     O_R   0.040625 0.689701 0.779594 -0.338508
N40   N     N_R   0.656911 0.270886 0.058222 0.259186
O15   O     O_R   0.651424 0.319929 0.023824 -0.281433
O16   O     O_R   0.640556 0.216999 0.038462 -0.316525
N41   N     N_R   0.360873 0.119140 0.363928 0.262174
O17   O     O_R   0.360421 0.071023 0.399892 -0.260730
O18   O     O_R   0.413541 0.139173 0.342398 -0.319938
N42   N     N_R   0.794879 0.735397 0.613618 0.256396
O19   O     O_R   0.793349 0.784621 0.579086 -0.291493
O20   O     O_R   0.816322 0.683585 0.593190 -0.307924
N43   N     N_R   0.459270 0.786534 0.209430 0.259217
O21   O     O_R   0.502364 0.792823 0.169148 -0.273266
O22   O     O_R   0.468434 0.808755 0.261995 -0.301688
N44   N     N_R   0.884546 0.360267 0.632689 0.264109
O23   O     O_R   0.931455 0.361927 0.596152 -0.246067
O24   O     O_R   0.865205 0.411491 0.656028 -0.318868
N45   N     N_R   0.644590 0.885040 0.366872 0.261685
O25   O     O_R   0.644669 0.931517 0.402770 -0.254935
O26   O     O_R   0.592370 0.867083 0.343619 -0.286073
N46   N     N_R   0.459335 0.213681 0.790720 0.258949
O27   O     O_R   0.502389 0.207371 0.831014 -0.273357
O28   O     O_R   0.468552 0.191471 0.738154 -0.301129
N47   N     N_R   0.795389 0.264031 0.385455 0.255006
O29   O     O_R   0.850741 0.282323 0.400571 -0.264873
O30   O     O_R   0.757365 0.243272 0.426289 -0.347851
N48   N     N_R   0.360783 0.880920 0.635601 0.261873
O31   O     O_R   0.360269 0.929047 0.599649 -0.261407
O32   O     O_R   0.413487 0.860871 0.657008 -0.318080
N49   N     N_R   0.287199 0.044776 0.289774 0.258312
O33   O     O_R   0.343341 0.035600 0.270190 -0.254186
O34   O     O_R   0.250171 0.997556 0.297826 -0.342245
N50   N     N_R   0.863338 0.814389 0.687038 0.254841
O35   O     O_R   0.907198 0.787758 0.657000 -0.262366
O36   O     O_R   0.861981 0.874665 0.689320 -0.317904
N51   N     N_R   0.384852 0.860512 0.132223 0.260108
O37   O     O_R   0.408567 0.900577 0.168216 -0.242724
O38   O     O_R   0.383501 0.873388 0.075463 -0.321564
N52   N     N_R   0.961359 0.284306 0.706040 0.259629
O39   O     O_R   0.970309 0.339907 0.725745 -0.250575
O40   O     O_R   0.008818 0.247591 0.699472 -0.332169
N53   N     N_R   0.721224 0.960731 0.292981 0.256847
O41   O     O_R   0.665306 0.971488 0.273157 -0.265243
O42   O     O_R   0.759434 0.006963 0.299283 -0.334478
N54   N     N_R   0.384935 0.139705 0.867973 0.260293
O43   O     O_R   0.408650 0.099611 0.831992 -0.242245
O44   O     O_R   0.383583 0.126871 0.924741 -0.321438
N55   N     N_R   0.866249 0.189071 0.310667 0.260963
O45   O     O_R   0.857616 0.149475 0.354398 -0.268173
O46   O     O_R   0.922593 0.201231 0.292791 -0.339685
N56   N     N_R   0.287301 0.955273 0.710004 0.258376
O47   O     O_R   0.343501 0.964412 0.729414 -0.253487
O48   O     O_R   0.250256 0.002512 0.702128 -0.339649
N57   N     N_R   0.585622 0.655083 0.866457 0.259402
O49   O     O_R   0.590902 0.616923 0.911809 -0.274802
O50   O     O_R   0.530564 0.669009 0.846177 -0.327811
N58   N     N_R   0.120660 0.364781 0.351592 0.261761
O51   O     O_R   0.102921 0.406410 0.312343 -0.236138
O52   O     O_R   0.116721 0.376817 0.407872 -0.306707
N59   N     N_R   0.643858 0.115409 0.635603 0.262078
O53   O     O_R   0.592048 0.133217 0.659802 -0.284657
O54   O     O_R   0.643276 0.069300 0.599279 -0.253937
N60   N     N_R   0.220875 0.539530 0.207864 0.257318
O55   O     O_R   0.165194 0.529069 0.228464 -0.245119
O56   O     O_R   0.258671 0.493084 0.200860 -0.343679
N61   N     N_R   0.220626 0.460453 0.792008 0.257308
O57   O     O_R   0.164980 0.470817 0.771306 -0.245026
O58   O     O_R   0.258332 0.506958 0.799027 -0.342504
N62   N     N_R   0.885825 0.640827 0.370821 0.259479
O59   O     O_R   0.910266 0.600399 0.335623 -0.259678
O60   O     O_R   0.884145 0.628871 0.427741 -0.288169
N63   N     N_R   0.120316 0.635498 0.648181 0.262638
O61   O     O_R   0.100959 0.594347 0.687151 -0.231843
O62   O     O_R   0.117224 0.623381 0.591873 -0.307013
N64   N     N_R   0.586645 0.347408 0.133021 0.259321
O63   O     O_R   0.541747 0.316663 0.108453 -0.277560
O64   O     O_R   0.585518 0.407795 0.131199 -0.324036

loop_
_geom_bond_atom_site_label_1
_geom_bond_atom_site_label_2
_geom_bond_distance
_ccdc_geom_bond_type
N32   Ni7   1.844854 S    
C4    H4    1.081638 S    
C46   C86   1.406166 A    
C5    H5    1.079710 S    
C35   N51   1.437868 S    
C2    C98   1.391173 A    
C53   C69   1.413356 A    
C130  C146  1.400161 A    
C31   C110  1.390823 A    
C23   C111  1.390740 A    
N25   Ni6   1.864437 S    
C44   C84   1.406094 A    
H37   C117  1.077776 S    
C134  C150  1.399261 A    
H41   C121  1.078245 S    
N34   O3    1.301166 A    
C18   C106  1.379597 A    
H55   C151  1.076868 S    
N18   Ni6   1.863839 S    
N21   N32   1.385181 A    
C67   C163  1.413284 A    
N23   N30   1.385050 A    
C57   C121  1.397168 A    
N13   Ni1   1.863180 S    
C67   C76   1.400351 A    
C30   C111  1.393045 A    
N35   O6    1.301343 A    
N48   O31   1.300842 A    
C126  C142  1.399868 A    
C2    H2    1.076082 S    
C28   H28   1.079917 S    
C64   C128  1.397271 A    
N9    Ni2   1.864437 S    
C88   N40   1.436347 S    
C138  C154  1.384183 A    
C36   C51   1.411925 A    
N23   Ni8   1.844847 S    
N62   O59   1.301157 A    
N57   O50   1.301133 A    
N40   O16   1.301172 A    
N47   O29   1.301151 A    
C113  C129  1.379529 A    
C35   C52   1.413205 A    
N51   O38   1.301261 A    
N44   O23   1.300795 A    
C21   N21   1.338438 A    
N18   N27   1.385181 A    
C117  C133  1.400643 A    
C16   N16   1.334413 A    
H47   C127  1.082786 S    
H64   C160  1.077126 S    
C41   N57   1.436164 S    
H50   C146  1.076828 S    
C55   C119  1.399177 A    
C72   C168  1.420194 A    
N3    N10   1.385050 A    
C63   C79   1.421737 A    
C64   C80   1.414322 A    
C40   N56   1.438023 S    
N38   O11   1.300769 A    
C74   C170  1.416944 A    
C135  C151  1.399654 A    
C26   N26   1.329917 A    
C147  C163  1.398118 A    
C93   N45   1.434229 S    
N6    N15   1.385181 A    
C127  C143  1.382432 A    
C104  C133  1.473709 S    
C47   N63   1.437424 S    
C23   H23   1.076887 S    
C24   H24   1.079507 S    
C50   C66   1.415346 A    
C9    H9    1.081470 S    
N4    N9    1.385050 A    
C30   N30   1.338164 A    
C119  C135  1.398483 A    
N61   O57   1.301194 A    
C70   C77   1.400236 A    
C84   N36   1.434354 S    
N6    Ni1   1.863773 S    
C34   N50   1.438107 S    
C18   N18   1.330410 A    
C150  C166  1.398216 A    
C20   C108  1.387486 A    
N56   O47   1.301186 A    
C15   C102  1.391172 A    
C91   C171  1.411530 A    
N22   N31   1.385181 A    
C50   C114  1.399029 A    
N51   O37   1.301179 A    
H34   C114  1.078899 S    
N21   Ni6   1.863770 S    
C59   C123  1.397442 A    
C12   H12   1.081666 S    
N59   O53   1.301126 A    
C7    H7    1.075960 S    
C8    H8    1.079483 S    
C128  C144  1.398809 A    
N44   O24   1.301115 A    
C143  C159  1.384384 A    
C33   N49   1.438025 S    
C144  C160  1.400208 A    
C13   H13   1.079699 S    
C154  C170  1.374024 A    
C37   C93   1.406622 A    
C140  C156  1.400638 A    
C141  C157  1.400361 A    
H45   C125  1.077845 S    
C22   H22   1.077666 S    
C68   C75   1.399903 A    
H59   C155  1.077877 S    
C69   C78   1.399885 A    
C108  C137  1.473010 S    
C37   C54   1.412694 A    
N24   Ni7   1.844848 S    
C36   N52   1.438356 S    
C72   C79   1.386176 A    
C61   C125  1.397509 A    
C159  C175  1.374209 A    
C122  C138  1.382277 A    
N55   O46   1.300840 A    
N60   O55   1.301191 A    
C59   C75   1.413734 A    
C145  C161  1.389970 A    
N64   O63   1.301114 A    
C48   C63   1.410418 A    
C103  C134  1.473517 S    
N17   N28   1.385181 A    
C15   N15   1.336956 A    
C90   N42   1.436516 S    
N41   O18   1.301126 A    
C1    N1    1.327043 A    
C6    H6    1.077368 S    
C27   N27   1.325879 A    
C52   C116  1.396909 A    
C54   C70   1.413434 A    
C40   C55   1.412355 A    
C125  C141  1.401020 A    
C42   C82   1.404712 A    
C56   C120  1.376310 A    
C81   C161  1.410758 A    
N49   O34   1.301279 A    
C107  C138  1.411272 S    
C75   C171  1.415024 A    
C25   H25   1.079547 S    
C132  C148  1.400002 A    
C19   N19   1.326569 A    
C79   C175  1.416930 A    
N42   O20   1.301177 A    
N53   O42   1.301399 A    
C29   H29   1.079777 S    
C136  C152  1.382780 A    
C115  C131  1.399697 A    
N50   O35   1.300760 A    
C32   H32   1.079438 S    
C99   C130  1.473203 S    
C7    C103  1.391013 A    
C16   C101  1.384611 A    
C17   H17   1.079539 S    
C4    N4    1.328862 A    
C85   N37   1.434363 S    
C92   N44   1.434351 S    
N47   O30   1.301358 A    
C11   C98   1.395328 A    
N46   O28   1.301131 A    
N29   Ni5   1.863180 S    
N37   O9    1.300791 A    
C9    C100  1.365695 A    
C52   C68   1.413314 A    
C3    H3    1.078000 S    
N58   O52   1.301197 A    
C13   C104  1.387532 A    
C120  C136  1.379002 A    
C105  C144  1.472966 S    
C38   C53   1.413188 A    
C43   C83   1.406551 A    
N52   O40   1.301296 A    
C20   N20   1.336984 A    
C21   C109  1.387199 A    
C36   C92   1.406233 A    
C94   C174  1.411552 A    
C109  C140  1.474700 S    
C2    N2    1.333861 A    
C46   N62   1.438007 S    
C43   N59   1.434307 S    
N33   O2    1.301130 A    
N34   O4    1.301232 A    
C11   N11   1.338955 A    
C24   C112  1.384600 A    
H44   C124  1.077300 S    
C91   N43   1.434470 S    
H39   C119  1.078927 S    
C41   C58   1.410387 A    
C41   C81   1.401950 A    
H56   C152  1.082947 S    
C42   N58   1.436851 S    
C6    C102  1.392588 A    
C34   C90   1.392948 A    
C45   C62   1.412567 A    
C157  C173  1.398835 A    
N54   O43   1.301152 A    
C96   N48   1.434580 S    
C47   C64   1.412110 A    
N48   O32   1.301125 A    
C33   C50   1.412439 A    
N28   Ni8   1.886908 S    
C45   N61   1.438264 S    
C10   H10   1.076363 S    
C3    C99   1.395866 A    
C39   C56   1.408209 A    
N59   O54   1.300797 A    
C1    C97   1.366422 A    
C78   C174  1.415031 A    
N62   O60   1.301319 A    
N57   O49   1.301050 A    
C129  C145  1.383188 A    
C14   H14   1.077589 S    
N26   Ni5   1.864434 S    
C86   N38   1.434384 S    
C84   C164  1.412627 A    
N1    N12   1.385181 A    
C85   C165  1.412622 A    
H42   C122  1.082679 S    
C19   C107  1.377684 A    
C43   C60   1.413017 A    
C133  C149  1.399978 A    
C95   C175  1.408981 A    
C17   C105  1.385975 A    
C96   C176  1.412930 A    
N17   Ni5   1.863839 S    
C81   N33   1.436113 S    
C54   C118  1.397889 A    
C121  C137  1.398671 A    
N63   O61   1.301196 A    
C58   C122  1.392254 A    
N36   O7    1.300794 A    
N14   Ni2   1.863180 S    
N45   O26   1.301132 A    
C5    N5    1.338247 A    
N12   Ni4   1.886908 S    
C158  C174  1.397497 A    
N2    Ni2   1.863839 S    
N40   O15   1.301115 A    
C148  C164  1.398297 A    
C149  C165  1.398171 A    
N31   Ni8   1.844854 S    
C155  C171  1.397474 A    
C131  C147  1.400535 A    
C10   C99   1.391079 A    
N1    Ni1   1.863839 S    
C142  C158  1.398693 A    
N38   O12   1.301118 A    
N10   Ni1   1.864434 S    
C14   C103  1.392989 A    
C48   N64   1.436217 S    
H38   C118  1.078321 S    
C16   H16   1.079476 S    
C38   N54   1.437845 S    
C92   C172  1.413252 A    
C93   C173  1.412623 A    
C83   N35   1.438306 S    
C8    N8    1.334541 A    
C89   C169  1.412848 A    
C58   C74   1.421672 A    
C40   C96   1.405983 A    
N55   O45   1.301106 A    
C34   C49   1.408105 A    
C151  C167  1.396613 A    
C112  C141  1.474915 S    
C62   C78   1.413757 A    
C27   C106  1.377024 A    
C55   C71   1.415359 A    
C37   N53   1.438304 S    
C110  C139  1.472219 S    
C56   C72   1.419900 A    
C25   C108  1.385977 A    
N39   O13   1.300734 A    
C100  C129  1.404953 S    
H51   C147  1.078380 S    
N35   O5    1.301163 A    
H49   C145  1.082889 S    
H60   C156  1.076713 S    
C39   C95   1.392463 A    
H61   C157  1.077356 S    
N4    Ni4   1.886923 S    
C139  C155  1.398697 A    
N56   O48   1.301280 A    
C24   N24   1.335337 A    
C146  C162  1.397178 A    
C71   C167  1.414920 A    
C45   C85   1.406021 A    
H36   C116  1.077752 S    
H57   C153  1.077145 S    
C30   H30   1.077603 S    
C12   N12   1.328438 A    
C70   C166  1.414806 A    
C44   C59   1.412589 A    
C65   C161  1.419867 A    
C18   H18   1.080457 S    
C97   C136  1.404587 S    
C6    N6    1.338459 A    
N16   Ni3   1.844854 S    
C83   C163  1.412287 A    
C60   C76   1.414797 A    
C101  C132  1.473778 S    
C94   N46   1.434474 S    
C82   N34   1.436052 S    
C25   N25   1.335850 A    
N61   O58   1.301282 A    
C28   C105  1.387312 A    
C29   N29   1.338740 A    
C76   C172  1.414041 A    
N60   O56   1.301284 A    
C31   N31   1.335877 A    
N2    N11   1.385181 A    
N5    Ni2   1.863770 S    
C82   C162  1.414029 A    
C17   N17   1.335878 A    
C22   N22   1.338111 A    
N64   O64   1.301141 A    
N22   Ni5   1.863773 S    
C28   N28   1.337017 A    
H33   C113  1.084336 S    
C111  C142  1.472168 S    
N37   O10   1.301171 A    
N41   O17   1.300844 A    
C66   C73   1.401125 A    
N11   Ni3   1.886911 S    
N43   O21   1.300770 A    
H52   C148  1.077250 S    
N49   O33   1.301188 A    
C53   C117  1.396971 A    
C15   H15   1.075797 S    
H46   C126  1.078319 S    
N8    Ni3   1.844848 S    
C1    H1    1.081517 S    
C51   C67   1.413929 A    
N53   O41   1.301159 A    
N20   Ni8   1.886923 S    
C152  C168  1.390115 A    
C49   C65   1.419426 A    
C62   C126  1.397366 A    
N50   O36   1.301301 A    
C88   C168  1.410840 A    
C123  C139  1.399920 A    
C44   N60   1.438260 S    
C4    C100  1.364195 A    
C35   C91   1.405451 A    
C57   C73   1.414078 A    
C48   C88   1.402008 A    
C33   C89   1.405953 A    
C8    C104  1.384607 A    
C26   H26   1.080444 S    
C65   C74   1.385974 A    
N63   O62   1.301218 A    
C124  C140  1.400052 A    
C11   H11   1.078006 S    
C26   C107  1.378916 A    
C7    N7    1.336593 A    
H43   C123  1.078336 S    
N27   Ni7   1.886911 S    
C23   N23   1.335834 A    
C86   C166  1.411752 A    
C51   C115  1.398533 A    
C9    N9    1.326612 A    
C106  C143  1.411768 S    
N3    Ni3   1.886920 S    
C49   C113  1.376611 A    
C60   C124  1.398580 A    
C13   N13   1.338147 A    
C114  C130  1.398402 A    
C61   C77   1.413057 A    
C98   C135  1.472707 S    
C29   C112  1.387397 A    
N33   O1    1.301047 A    
C137  C153  1.400254 A    
C118  C134  1.400420 A    
N43   O22   1.301139 A    
N15   Ni4   1.844854 S    
C102  C131  1.473885 S    
N30   Ni6   1.863180 S    
H63   C159  1.083971 S    
C66   C162  1.415357 A    
N8    N13   1.385050 A    
C68   C164  1.414727 A    
H54   C150  1.077900 S    
C69   C165  1.414708 A    
C63   C127  1.392223 A    
C80   C176  1.414666 A    
C12   C97   1.363250 A    
N39   O14   1.301203 A    
H53   C149  1.077222 S    
C32   C109  1.384994 A    
C95   N47   1.437365 S    
C71   C80   1.400917 A    
C32   N32   1.335516 A    
N54   O44   1.301262 A    
C22   C110  1.393096 A    
N20   N25   1.385050 A    
N19   Ni7   1.886920 S    
C90   C170  1.408777 A    
C156  C172  1.397410 A    
N42   O19   1.301047 A    
C89   N41   1.434587 S    
N19   N26   1.385050 A    
N24   N29   1.385050 A    
C87   N39   1.435772 S    
C116  C132  1.400681 A    
C3    N3    1.339152 A    
C39   N55   1.437315 S    
C38   C94   1.405462 A    
C31   H31   1.076892 S    
C153  C169  1.398634 A    
N46   O27   1.300777 A    
H62   C158  1.077884 S    
H40   C120  1.083612 S    
C77   C173  1.414518 A    
C20   H20   1.079893 S    
C27   H27   1.080612 S    
C21   H21   1.079794 S    
C10   N10   1.334026 A    
N7    Ni4   1.844847 S    
H58   C154  1.084180 S    
C42   C57   1.411645 A    
C73   C169  1.414717 A    
N58   O51   1.301740 A    
C160  C176  1.398463 A    
N36   O8    1.301140 A    
C14   N14   1.338561 A    
N45   O25   1.300787 A    
H35   C115  1.078712 S    
C46   C61   1.413227 A    
C5    C101  1.387722 A    
C19   H19   1.080545 S    
C87   C167  1.413353 A    
C47   C87   1.404925 A    
H48   C128  1.078256 S    
N52   O39   1.301191 A    
N5    N16   1.385181 A    
N7    N14   1.385050 A    
