data_mof_unit_40586.cif
_audit_creation_date              2012-12-11T15:53:59-0500
_audit_creation_method            fapswitch 2.2
_symmetry_space_group_name_H-M    P1
_symmetry_Int_Tables_number       1
_space_group_crystal_system       triclinic
_cell_length_a                    10.689962
_cell_length_b                    10.719016
_cell_length_c                    17.104297
_cell_angle_alpha                 80.468814
_cell_angle_beta                  99.520137
_cell_angle_gamma                 118.58131
_cell_volume                      1688.89131435

loop_
_atom_site_label
_atom_site_type_symbol
_atom_type_description
_atom_site_fract_x
_atom_site_fract_y
_atom_site_fract_z
_atom_type_partial_charge
C1    C     C_R   0.384024 0.283327 0.631987 0.557280
C2    C     C_1   0.332640 0.185956 0.781348 -0.044218
C3    C     C_1   0.336179 0.664350 0.277689 -0.055121
C4    C     C_R   0.378393 0.647767 0.591762 0.542787
C5    C     C_1   0.323345 0.673939 0.207042 -0.053500
C6    C     C_R   0.854229 0.682613 0.164370 0.019607
C7    C     C_R   0.900019 0.598977 0.220877 0.031202
C8    C     C_R   0.892816 0.592244 0.300253 0.011162
C9    C     C_R   0.815986 0.774583 0.273564 -0.136535
C10   C     C_R   0.820039 0.781198 0.191004 -0.032048
C11   C     C_3   0.863312 0.445193 0.224486 -0.267375
C12   C     C_R   0.488163 0.732312 0.722522 -0.141651
C13   C     C_3   0.854643 0.436596 0.312719 -0.267509
C14   C     C_R   0.839043 0.670699 0.327080 0.001091
C15   C     C_R   0.339087 0.179077 0.156696 0.018570
C16   C     C_R   0.776008 0.618416 0.627125 0.539189
C17   C     C_R   0.281070 0.259258 0.177948 0.007759
C18   C     C_R   0.285501 0.272929 0.256731 0.035178
C19   C     C_R   0.431443 0.153897 0.294966 -0.169833
C20   C     C_R   0.427603 0.139558 0.214954 -0.166077
C21   C     C_3   0.137029 0.254143 0.159196 -0.281770
C22   C     C_3   0.142216 0.268329 0.246523 -0.264371
C23   C     C_R   0.481804 0.734819 0.802952 -0.036902
C24   C     C_R   0.346921 0.207477 0.316568 0.026196
C25   C     C_R   0.892246 0.702239 0.855747 0.536278
C26   C     C_R   0.315951 0.705908 0.899099 0.543512
C27   C     C_R   0.286014 0.117934 0.858200 0.555821
C28   C     C_R   0.354229 0.232824 0.397429 0.555216
C29   C     C_R   0.888166 0.692581 0.084355 0.537898
C30   C     C_R   0.312719 0.701262 0.123967 0.548308
C31   C     C_R   0.287683 0.110380 0.083932 0.556141
C32   C     C_R   0.365720 0.653955 0.360672 0.553769
C33   C     C_R   0.773520 0.623541 0.400641 0.550648
C34   C     C_3   0.079144 0.518425 0.771511 -0.241010
C35   C     C_R   0.346881 0.656595 0.834057 0.019242
C36   C     C_R   0.233867 0.553867 0.788753 -0.001374
C37   C     C_R   0.243955 0.549761 0.710004 0.008002
C38   C     C_3   0.619454 0.825936 0.851093 -0.229522
C39   C     C_3   0.668583 0.986463 0.828765 -0.280895
C40   C     C_3   0.799325 0.075733 0.883415 -0.429510
C41   C     C_3   0.777579 0.882297 0.132075 -0.249430
C42   C     C_3   0.739007 0.980472 0.168224 -0.315071
C43   C     C_3   0.720571 0.090351 0.104547 -0.423833
C44   C     C_3   0.090878 0.511997 0.685368 -0.259749
C45   C     C_R   0.364676 0.651132 0.673744 0.006217
C46   C     C_1   0.821120 0.656040 0.706275 -0.054154
C47   C     C_1   0.849301 0.684377 0.773819 -0.066954
C48   C     C_1   0.364078 0.232616 0.714302 -0.042402
Cr1   Cr    Cr6+3 0.608440 0.389080 0.519680 1.014064
Cr2   Cr    Cr6+3 0.288640 0.400090 0.490760 1.012196
Cr3   Cr    Cr6+3 0.602940 0.710800 0.489510 1.009180
Cr4   Cr    Cr6+3 0.052530 0.947560 0.964210 0.978569
Cr5   Cr    Cr6+3 0.059970 0.626800 0.992920 0.999425
Cr6   Cr    Cr6+3 0.373320 0.938440 0.995370 0.980372
H1    H     H_    0.590254 0.796301 0.698108 0.147166
H2    H     H_    0.061752 0.171502 0.278830 0.139495
H3    H     H_    0.060516 0.608588 0.779213 0.166143
H4    H     H_    0.007820 0.413388 0.801795 0.141952
H5    H     H_    0.028726 0.402503 0.666208 0.152722
H6    H     H_    0.076793 0.596812 0.643742 0.143188
H7    H     H_    0.779548 0.838896 0.295789 0.140176
H8    H     H_    0.953595 0.430964 0.211024 0.148149
H9    H     H_    0.776376 0.044668 0.946648 0.131260
H10   H     H_    0.891833 0.060573 0.875290 0.194219
H11   H     H_    0.827788 0.190394 0.868797 0.127993
H12   H     H_    0.758230 0.381716 0.191054 0.137332
H13   H     H_    0.696665 0.016604 0.766289 0.151425
H14   H     H_    0.581534 0.012962 0.832779 0.206238
H15   H     H_    0.611262 0.796584 0.916121 0.158305
H16   H     H_    0.702090 0.801572 0.837759 0.152386
H17   H     H_    0.823581 0.163680 0.079324 0.122216
H18   H     H_    0.638997 0.037100 0.055524 0.191532
H19   H     H_    0.686352 0.154973 0.131427 0.136978
H20   H     H_    0.638487 0.915725 0.197341 0.189512
H21   H     H_    0.825919 0.040451 0.213466 0.145379
H22   H     H_    0.867571 0.954372 0.096651 0.178616
H23   H     H_    0.744185 0.365318 0.329327 0.167427
H24   H     H_    0.685357 0.817383 0.090548 0.149187
H25   H     H_    0.939883 0.416771 0.350387 0.140518
H26   H     H_    0.492961 0.115761 0.339784 0.129482
H27   H     H_    0.480059 0.082484 0.200689 0.141595
H28   H     H_    0.051689 0.149949 0.141538 0.160097
H29   H     H_    0.140557 0.348463 0.119222 0.148654
H30   H     H_    0.148753 0.370602 0.257236 0.146083
O1    O     O_R   0.754020 0.497590 0.609930 -0.519468
O2    O     O_R   0.406180 0.826930 0.920660 -0.532825
O3    O     O_R   0.358620 0.062870 0.901950 -0.502309
O4    O     O_R   0.481420 0.271390 0.600630 -0.489430
O5    O     O_R   0.163910 0.085460 0.050210 -0.529674
O6    O     O_R   0.935200 0.815170 0.045770 -0.520758
O7    O     O_R   0.916120 0.596690 0.069430 -0.515716
O8    O     O_R   0.192310 0.631200 0.086170 -0.506670
O9    O     O_R   0.406770 0.819480 0.096420 -0.533612
O10   O     O_R   0.359170 0.055960 0.064880 -0.512510
O11   O     O_3   0.161940 0.837600 0.984160 -0.234671
O12   O     O_R   0.295080 0.533620 0.397890 -0.505129
O13   O     O_R   0.263810 0.254550 0.589590 -0.503334
O14   O     O_R   0.300820 0.531200 0.560890 -0.510176
O15   O     O_R   0.491480 0.744020 0.564270 -0.523290
O16   O     O_R   0.726290 0.693800 0.583010 -0.502279
O17   O     O_R   0.747830 0.500190 0.434090 -0.521619
O18   O     O_R   0.475680 0.273800 0.437630 -0.501445
O19   O     O_R   0.257620 0.257160 0.413750 -0.516938
O20   O     O_R   0.485280 0.746620 0.388440 -0.516325
O21   O     O_R   0.720550 0.696220 0.420010 -0.509149
O22   O     O_3   0.500010 0.499990 0.499980 -0.269890
O23   O     O_R   0.163320 0.092900 0.874450 -0.516622
O24   O     O_R   0.934650 0.822080 0.882840 -0.511448
O25   O     O_R   0.915520 0.604140 0.893670 -0.519130
O26   O     O_R   0.191760 0.638110 0.923230 -0.505067

loop_
_geom_bond_atom_site_label_1
_geom_bond_atom_site_label_2
_ccdc_geom_bond_type
Cr5   O26   S    
C43   H19   S    
C38   H16   S    
C8    C13   S    
C4    O14   A    
Cr5   O11   S    
C39   H14   S    
Cr4   O6    S    
C19   C20   A    
C29   O7    A    
C11   H8    S    
C14   C33   S    
C13   H25   S    
C7    C8    A    
C7    C11   S    
C12   C23   A    
C42   H21   S    
C43   H18   S    
C40   H9    S    
C9    H7    S    
C36   C37   A    
C30   O9    A    
Cr1   O17   S    
Cr6   O3    S    
C44   H5    S    
Cr4   O11   S    
C41   C42   S    
Cr6   O9    S    
C21   H29   S    
Cr4   O23   S    
C31   O5    A    
Cr5   O7    S    
C34   H3    S    
C8    C14   A    
C32   O20   A    
C2    C27   S    
C18   C24   A    
C9    C10   A    
C26   O26   A    
C11   H12   S    
C25   O25   A    
C1    O4    A    
C38   H15   S    
Cr2   O19   S    
C20   H27   S    
C10   C41   S    
Cr1   O4    S    
Cr4   O5    S    
C3    C32   S    
C29   O6    A    
C4    C45   S    
Cr3   O15   S    
C15   C20   A    
C13   H23   S    
Cr2   O14   S    
C42   H20   S    
Cr1   O1    S    
C34   C44   S    
C30   O8    A    
C16   C46   S    
C41   H24   S    
Cr6   O2    S    
C16   O16   A    
C22   H2    S    
C2    C48   T    
Cr3   O20   S    
C17   C21   S    
C35   C36   A    
C22   H30   S    
C9    C14   A    
C27   O23   A    
C26   O2    A    
Cr5   O8    S    
C17   C18   A    
C33   O21   A    
C27   O3    A    
Cr6   O11   S    
Cr1   O22   S    
C32   O12   A    
C23   C35   A    
C40   H11   S    
C16   O1    A    
C33   O17   A    
C42   C43   S    
C1    O13   A    
C31   O10   A    
Cr1   O18   S    
Cr2   O22   S    
C5    C30   S    
Cr5   O25   S    
Cr3   O16   S    
C15   C17   A    
C25   C47   S    
C46   C47   T    
Cr2   O13   S    
C43   H17   S    
C18   C22   S    
C39   H13   S    
C24   C28   S    
C12   C45   A    
C3    C5    T    
C6    C10   A    
C1    C48   S    
C15   C31   S    
C6    C7    A    
C23   C38   S    
C40   H10   S    
C37   C44   S    
C19   C24   A    
C41   H22   S    
C11   C13   S    
C28   O19   A    
Cr2   O12   S    
C38   C39   S    
C44   H6    S    
Cr3   O22   S    
C34   C36   S    
C19   H26   S    
Cr3   O21   S    
Cr6   O10   S    
C12   H1    S    
C39   C40   S    
C28   O18   A    
C26   C35   S    
C6    C29   S    
C21   H28   S    
Cr4   O24   S    
C4    O15   A    
C34   H4    S    
C21   C22   S    
C37   C45   A    
C25   O24   A    
