data_mof_unit_6560.cif
_audit_creation_date              2012-12-10T17:43:32-0500
_audit_creation_method            fapswitch 2.2
_symmetry_space_group_name_H-M    P1
_symmetry_Int_Tables_number       1
_space_group_crystal_system       triclinic
_cell_length_a                    15.003706
_cell_length_b                    10.717305
_cell_length_c                    9.928165
_cell_angle_alpha                 90.049426
_cell_angle_beta                  89.540841
_cell_angle_gamma                 93.619457
_cell_volume                      1593.20630764

loop_
_atom_site_label
_atom_site_type_symbol
_atom_type_description
_atom_site_fract_x
_atom_site_fract_y
_atom_site_fract_z
_atom_type_partial_charge
C1    C     C_R   0.507888 0.261066 0.500604 0.869929
C2    C     C_R   0.184465 0.481026 0.381561 -0.256864
C3    C     C_R   0.231051 0.502494 0.501162 -0.090244
C4    C     C_R   0.326817 0.500323 0.500394 0.879551
C5    C     C_R   0.186448 0.527135 0.621261 -0.253057
C6    C     C_R   0.548383 0.118067 0.750431 -0.156271
C7    C     C_R   0.529484 0.058774 0.873209 -0.142434
C8    C     C_R   0.480678 0.944257 0.875517 -0.163929
C9    C     C_R   0.458867 0.883729 0.754748 -0.166604
C10   C     C_R   0.486039 0.937791 0.629327 0.099064
C11   C     C_R   0.517932 0.062951 0.627770 0.087209
C12   C     C_R   0.907592 0.531025 0.623518 0.031907
C13   C     C_R   0.515564 0.128043 0.503618 -0.130292
C14   C     C_R   0.503862 0.063626 0.382064 -0.221633
C15   C     C_R   0.491748 0.936096 0.382606 -0.218165
C16   C     C_R   0.492482 0.739069 0.501032 0.882157
C17   C     C_R   0.484522 0.872108 0.505036 -0.127443
C18   C     C_R   0.390583 0.326755 0.150602 -0.164335
C19   C     C_R   0.341366 0.229610 0.091967 -0.260869
C20   C     C_R   0.338735 0.221672 0.954980 -0.218264
C21   C     C_R   0.383708 0.312322 0.873274 0.141205
C22   C     C_R   0.444286 0.409828 0.930475 0.138546
C23   C     C_R   0.953637 0.461905 0.260986 -0.218214
C24   C     C_R   0.445626 0.412666 0.075552 0.133785
C25   C     C_R   0.551844 0.583662 0.070504 -0.126020
C26   C     C_R   0.551776 0.583781 0.927724 -0.140457
C27   C     C_R   0.673286 0.501344 0.499647 0.886553
C28   C     C_R   0.814872 0.528773 0.620205 -0.246045
C29   C     C_R   0.769385 0.504607 0.499732 -0.071763
C30   C     C_R   0.815405 0.483683 0.380211 -0.260865
C31   C     C_R   0.907562 0.485006 0.380552 0.145220
C32   C     C_R   0.954045 0.508453 0.502397 0.032805
C33   C     C_3   0.125482 0.709353 0.886135 -0.791663
C34   C     C_R   0.045925 0.460629 0.261533 -0.220776
C35   C     C_R   0.092547 0.483421 0.381290 0.149006
C36   C     C_R   0.046826 0.508130 0.502571 0.011608
C37   C     C_R   0.094015 0.531072 0.623564 0.030815
C38   C     C_R   0.048207 0.555747 0.744316 0.204844
C39   C     C_R   0.954715 0.554831 0.744686 0.019349
H1    H     H_    0.777276 0.546010 0.711013 0.160725
H2    H     H_    0.295741 0.147893 0.910504 0.149233
H3    H     H_    0.779573 0.464828 0.287171 0.159837
H4    H     H_    0.594164 0.652433 0.873628 0.151634
H5    H     H_    0.918264 0.443868 0.167495 0.147143
H6    H     H_    0.080899 0.441034 0.168762 0.141289
H7    H     H_    0.219547 0.461403 0.288686 0.162719
H8    H     H_    0.224231 0.543429 0.712775 0.194015
H9    H     H_    0.503724 0.111494 0.285957 0.176354
H10   H     H_    0.363557 0.213792 0.702083 0.176349
H11   H     H_    0.288547 0.319063 0.733802 0.165645
H12   H     H_    0.587664 0.206106 0.753057 0.163164
H13   H     H_    0.065516 0.540339 0.950545 0.243230
H14   H     H_    0.066898 0.766940 0.898602 0.251252
H15   H     H_    0.166720 0.745058 0.799290 0.241688
H16   H     H_    0.166808 0.718319 0.978330 0.237935
H17   H     H_    0.866025 0.502647 0.893054 0.176231
H18   H     H_    0.872668 0.658547 0.856367 0.189134
H19   H     H_    0.550348 0.103509 0.966585 0.139731
H20   H     H_    0.461564 0.900864 0.970759 0.137674
H21   H     H_    0.419087 0.796258 0.761253 0.165400
H22   H     H_    0.488345 0.887832 0.286637 0.168675
H23   H     H_    0.594396 0.652275 0.123469 0.145562
H24   H     H_    0.382394 0.331544 0.256110 0.220050
H25   H     H_    0.301930 0.162911 0.153307 0.162862
N1    N     N_R   0.499150 0.498800 0.142780 -0.118822
N2    N     N_R   0.499120 0.498720 0.857170 -0.115587
N3    N     N_3   0.356937 0.305041 0.736901 -0.360882
N4    N     N_2   0.096191 0.579544 0.866033 -0.311345
N5    N     N_3   0.909383 0.579713 0.868887 -0.475760
O1    O     O_R   0.500000 0.316780 0.614690 -0.614167
O2    O     O_R   0.499990 0.316750 0.385360 -0.644465
O3    O     O_R   0.367850 0.499980 0.614680 -0.611517
O4    O     O_R   0.367840 0.499960 0.385350 -0.647147
O5    O     O_R   0.500010 0.683250 0.614640 -0.629716
O6    O     O_R   0.500000 0.683220 0.385310 -0.618774
O7    O     O_R   0.632160 0.500040 0.614650 -0.630194
O8    O     O_R   0.632150 0.500020 0.385320 -0.620049
Zn1   Zn    Zn3+2 0.500010 0.500020 0.653130 0.940904
Zn2   Zn    Zn3+2 0.499990 0.499980 0.346870 0.932646

loop_
_geom_bond_atom_site_label_1
_geom_bond_atom_site_label_2
_ccdc_geom_bond_type
C2    C35   A    
C33   H16   S    
N1    Zn2   S    
C5    C37   A    
O1    Zn1   S    
C16   O6    A    
C19   C20   A    
O2    Zn2   S    
C20   H2    S    
C7    C8    A    
C2    H7    S    
C5    H8    S    
C1    O2    A    
C12   C28   A    
C16   O5    A    
C32   C36   A    
C28   C29   A    
C37   C38   A    
O7    Zn1   S    
C18   C19   A    
C8    H20   S    
C30   C31   A    
C18   H24   S    
C27   C29   S    
C28   H1    S    
C10   C17   A    
C34   C35   A    
C22   N2    A    
O3    Zn1   S    
C35   C36   A    
C8    C9    A    
C18   C24   A    
C6    H12   S    
C9    C10   A    
C7    H19   S    
H13   N4    S    
C13   C14   A    
C21   N3    S    
C33   H14   S    
C15   H22   S    
C26   H4    S    
O8    Zn2   S    
O4    Zn2   S    
N2    Zn1   S    
C26   N2    A    
C25   N1    A    
C6    C11   A    
C16   C17   S    
C14   H9    S    
C27   O8    A    
C25   C26   A    
C23   H5    S    
C23   C31   A    
C29   C30   A    
C31   C32   A    
C19   H25   S    
C23   C34   A    
C39   N5    S    
C34   H6    S    
C4    O4    A    
C24   N1    A    
C38   N4    S    
C22   C24   A    
C1    C13   S    
C27   O7    A    
C4    O3    A    
H11   N3    S    
C33   H15   S    
C15   C17   A    
C36   C37   A    
H10   N3    S    
C3    C5    A    
C6    C7    A    
C1    O1    A    
C9    H21   S    
C12   C39   A    
C2    C3    A    
C11   C13   A    
C38   C39   A    
C25   H23   S    
C10   C11   A    
C20   C21   A    
H17   N5    S    
O5    Zn1   S    
C14   C15   A    
C30   H3    S    
H18   N5    S    
C21   C22   A    
O6    Zn2   S    
C12   C32   A    
C3    C4    S    
C33   N4    S    
