data_mof_unit_19705.cif
_audit_creation_date              2012-12-10T19:05:54-0500
_audit_creation_method            fapswitch 2.2
_symmetry_space_group_name_H-M    P1
_symmetry_Int_Tables_number       1
_space_group_crystal_system       triclinic
_cell_length_a                    19.342732
_cell_length_b                    10.870341
_cell_length_c                    9.565987
_cell_angle_alpha                 91.283638
_cell_angle_beta                  90.442785
_cell_angle_gamma                 90.524413
_cell_volume                      2010.71215167

loop_
_atom_site_label
_atom_site_type_symbol
_atom_type_description
_atom_site_fract_x
_atom_site_fract_y
_atom_site_fract_z
_atom_type_partial_charge
C1    C     C_R   0.497396 0.262977 0.498687 0.868168
C2    C     C_R   0.291377 0.496635 0.498129 -0.075941
C3    C     C_R   0.929665 0.486140 0.496462 0.378446
C4    C     C_R   0.069757 0.491669 0.496235 0.437015
C5    C     C_R   0.818511 0.500995 0.622060 -0.212336
C6    C     C_R   0.746591 0.506337 0.624188 -0.221167
C7    C     C_R   0.708436 0.494476 0.499486 -0.106665
C8    C     C_R   0.743209 0.474598 0.372936 -0.181989
C9    C     C_R   0.814959 0.464632 0.369794 0.424287
C10   C     C_R   0.853586 0.481982 0.495519 -0.039466
C11   C     C_R   0.526596 0.066339 0.599449 -0.050126
C12   C     C_R   0.367450 0.499433 0.499578 0.766208
C13   C     C_R   0.492753 0.130481 0.497083 -0.256620
C14   C     C_R   0.453027 0.061504 0.397053 0.362536
C15   C     C_R   0.454563 0.931101 0.397214 0.365706
C16   C     C_R   0.493119 0.869838 0.501953 -0.273375
C17   C     C_R   0.526637 0.942431 0.603218 -0.167340
C18   C     C_3   0.571869 0.945125 0.732949 0.280262
C19   C     C_3   0.571692 0.086729 0.724176 0.299684
C20   C     C_R   0.557750 0.534571 0.075514 0.187764
C21   C     C_R   0.446259 0.450145 0.069954 0.447629
C22   C     C_R   0.445793 0.453681 0.922290 -0.068979
C23   C     C_R   0.498600 0.737246 0.501099 0.828366
C24   C     C_R   0.558104 0.532983 0.928312 0.188785
C25   C     C_3   0.594928 0.653566 0.925971 -0.424281
C26   C     C_3   0.594192 0.655663 0.084746 -0.472425
C27   C     C_R   0.632508 0.499127 0.500247 0.813247
C28   C     C_R   0.254510 0.502010 0.623644 -0.191091
C29   C     C_R   0.182543 0.499375 0.621847 -0.236453
C30   C     C_R   0.145925 0.492140 0.494611 0.026182
C31   C     C_R   0.182492 0.485008 0.367569 0.422853
C32   C     C_R   0.255093 0.487147 0.370807 -0.313648
Cu1   Cu    Cu3+1 0.500000 0.499980 0.640670 0.936769
Cu2   Cu    Cu3+1 0.500000 0.500020 0.359330 0.964216
H1    H     H_    0.281199 0.508740 0.723512 0.164395
H2    H     H_    0.543189 0.915127 0.826293 0.060729
H3    H     H_    0.543931 0.136227 0.810192 0.034280
H4    H     H_    0.401934 0.415956 0.864549 0.159824
H5    H     H_    0.647656 0.645974 0.881600 0.200623
H6    H     H_    0.562020 0.724481 0.879608 0.224308
H7    H     H_    0.646581 0.648320 0.132220 0.195256
H8    H     H_    0.155410 0.504812 0.720398 0.176838
H9    H     H_    0.561543 0.729894 0.130132 0.232279
H10   H     H_    0.283084 0.481068 0.273449 0.195180
H11   H     H_    0.846848 0.513866 0.719485 0.182990
H12   H     H_    0.720994 0.520715 0.723342 0.164010
H13   H     H_    0.714541 0.462384 0.275767 0.167899
N1    N     N_R   0.033229 0.536861 0.387555 -0.150276
N2    N     N_R   0.964527 0.534523 0.387857 -0.204375
N3    N     N_R   0.966078 0.443684 0.606924 -0.223654
N4    N     N_R   0.034883 0.446379 0.606778 -0.241236
N5    N     N_R   0.500440 0.500930 0.147930 -0.226921
N6    N     N_R   0.500440 0.500890 0.852020 -0.220998
O1    O     O_R   0.500000 0.319640 0.618810 -0.584799
O2    O     O_R   0.500010 0.319680 0.381230 -0.579521
O3    O     O_R   0.400140 0.499970 0.618830 -0.598120
O4    O     O_R   0.400150 0.500010 0.381250 -0.572350
O5    O     O_R   0.499990 0.680320 0.618770 -0.580911
O6    O     O_R   0.500000 0.680360 0.381190 -0.544335
O7    O     O_R   0.599850 0.499990 0.618750 -0.575642
O8    O     O_R   0.599860 0.500030 0.381170 -0.592357
O9    O     O_3   0.421593 0.865989 0.289592 -0.540264
C33   C     C_3   0.357001 0.822301 0.336396 0.113041
H14   H     H_    0.324245 0.898655 0.375887 0.127424
H15   H     H_    0.363439 0.754815 0.420947 0.122975
C34   C     C_3   0.319114 0.759002 0.214515 -0.740924
H16   H     H_    0.349017 0.678422 0.176262 0.262016
H17   H     H_    0.267294 0.727418 0.248508 0.200872
H18   H     H_    0.312478 0.824254 0.127838 0.244889
O10   O     O_3   0.639960 0.895476 0.728178 -0.559048
C35   C     C_3   0.662372 0.859962 0.593040 0.152022
H19   H     H_    0.654765 0.934367 0.516519 0.178102
H20   H     H_    0.634731 0.774982 0.557276 0.122824
C36   C     C_3   0.739195 0.832087 0.599150 -0.770772
H21   H     H_    0.749663 0.763999 0.681240 0.251955
H22   H     H_    0.756375 0.793950 0.496620 0.206903
H23   H     H_    0.769044 0.917596 0.623974 0.250982
O11   O     O_3   0.636178 0.136744 0.684989 -0.547002
C37   C     C_3   0.669607 0.190145 0.803367 0.106062
H24   H     H_    0.665252 0.131335 0.897100 0.145936
H25   H     H_    0.646894 0.281885 0.827158 0.141585
C38   C     C_3   0.746030 0.206741 0.772028 -0.736402
H26   H     H_    0.752633 0.254588 0.671741 0.260885
H27   H     H_    0.771482 0.261820 0.857326 0.209060
H28   H     H_    0.771226 0.115564 0.763736 0.246963
O12   O     O_3   0.391699 0.391937 0.130913 -0.766020
H29   H     H_    0.411307 0.345284 0.208496 0.384568
O13   O     O_3   0.146722 0.473144 0.242305 -0.713728
H30   H     H_    0.180116 0.468944 0.164224 0.323894
O14   O     O_3   0.844616 0.434984 0.242903 -0.723369
H31   H     H_    0.887396 0.388282 0.260331 0.338489
O15   O     O_3   0.410542 0.118471 0.301680 -0.553379
C39   C     C_3   0.349758 0.158441 0.370376 0.049252
H32   H     H_    0.357591 0.253466 0.412100 0.142327
H33   H     H_    0.334432 0.099744 0.459520 0.103936
C40   C     C_3   0.289665 0.158049 0.266619 -0.729316
H34   H     H_    0.279830 0.063288 0.225082 0.241703
H35   H     H_    0.242334 0.191774 0.319504 0.207978
H36   H     H_    0.301253 0.218709 0.178013 0.274246

loop_
_geom_bond_atom_site_label_1
_geom_bond_atom_site_label_2
_ccdc_geom_bond_type
C18   O10   S    
C23   O5    A    
C34   H17   S    
C33   H15   S    
Cu1   O5    S    
C29   H8    S    
C2    C12   S    
C3    N2    A    
C7    C8    A    
C23   O6    A    
C11   C19   S    
C39   H32   S    
C36   H22   S    
C28   C29   A    
C27   O7    A    
C25   H6    S    
C30   C31   A    
C34   H18   S    
C15   C16   A    
C22   H4    S    
C40   H36   S    
C7    C27   S    
C2    C32   A    
C18   C19   S    
C27   O8    A    
C20   C24   A    
C28   H1    S    
C8    C9    A    
C36   H23   S    
C40   H35   S    
Cu2   O4    S    
O10   C35   S    
C19   H3    S    
C9    C10   A    
Cu1   O3    S    
C34   H16   S    
C33   C34   S    
Cu2   O2    S    
C39   H33   S    
C13   C14   A    
C3    N3    A    
C26   H9    S    
C17   C18   S    
C22   N6    A    
Cu1   N6    S    
C36   H21   S    
C4    N4    A    
C24   C25   S    
C37   H25   S    
O11   C37   S    
C16   C17   A    
N3    N4    A    
C24   N6    A    
C5    H11   S    
Cu2   O8    S    
C37   H24   S    
C19   O11   S    
C1    O1    A    
C29   C30   A    
C35   C36   S    
C31   C32   A    
C40   H34   S    
O9    C33   S    
Cu1   Cu2   S    
C32   H10   S    
Cu1   O7    S    
C14   O15   S    
C12   O3    A    
C12   O4    A    
N1    N2    A    
C16   C23   S    
C38   H27   S    
Cu2   O6    S    
C1    C13   S    
C35   H20   S    
C4    N1    A    
Cu1   O1    S    
C21   O12   S    
C11   C17   A    
C31   O13   S    
C6    H12   S    
O12   H29   S    
C9    O14   S    
C37   C38   S    
C6    C7    A    
C39   C40   S    
C38   H28   S    
Cu2   N5    S    
C25   C26   S    
C8    H13   S    
C5    C10   A    
C20   N5    A    
C3    C10   S    
C25   H5    S    
C11   C13   A    
O14   H31   S    
C5    C6    A    
C20   C26   S    
O15   C39   S    
C15   O9    S    
C1    O2    A    
C33   H14   S    
C35   H19   S    
O13   H30   S    
C38   H26   S    
C14   C15   A    
C2    C28   A    
C21   C22   A    
C18   H2    S    
C21   N5    A    
C4    C30   S    
C26   H7    S    
