data_mof_unit_30031.cif
_audit_creation_date              2012-12-10T20:51:43-0500
_audit_creation_method            fapswitch 2.2
_symmetry_space_group_name_H-M    P1
_symmetry_Int_Tables_number       1
_space_group_crystal_system       triclinic
_cell_length_a                    8.106852
_cell_length_b                    8.934019
_cell_length_c                    16.687096
_cell_angle_alpha                 89.487684
_cell_angle_beta                  94.975691
_cell_angle_gamma                 90.055326
_cell_volume                      1203.9898297

loop_
_atom_site_label
_atom_site_type_symbol
_atom_type_description
_atom_site_fract_x
_atom_site_fract_y
_atom_site_fract_z
_atom_type_partial_charge
C1    C     C_R   0.499927 0.217986 0.499996 0.935992
C2    C     C_R   0.500072 0.782014 0.500004 0.935983
C3    C     C_R   0.522080 0.503680 0.653972 0.870547
C4    C     C_R   0.477920 0.496330 0.346028 0.870570
C5    C     C_R   0.538346 0.523591 0.740589 -0.087040
C6    C     C_R   0.461666 0.476534 0.259405 -0.087047
C7    C     C_R   0.430794 0.619632 0.778298 -0.087476
C8    C     C_R   0.569263 0.380585 0.221664 -0.087467
C9    C     C_R   0.446049 0.629730 0.862356 -0.035199
C10   C     C_R   0.554093 0.370675 0.137598 -0.035204
C11   C     C_R   0.567058 0.542970 0.907180 0.261713
C12   C     C_R   0.433101 0.457504 0.092802 0.261736
C13   C     C_R   0.680948 0.458670 0.868947 -0.175547
C14   C     C_R   0.319157 0.541699 0.131060 -0.175566
C15   C     C_R   0.666714 0.448715 0.785915 -0.222644
C16   C     C_R   0.333322 0.551486 0.214098 -0.222651
C17   C     C_1   0.499918 0.065188 0.499994 -0.177440
C18   C     C_1   0.500082 0.934812 0.500006 -0.177436
H1    H     H_    0.775022 0.393997 0.903913 0.165818
H2    H     H_    0.225085 0.606413 0.096112 0.165795
H3    H     H_    0.752119 0.377837 0.757160 0.169955
H4    H     H_    0.247884 0.622296 0.242875 0.169962
N1    N     N_1   0.073640 0.500030 0.499990 -0.022917
N2    N     N_1   0.926360 0.499970 0.500010 -0.022919
N3    N     N_2   0.566507 0.527777 0.990754 -0.179542
N4    N     N_2   0.433640 0.472770 0.009230 -0.179534
O1    O     O_R   0.636850 0.285340 0.500000 -0.610682
O2    O     O_R   0.363150 0.714660 0.500000 -0.610682
O3    O     O_R   0.363100 0.285350 0.500000 -0.611473
O4    O     O_R   0.636900 0.714650 0.500000 -0.611473
O5    O     O_R   0.652140 0.498630 0.616140 -0.617671
O6    O     O_R   0.347860 0.501370 0.383860 -0.617683
O7    O     O_R   0.378390 0.498650 0.616130 -0.609843
O8    O     O_R   0.621610 0.501350 0.383870 -0.609846
Zn1   Zn    Zn3+2 0.682780 0.499990 0.500010 1.007996
Zn2   Zn    Zn3+2 0.317220 0.500010 0.499990 1.007994
C19   C     C_1   0.691916 0.290296 0.268559 0.198131
N5    N     N_1   0.789664 0.218212 0.305931 -0.179587
C20   C     C_1   0.308088 0.709811 0.731376 0.198131
N6    N     N_1   0.210288 0.781804 0.693980 -0.179566
C21   C     C_1   0.662277 0.273433 0.096802 0.198543
N7    N     N_1   0.748601 0.195854 0.064218 -0.191650
C22   C     C_1   0.337945 0.727101 0.903120 0.198528
N8    N     N_1   0.251693 0.804789 0.935680 -0.191608

loop_
_geom_bond_atom_site_label_1
_geom_bond_atom_site_label_2
_ccdc_geom_bond_type
C2    O2    A    
N1    N2    T    
C19   N5    T    
C14   C16   A    
C2    C18   S    
C11   C13   A    
C21   N7    T    
C1    C17   S    
C2    O4    A    
C22   N8    T    
C7    C9    A    
C1    O3    A    
C17   C18   T    
C10   C21   S    
C3    O5    A    
C9    C11   A    
O3    Zn2   S    
C4    O6    A    
C10   C12   A    
O4    Zn1   S    
O6    Zn2   S    
C7    C20   S    
C4    C6    S    
C12   C14   A    
N1    Zn2   S    
C4    O8    A    
C13   C15   A    
O5    Zn1   S    
C9    C22   S    
N2    Zn1   S    
C5    C15   A    
C8    C19   S    
C3    O7    A    
C6    C16   A    
C14   H2    S    
C15   H3    S    
O7    Zn2   S    
O2    Zn2   S    
C1    O1    A    
O8    Zn1   S    
C12   N4    S    
C20   N6    T    
C5    C7    A    
C11   N3    S    
C13   H1    S    
C6    C8    A    
O1    Zn1   S    
N3    N4    D    
C8    C10   A    
C16   H4    S    
C3    C5    S    
