data_mof_unit_44920.cif
_audit_creation_date              2013-03-05T15:56:44-0500
_audit_creation_method            fapswitch 2.2
_symmetry_space_group_name_H-M    P1
_symmetry_Int_Tables_number       1
_space_group_crystal_system       triclinic
_cell_length_a                    21.328564
_cell_length_b                    21.41281
_cell_length_c                    13.669436
_cell_angle_alpha                 90.014502
_cell_angle_beta                  89.995606
_cell_angle_gamma                 89.751001
_cell_volume                      6242.83360478

loop_
_atom_site_label
_atom_site_type_symbol
_atom_site_description
_atom_site_fract_x
_atom_site_fract_y
_atom_site_fract_z
_atom_type_partial_charge
O1    O     O_R   0.064880 0.435140 0.582280 -0.562239
O2    O     O_R   0.935120 0.564860 0.417720 -0.592976
O3    O     O_R   0.935120 0.564860 0.582280 -0.561547
O4    O     O_R   0.064880 0.435140 0.417720 -0.592823
O5    O     O_R   0.935120 0.435140 0.417720 -0.599862
O6    O     O_R   0.064880 0.564860 0.582280 -0.547544
O7    O     O_R   0.064880 0.564860 0.417720 -0.599893
O8    O     O_R   0.935120 0.435140 0.582280 -0.547482
O9    O     O_R   0.564880 0.935140 0.582280 -0.596202
O10   O     O_R   0.435120 0.064860 0.417720 -0.554819
O11   O     O_R   0.435120 0.064860 0.582280 -0.596182
O12   O     O_R   0.564880 0.935140 0.417720 -0.554181
O13   O     O_R   0.435120 0.935140 0.417720 -0.552755
O14   O     O_R   0.564880 0.064860 0.582280 -0.599434
O15   O     O_R   0.564880 0.064860 0.417720 -0.552536
O16   O     O_R   0.435120 0.935140 0.582280 -0.599343
C1    C     C_R   0.085036 0.413543 0.500294 0.842705
C2    C     C_R   0.914958 0.586458 0.500317 0.842193
C3    C     C_R   0.915164 0.413290 0.500606 0.833383
C4    C     C_R   0.084862 0.586686 0.500621 0.833453
C5    C     C_R   0.585089 0.913811 0.499908 0.842487
C6    C     C_R   0.414907 0.086181 0.499938 0.843035
C7    C     C_R   0.414206 0.914192 0.499250 0.827879
C8    C     C_R   0.585764 0.085839 0.499255 0.828027
Cu1   Cu    Cu3+1 0.000000 0.500000 0.597420 0.981175
Cu2   Cu    Cu3+1 0.000000 0.500000 0.402580 0.935016
Cu3   Cu    Cu3+1 0.500000 0.000000 0.597420 0.931109
Cu4   Cu    Cu3+1 0.500000 0.000000 0.402580 0.989959
C9    C     C_R   0.158373 0.657123 0.592625 0.456447
C10   C     C_R   0.842057 0.342474 0.592642 0.456016
C11   C     C_R   0.865300 0.680237 0.578191 0.430445
C12   C     C_R   0.134180 0.319321 0.577452 0.430250
C13   C     C_R   0.663939 0.151427 0.407189 0.459552
C14   C     C_R   0.335624 0.848987 0.407340 0.459916
C15   C     C_R   0.368887 0.182983 0.429524 0.448235
C16   C     C_R   0.631739 0.817576 0.428422 0.448015
C17   C     C_R   0.131309 0.637086 0.503261 -0.193459
C18   C     C_R   0.868747 0.362861 0.503207 -0.193573
C19   C     C_R   0.867875 0.636229 0.501206 -0.174982
C20   C     C_R   0.132137 0.363798 0.501148 -0.174404
C21   C     C_R   0.634095 0.134454 0.496153 -0.194664
C22   C     C_R   0.365829 0.865626 0.496159 -0.194633
C23   C     C_R   0.366992 0.134726 0.499361 -0.173867
C24   C     C_R   0.633048 0.865300 0.499244 -0.174351
C25   C     C_R   0.147680 0.666307 0.415837 -0.293708
C26   C     C_R   0.851996 0.333995 0.415650 -0.293491
C27   C     C_R   0.825005 0.639168 0.424225 -0.288892
C28   C     C_R   0.175580 0.361392 0.424903 -0.288950
C29   C     C_R   0.650205 0.164236 0.583219 -0.302209
C30   C     C_R   0.350072 0.835521 0.583090 -0.302124
C31   C     C_R   0.318773 0.131972 0.568086 -0.291056
C32   C     C_R   0.680763 0.867588 0.568859 -0.290988
C33   C     C_R   0.192269 0.713387 0.414842 0.074288
C34   C     C_R   0.807367 0.286955 0.414619 0.074220
C35   C     C_R   0.778487 0.684767 0.423107 0.070390
C36   C     C_R   0.222162 0.315845 0.423892 0.070608
C37   C     C_R   0.696543 0.209534 0.584694 0.075765
C38   C     C_R   0.303769 0.790186 0.584569 0.075729
C39   C     C_R   0.271118 0.176474 0.567405 0.071147
C40   C     C_R   0.728449 0.823132 0.568192 0.070970
C41   C     C_R   0.224052 0.729464 0.501491 -0.047325
C42   C     C_R   0.775947 0.270542 0.501430 -0.047326
C43   C     C_R   0.776972 0.730788 0.496816 -0.039905
C44   C     C_R   0.223142 0.269332 0.496825 -0.039992
C45   C     C_R   0.728640 0.225080 0.498046 -0.047121
C46   C     C_R   0.271311 0.774973 0.498101 -0.047138
C47   C     C_R   0.270816 0.223722 0.495536 -0.044997
C48   C     C_R   0.729313 0.776403 0.495471 -0.044844
C49   C     C_R   0.208167 0.700406 0.591410 -0.082984
C50   C     C_R   0.792246 0.299212 0.591495 -0.082847
C51   C     C_R   0.822478 0.730670 0.572496 -0.091947
C52   C     C_R   0.177067 0.268937 0.571677 -0.091700
C53   C     C_R   0.713485 0.195207 0.408369 -0.084572
C54   C     C_R   0.286067 0.805218 0.408592 -0.084651
C55   C     C_R   0.318785 0.226072 0.423713 -0.093725
C56   C     C_R   0.681907 0.774562 0.422723 -0.093912
C57   C     C_R   0.204848 0.744627 0.327629 -0.306807
C58   C     C_R   0.794375 0.256102 0.327194 -0.306671
C59   C     C_R   0.733598 0.684777 0.348742 -0.290027
C60   C     C_R   0.267649 0.316376 0.350408 -0.290056
C61   C     C_R   0.710829 0.239313 0.672659 -0.307306
C62   C     C_R   0.289897 0.760022 0.672350 -0.307308
C63   C     C_R   0.223194 0.173493 0.636828 -0.286154
C64   C     C_R   0.775851 0.825647 0.638515 -0.286316
C65   C     C_R   0.759156 0.283377 0.678014 0.511796
C66   C     C_R   0.241637 0.715886 0.677736 0.511894
C67   C     C_R   0.175432 0.218223 0.638263 0.483556
C68   C     C_R   0.823615 0.780925 0.639997 0.483564
C69   C     C_R   0.251400 0.790622 0.322796 0.514628
C70   C     C_R   0.747769 0.210166 0.322352 0.514618
C71   C     C_R   0.685845 0.729519 0.347039 0.492530
C72   C     C_R   0.315447 0.271671 0.348821 0.492650
H1    H     H_    0.125029 0.652874 0.348007 0.175573
H2    H     H_    0.874350 0.347699 0.347719 0.175569
H3    H     H_    0.826653 0.604430 0.366444 0.164471
H4    H     H_    0.174320 0.396509 0.367692 0.163965
H5    H     H_    0.626413 0.152144 0.650719 0.176191
H6    H     H_    0.374150 0.847351 0.650459 0.176219
H7    H     H_    0.318202 0.094666 0.621810 0.160347
H8    H     H_    0.680923 0.904496 0.623291 0.160800
H9    H     H_    0.177110 0.733993 0.263455 0.147715
H10   H     H_    0.821831 0.266991 0.262830 0.147742
H11   H     H_    0.735117 0.649601 0.291697 0.156473
H12   H     H_    0.266568 0.351954 0.293984 0.156445
H13   H     H_    0.683570 0.228667 0.737344 0.147688
H14   H     H_    0.317438 0.770415 0.736844 0.147711
H15   H     H_    0.222503 0.136166 0.690410 0.156434
H16   H     H_    0.776126 0.862594 0.692780 0.156367
C73   C     C_R   0.055429 0.505176 0.793197 0.010845
C74   C     C_R   0.944508 0.495328 0.206750 0.007635
C75   C     C_R   0.944576 0.494780 0.793207 0.012266
C76   C     C_R   0.055493 0.504665 0.206741 0.007806
C77   C     C_R   0.555670 0.001917 0.793229 0.008975
C78   C     C_R   0.444330 0.998341 0.206814 0.031815
C79   C     C_R   0.444330 0.998083 0.793241 0.009091
C80   C     C_R   0.555671 0.001667 0.206804 0.033674
N1    N     N_R   0.000000 0.500000 0.743810 -0.188690
N2    N     N_R   0.000000 0.500000 0.256190 -0.183240
N3    N     N_R   0.500000 0.000000 0.743810 -0.183855
N4    N     N_R   0.500000 0.000000 0.256190 -0.196620
C81   C     C_R   0.943225 0.494733 0.896281 -0.023849
C82   C     C_R   0.056811 0.504979 0.103603 -0.005415
C83   C     C_R   0.056781 0.505225 0.896271 -0.023775
C84   C     C_R   0.943191 0.495004 0.103612 -0.005487
C85   C     C_R   0.442992 0.997968 0.896379 -0.005186
C86   C     C_R   0.557009 0.001947 0.103710 -0.020052
C87   C     C_R   0.557009 0.002031 0.896367 -0.005241
C88   C     C_R   0.442992 0.998057 0.103721 -0.020066
C89   C     C_R   0.000002 0.499984 0.948095 0.084703
C90   C     C_R   0.000002 0.499989 0.051788 0.091196
C91   C     C_R   0.500001 0.000000 0.948195 0.090880
C92   C     C_R   0.500001 0.000001 0.051894 0.083819
C93   C     C_R   0.886720 0.489623 0.948519 -0.197194
C94   C     C_R   0.113310 0.510140 0.051295 -0.212037
C95   C     C_R   0.113285 0.510338 0.948501 -0.197523
C96   C     C_R   0.886694 0.489835 0.051314 -0.211848
C97   C     C_R   0.386282 0.995873 0.948682 -0.213154
C98   C     C_R   0.613717 0.004089 0.051454 -0.195854
C99   C     C_R   0.613719 0.004124 0.948658 -0.213291
C100  C     C_R   0.386284 0.995910 0.051477 -0.196563
H17   H     H_    0.098626 0.509145 0.752167 0.159261
H18   H     H_    0.901249 0.491829 0.247783 0.125464
H19   H     H_    0.901383 0.490777 0.752186 0.158528
H20   H     H_    0.098751 0.508166 0.247767 0.125515
H21   H     H_    0.599047 0.003349 0.752160 0.125407
H22   H     H_    0.400960 0.997134 0.247889 0.166231
H23   H     H_    0.400953 0.996652 0.752182 0.125519
H24   H     H_    0.599041 0.002882 0.247870 0.165778
H25   H     H_    0.842572 0.485520 0.909904 0.155551
H26   H     H_    0.157490 0.514078 0.089856 0.137470
H27   H     H_    0.157433 0.514441 0.909879 0.155821
H28   H     H_    0.842513 0.485901 0.089881 0.137482
H29   H     H_    0.341948 0.994224 0.910119 0.137050
H30   H     H_    0.658041 0.005745 0.090054 0.156844
H31   H     H_    0.658053 0.005770 0.910086 0.136984
H32   H     H_    0.341961 0.994250 0.090087 0.157013
O17   O     O_3   0.136902 0.633550 0.680724 -0.538462
C101  C     C_3   0.088585 0.673102 0.715527 -0.210201
H33   H     H_    0.105708 0.721419 0.728274 0.131984
H34   H     H_    0.071644 0.654609 0.786532 0.181693
H35   H     H_    0.047957 0.674291 0.664468 0.175889
O18   O     O_3   0.863911 0.365682 0.680764 -0.538482
C102  C     C_3   0.912502 0.326094 0.714467 -0.208907
H36   H     H_    0.895535 0.277699 0.726965 0.131890
H37   H     H_    0.929825 0.344351 0.785409 0.181576
H38   H     H_    0.952833 0.325179 0.662816 0.176815
O19   O     O_3   0.906459 0.674938 0.656150 -0.558541
C103  C     C_3   0.875064 0.645462 0.734564 -0.200284
H39   H     H_    0.854928 0.599671 0.712678 0.130481
H40   H     H_    0.837234 0.675597 0.764909 0.170173
H41   H     H_    0.909403 0.636586 0.793967 0.174240
O20   O     O_3   0.092405 0.324107 0.654705 -0.559899
C104  C     C_3   0.123156 0.353069 0.734223 -0.200976
H42   H     H_    0.143646 0.398911 0.713465 0.131194
H43   H     H_    0.160600 0.322644 0.764984 0.170689
H44   H     H_    0.088290 0.361747 0.792965 0.173825
O21   O     O_3   0.647325 0.122435 0.320381 -0.536630
C105  C     C_3   0.602689 0.159856 0.270869 -0.230078
H45   H     H_    0.600273 0.144175 0.193612 0.183067
H46   H     H_    0.614963 0.210370 0.270382 0.125837
H47   H     H_    0.555413 0.153651 0.302865 0.185379
O22   O     O_3   0.351943 0.878257 0.320647 -0.536505
C106  C     C_3   0.396252 0.840884 0.270297 -0.231431
H48   H     H_    0.398454 0.856897 0.193204 0.183185
H49   H     H_    0.383779 0.790423 0.269334 0.126011
H50   H     H_    0.443660 0.846751 0.301956 0.183873
O23   O     O_3   0.420581 0.188703 0.369020 -0.544557
C107  C     C_3   0.465153 0.226561 0.416928 -0.252281
H51   H     H_    0.488896 0.200072 0.476381 0.126332
H52   H     H_    0.444165 0.270412 0.446617 0.160322
H53   H     H_    0.501221 0.240910 0.363210 0.172231
O24   O     O_3   0.580572 0.812315 0.366744 -0.543610
C108  C     C_3   0.535637 0.774007 0.412879 -0.250459
H54   H     H_    0.511222 0.800033 0.472200 0.125835
H55   H     H_    0.556433 0.730006 0.442313 0.159559
H56   H     H_    0.500176 0.759932 0.358006 0.172374
O25   O     O_3   0.769771 0.316369 0.764082 -0.526828
C109  C     C_3   0.777609 0.275674 0.844599 -0.324204
H57   H     H_    0.804211 0.232457 0.825371 0.136239
H58   H     H_    0.731456 0.263734 0.877018 0.155327
H59   H     H_    0.804906 0.300369 0.901723 0.190370
O26   O     O_3   0.231444 0.682488 0.763523 -0.526710
C110  C     C_3   0.224057 0.722791 0.844657 -0.324860
H60   H     H_    0.197410 0.766131 0.826321 0.136055
H61   H     H_    0.270386 0.734517 0.876648 0.155656
H62   H     H_    0.197018 0.697842 0.901794 0.190351
O27   O     O_3   0.128362 0.212430 0.707109 -0.555299
C111  C     C_3   0.080493 0.175105 0.667063 -0.269991
H63   H     H_    0.097635 0.126894 0.651864 0.140771
H64   H     H_    0.060618 0.196384 0.599435 0.163503
H65   H     H_    0.041923 0.171642 0.721210 0.180228
O28   O     O_3   0.870165 0.786246 0.709787 -0.555133
C112  C     C_3   0.918301 0.823884 0.671294 -0.269766
H66   H     H_    0.901238 0.872190 0.656675 0.140542
H67   H     H_    0.938692 0.803099 0.603642 0.163353
H68   H     H_    0.956460 0.826983 0.726193 0.180419
O29   O     O_3   0.258983 0.826150 0.238390 -0.525668
C113  C     C_3   0.264484 0.788129 0.154225 -0.337300
H69   H     H_    0.217434 0.776986 0.124355 0.159676
H70   H     H_    0.291867 0.744556 0.168006 0.140002
H71   H     H_    0.289853 0.814804 0.097140 0.187333
O30   O     O_3   0.739777 0.175040 0.237602 -0.525808
C114  C     C_3   0.733779 0.213474 0.154011 -0.336923
H72   H     H_    0.780652 0.224843 0.123670 0.159471
H73   H     H_    0.706403 0.256934 0.168716 0.140308
H74   H     H_    0.708153 0.187048 0.096904 0.187271
O31   O     O_3   0.641919 0.727043 0.272820 -0.546698
C115  C     C_3   0.665678 0.759709 0.191396 -0.249646
H75   H     H_    0.708451 0.736573 0.161660 0.135990
H76   H     H_    0.675660 0.809350 0.209867 0.164902
H77   H     H_    0.629649 0.759610 0.132878 0.186800
O32   O     O_3   0.359991 0.274711 0.275550 -0.546580
C116  C     C_3   0.336910 0.242702 0.192994 -0.250088
H78   H     H_    0.294406 0.266096 0.162849 0.135916
H79   H     H_    0.326749 0.192927 0.210258 0.165017
H80   H     H_    0.373434 0.243237 0.135225 0.186608

loop_
_geom_bond_atom_site_label_1
_geom_bond_atom_site_label_2
_geom_bond_distance
_ccdc_geom_bond_type
C78   C88   1.409530 A    
C63   C67   1.395361 A    
C110  H60   1.114736 S    
O17   C101  1.413400 S    
C8    C21   1.468803 S    
C58   H10   1.082864 S    
C40   C64   1.396315 A    
C57   H9    1.082834 S    
C102  H36   1.112363 S    
C14   C22   1.420525 A    
C2    C19   1.461200 S    
C25   H1    1.084876 S    
C74   N2    1.366995 A    
C115  H76   1.113902 S    
C105  H45   1.109353 S    
C113  H69   1.110311 S    
C114  H74   1.109431 S    
C45   C53   1.420490 A    
C12   C52   1.413612 A    
C112  H66   1.113170 S    
O10   C6    1.286604 A    
C110  H61   1.110340 S    
C57   C69   1.403096 A    
C7    C22   1.468748 S    
C60   H12   1.084414 S    
C107  H53   1.107917 S    
C13   C53   1.415767 A    
C54   C69   1.421890 A    
C27   C35   1.389085 A    
C102  H37   1.109428 S    
C39   C63   1.396375 A    
C53   C70   1.421938 A    
C70   O30   1.391973 S    
C38   C62   1.395179 A    
C104  H44   1.109475 S    
O6    Cu1   1.975699 S    
C75   C81   1.409259 A    
C72   O32   1.382183 S    
C77   H21   1.082680 S    
C46   C54   1.420440 A    
C79   H23   1.082681 S    
C29   C37   1.387922 A    
O13   C7    1.282239 A    
O3    C2    1.285559 A    
C107  H52   1.114835 S    
O14   C8    1.300051 A    
C74   H18   1.082610 S    
O31   C115  1.410058 S    
C20   C28   1.395294 A    
O22   C106  1.414306 S    
C82   C94   1.405931 A    
C32   C40   1.390077 A    
C101  H35   1.112912 S    
C74   C84   1.410137 A    
C77   N3    1.366893 A    
C33   C41   1.408144 A    
C41   C46   1.405805 A    
C38   C46   1.408663 A    
C103  H41   1.109431 S    
C114  H72   1.110332 S    
C62   H14   1.083019 S    
C11   C19   1.413315 A    
C111  H63   1.113164 S    
C108  H55   1.114856 S    
C35   C43   1.409427 A    
C93   C96   1.405149 A    
C36   C44   1.409492 A    
O13   Cu4   1.975702 S    
C109  H57   1.114744 S    
C86   C92   1.407980 A    
O14   Cu3   1.975699 S    
C15   C23   1.407682 A    
C116  H78   1.113001 S    
C66   O26   1.391243 S    
C59   C71   1.395448 A    
C75   H19   1.082221 S    
C39   C47   1.410385 A    
C61   C65   1.402314 A    
C98   H30   1.083387 S    
O16   Cu3   1.975651 S    
C12   C20   1.413143 A    
C12   O20   1.385105 S    
C25   C33   1.389000 A    
C80   C86   1.409538 A    
C83   C89   1.407851 A    
O1    Cu1   1.967154 S    
O8    Cu1   1.975651 S    
C42   C50   1.419496 A    
C59   H11   1.084407 S    
O25   C109  1.413462 S    
C87   C99   1.405889 A    
C88   C92   1.407972 A    
C21   C29   1.393841 A    
C115  H75   1.113010 S    
C10   C50   1.412674 A    
O11   Cu3   1.967250 S    
C9    C49   1.412701 A    
C104  H43   1.111166 S    
C100  H32   1.083387 S    
C31   H7    1.085335 S    
C97   C100  1.405146 A    
C61   H13   1.083046 S    
C30   H6    1.084923 S    
O8    C3    1.283763 A    
O26   C110  1.413461 S    
C84   C96   1.405927 A    
C13   O21   1.385873 S    
O27   C111  1.409886 S    
C30   C38   1.387934 A    
C44   C47   1.406913 A    
C64   C68   1.395264 A    
C110  H62   1.109423 S    
O3    Cu1   1.967250 S    
C102  H38   1.112899 S    
C93   H25   1.083395 S    
C78   H22   1.082459 S    
Cu4   N4    2.001069 S    
C106  H50   1.107538 S    
C37   C45   1.408684 A    
O19   C103  1.414052 S    
C80   H24   1.082464 S    
C73   C83   1.409270 A    
C73   H17   1.082238 S    
C9    O17   1.384550 S    
C34   C42   1.408151 A    
C85   C97   1.405887 A    
O29   C113  1.413815 S    
C104  H42   1.113073 S    
C69   O29   1.391988 S    
O12   C5    1.286539 A    
C32   H8    1.085317 S    
C58   C70   1.403016 A    
O5    Cu2   1.975702 S    
C83   C95   1.405466 A    
C107  H51   1.111965 S    
C1    C20   1.461039 S    
C60   C72   1.395569 A    
C33   C57   1.393775 A    
C106  H48   1.109337 S    
C76   C82   1.410137 A    
C3    C18   1.468567 S    
C5    C24   1.454699 S    
C35   C59   1.396473 A    
C85   C91   1.408045 A    
O4    Cu2   1.967250 S    
C6    C23   1.454581 S    
C26   H2    1.084885 S    
C99   H31   1.083341 S    
C22   C30   1.393826 A    
C108  H56   1.107903 S    
C15   C55   1.411028 A    
C26   C34   1.388953 A    
C109  H59   1.109451 S    
C97   H29   1.083342 S    
O2    Cu2   1.967154 S    
Cu1   Cu2   2.663352 S    
O15   C8    1.282176 A    
C116  H79   1.113889 S    
C67   O27   1.382002 S    
C55   C72   1.416469 A    
C14   C54   1.415805 A    
C77   C87   1.410129 A    
O4    C1    1.292809 A    
C65   O25   1.391228 S    
C103  H39   1.113062 S    
C11   O19   1.385084 S    
C43   C51   1.418580 A    
O7    C4    1.298365 A    
O16   C7    1.299962 A    
C79   N3    1.366889 A    
C101  H33   1.112366 S    
C37   C61   1.395217 A    
C16   C24   1.407859 A    
C47   C55   1.418978 A    
C10   O18   1.384561 S    
C17   C25   1.394177 A    
C91   C92   1.417501 A    
C52   C67   1.417636 A    
O20   C104  1.414059 S    
O9    Cu3   1.967154 S    
C113  H71   1.109400 S    
C19   C27   1.395352 A    
O18   C102  1.413348 S    
C112  H68   1.109283 S    
O10   Cu4   1.967154 S    
C28   C36   1.389264 A    
C43   C48   1.406787 A    
C86   C98   1.405564 A    
C28   H4    1.085302 S    
C42   C45   1.405817 A    
C71   O31   1.382156 S    
C16   O24   1.384072 S    
Cu2   N2    2.001069 S    
C81   C89   1.407844 A    
O2    C2    1.292869 A    
Cu1   N1    2.001069 S    
C24   C32   1.394343 A    
C105  H46   1.113997 S    
C73   N1    1.366351 A    
C114  H73   1.114678 S    
C94   C95   1.405152 A    
O5    C3    1.298340 A    
Cu3   N3    2.001069 S    
C48   C56   1.418889 A    
O6    C4    1.283730 A    
O11   C6    1.288331 A    
O1    C1    1.285533 A    
C36   C60   1.396530 A    
C113  H70   1.114668 S    
C75   N1    1.366341 A    
C40   C48   1.410324 A    
C41   C49   1.419454 A    
O24   C108  1.412836 S    
C76   H20   1.082612 S    
C106  H49   1.113982 S    
C89   C90   1.417430 A    
C112  H67   1.113770 S    
C13   C21   1.420643 A    
O23   C107  1.412897 S    
C111  H64   1.113772 S    
C62   C66   1.402351 A    
C84   C90   1.407985 A    
C76   N2    1.366993 A    
C4    C17   1.468556 S    
C101  H34   1.109409 S    
O9    C5    1.288470 A    
O15   Cu4   1.975648 S    
O7    Cu2   1.975648 S    
C23   C31   1.394303 A    
C111  H65   1.109301 S    
C95   H27   1.083394 S    
C79   C85   1.410125 A    
C103  H40   1.111202 S    
O32   C116  1.410057 S    
C64   H16   1.084386 S    
C63   H15   1.084401 S    
C14   O22   1.385828 S    
C44   C52   1.418673 A    
C88   C100  1.405564 A    
O30   C114  1.413829 S    
C116  H80   1.109299 S    
C87   C91   1.408039 A    
C18   C26   1.394189 A    
C105  H47   1.107605 S    
C98   C99   1.405151 A    
O21   C105  1.414291 S    
C56   C71   1.416481 A    
C29   H5    1.084930 S    
C51   C68   1.417632 A    
C80   N4    1.366434 A    
C16   C56   1.410903 A    
C31   C39   1.390250 A    
O28   C112  1.409879 S    
O12   Cu4   1.967250 S    
C15   O23   1.384094 S    
C108  H54   1.111958 S    
C68   O28   1.381988 S    
C9    C17   1.418268 A    
Cu3   Cu4   2.663352 S    
C27   H3    1.085285 S    
C109  H58   1.110362 S    
C10   C18   1.418289 A    
C81   C93   1.405464 A    
C96   H28   1.083335 S    
C50   C65   1.419133 A    
C82   C90   1.407979 A    
C115  H77   1.109268 S    
C78   N4    1.366426 A    
C49   C66   1.419132 A    
C11   C51   1.413494 A    
C34   C58   1.393778 A    
C94   H26   1.083336 S    
