data_mof_unit_6910.cif
_audit_creation_date              2012-12-10T19:42:13-0500
_audit_creation_method            fapswitch 2.2
_symmetry_space_group_name_H-M    P1
_symmetry_Int_Tables_number       1
_space_group_crystal_system       triclinic
_cell_length_a                    10.950403
_cell_length_b                    10.928221
_cell_length_c                    9.730195
_cell_angle_alpha                 90.046657
_cell_angle_beta                  90.02126
_cell_angle_gamma                 90.040164
_cell_volume                      1164.39634853

loop_
_atom_site_label
_atom_site_type_symbol
_atom_type_description
_atom_site_fract_x
_atom_site_fract_y
_atom_site_fract_z
_atom_type_partial_charge
C1    C     C_R   0.501448 0.265476 0.500003 0.850986
C2    C     C_R   0.227765 0.588231 0.978566 -0.159895
C3    C     C_R   0.936854 0.506999 0.372742 0.105130
C4    C     C_R   0.873068 0.511802 0.498885 -0.095611
C5    C     C_R   0.940072 0.528947 0.621864 -0.050170
C6    C     C_R   0.066469 0.522321 0.619849 -0.252248
C7    C     C_R   0.129546 0.512387 0.495777 -0.114374
C8    C     C_R   0.064373 0.514102 0.370267 -0.036222
C9    C     C_R   0.859529 0.693912 0.771731 -0.126789
C10   C     C_R   0.793714 0.732305 0.886778 -0.134281
C11   C     C_R   0.748849 0.645944 0.979497 -0.147122
C12   C     C_R   0.262732 0.504345 0.499227 0.803730
C13   C     C_R   0.771546 0.521304 0.958299 -0.124095
C14   C     C_R   0.840746 0.482778 0.846163 -0.098214
C15   C     C_R   0.882244 0.568899 0.750577 0.146692
C16   C     C_2   0.501598 0.932873 0.387152 -0.161075
C17   C     C_2   0.491963 0.866535 0.502408 -0.316926
C18   C     C_2   0.496092 0.066878 0.387164 -0.155465
C19   C     C_2   0.507518 0.133424 0.502190 -0.320755
C20   C     C_2   0.486063 0.401951 0.922392 -0.093285
C21   C     C_2   0.489022 0.401599 0.077364 -0.071397
C22   C     C_R   0.498415 0.734518 0.500128 0.840551
C23   C     C_R   0.738067 0.504159 0.499947 0.814352
C24   C     C_R   0.216666 0.682313 0.076152 0.205448
C25   C     C_R   0.163894 0.656683 0.204059 -0.110423
C26   C     C_R   0.124679 0.537651 0.235916 0.101561
C27   C     C_R   0.138738 0.443860 0.138630 -0.141965
C28   C     C_R   0.188992 0.469595 0.009927 -0.162082
Cu1   Cu    Cu3+1 0.500020 0.500020 0.638630 0.933745
Cu2   Cu    Cu3+1 0.499980 0.499980 0.361370 0.947882
H1    H     H_    0.267238 0.606632 0.878810 0.145844
H2    H     H_    0.696871 0.675611 0.067956 0.130841
H3    H     H_    0.735302 0.454143 0.028692 0.156316
H4    H     H_    0.856734 0.386030 0.830057 0.110794
H5    H     H_    0.512183 0.888114 0.288132 0.154697
H6    H     H_    0.476428 0.907605 0.602059 0.142595
H7    H     H_    0.484210 0.111453 0.288314 0.154107
H8    H     H_    0.524192 0.092488 0.601615 0.140494
H9    H     H_    0.474052 0.314179 0.872461 0.155902
H10   H     H_    0.510505 0.581816 0.893887 0.198703
H11   H     H_    0.483041 0.313183 0.127014 0.149869
H12   H     H_    0.498899 0.582666 0.106312 0.187964
H13   H     H_    0.153287 0.729468 0.278811 0.121998
H14   H     H_    0.109599 0.351495 0.162038 0.120416
H15   H     H_    0.198518 0.397372 0.934513 0.140651
H16   H     H_    0.115688 0.530579 0.715830 0.167967
H17   H     H_    0.890863 0.761053 0.697857 0.117560
H18   H     H_    0.775883 0.828649 0.902888 0.122952
N1    N     N_2   0.498640 0.498660 0.846910 -0.281016
N2    N     N_2   0.498610 0.498630 0.153040 -0.278492
O1    O     O_R   0.500020 0.321960 0.617040 -0.589579
O2    O     O_R   0.499980 0.321920 0.382900 -0.582298
O3    O     O_R   0.319660 0.500030 0.617070 -0.591033
O4    O     O_R   0.319620 0.499990 0.382930 -0.563115
O5    O     O_R   0.500020 0.678080 0.617100 -0.589078
O6    O     O_R   0.499980 0.678040 0.382960 -0.589502
O7    O     O_R   0.680380 0.500010 0.617070 -0.568931
O8    O     O_R   0.680340 0.499970 0.382930 -0.539651
N3    N     N_3   0.257250 0.804332 0.046715 -0.609258
H19   H     H_    0.292075 0.809128 0.946797 0.204141
H20   H     H_    0.330011 0.823560 0.112932 0.205396
N4    N     N_3   0.871755 0.502105 0.245533 -0.569611
H21   H     H_    0.897393 0.422863 0.192846 0.210249
H22   H     H_    0.895142 0.579402 0.188269 0.234428

loop_
_geom_bond_atom_site_label_1
_geom_bond_atom_site_label_2
_ccdc_geom_bond_type
C14   H4    S    
C23   O8    A    
C2    C28   A    
Cu2   O4    S    
C13   H3    S    
C22   O5    A    
C17   H6    S    
Cu1   Cu2   S    
C8    C26   S    
C9    C10   A    
Cu1   O5    S    
C12   O3    A    
C22   O6    A    
C25   H13   S    
N4    H21   S    
C9    C15   A    
N3    H19   S    
Cu1   N1    S    
C13   C14   A    
C24   C25   A    
C10   H18   S    
C1    O1    A    
H10   N1    S    
C26   C27   A    
C20   N1    D    
Cu1   O3    S    
H12   N2    S    
C24   N3    S    
C21   H11   S    
C5    C6    A    
Cu2   O8    S    
C21   N2    D    
C19   H8    S    
C18   H7    S    
Cu1   O7    S    
C11   H2    S    
C9    H17   S    
C6    C7    A    
C16   H5    S    
C2    C24   A    
C7    C12   S    
Cu2   N2    S    
C1    O2    A    
C28   H15   S    
N3    H20   S    
C11   C13   A    
C5    C15   S    
C10   C11   A    
C3    C4    A    
C7    C8    A    
C20   C21   S    
C3    C8    A    
C16   C18   S    
C18   C19   D    
Cu1   O1    S    
C3    N4    S    
C27   C28   A    
C23   O7    A    
C20   H9    S    
Cu2   O2    S    
C14   C15   A    
C2    H1    S    
N4    H22   S    
C6    H16   S    
C25   C26   A    
C1    C19   S    
Cu2   O6    S    
C27   H14   S    
C4    C23   S    
C12   O4    A    
C17   C22   S    
C16   C17   D    
C4    C5    A    
