data_mof_unit_41046.cif
_audit_creation_date              2012-12-10T20:15:02-0500
_audit_creation_method            fapswitch 2.2
_symmetry_space_group_name_H-M    P1
_symmetry_Int_Tables_number       1
_space_group_crystal_system       triclinic
_cell_length_a                    15.713472
_cell_length_b                    19.265201
_cell_length_c                    18.437345
_cell_angle_alpha                 89.312185
_cell_angle_beta                  90.982642
_cell_angle_gamma                 89.727364
_cell_volume                      5580.12029424

loop_
_atom_site_label
_atom_site_type_symbol
_atom_type_description
_atom_site_fract_x
_atom_site_fract_y
_atom_site_fract_z
_atom_type_partial_charge
C1    C     C_R   0.500781 0.365381 0.500649 0.890990
C2    C     C_R   0.497650 0.634227 0.499427 0.863787
C3    C     C_R   0.425441 0.814538 0.543476 -0.248099
C4    C     C_R   0.491274 0.179960 0.566338 -0.242926
C5    C     C_R   0.469189 0.851877 0.490695 0.072573
C6    C     C_R   0.495421 0.145807 0.500332 0.081657
C7    C     C_R   0.517767 0.818047 0.439150 -0.167741
C8    C     C_R   0.504421 0.182626 0.435383 -0.174951
C9    C     C_R   0.525961 0.746598 0.442277 -0.263452
C10   C     C_R   0.506790 0.254362 0.436122 -0.248123
C11   C     C_R   0.485359 0.708738 0.496866 -0.145229
C12   C     C_R   0.501843 0.289693 0.502091 -0.162975
C13   C     C_R   0.547586 0.956952 0.525493 -0.056650
C14   C     C_R   0.412980 0.040951 0.470088 -0.057240
C15   C     C_R   0.554749 0.029310 0.527609 -0.059830
C16   C     C_R   0.405888 0.968399 0.467890 -0.055574
C17   C     C_R   0.487739 0.070697 0.499174 -0.017258
C18   C     C_R   0.473663 0.927028 0.494979 -0.015218
C19   C     C_R   0.550792 0.544328 0.727366 0.632509
C20   C     C_R   0.448916 0.454921 0.273751 0.655185
C21   C     C_R   0.547288 0.545431 0.803774 -0.403574
C22   C     C_R   0.451750 0.453935 0.196818 -0.427234
C23   C     C_R   0.337800 0.499970 0.499339 0.887808
C24   C     C_R   0.662268 0.499685 0.500649 0.892424
C25   C     C_R   0.494585 0.499266 0.841490 0.005494
C26   C     C_R   0.504257 0.500065 0.158719 0.007764
C27   C     C_R   0.442153 0.453876 0.800509 -0.064772
C28   C     C_R   0.556627 0.545812 0.199145 -0.061407
C29   C     C_R   0.447066 0.455379 0.724154 -0.133930
C30   C     C_R   0.552320 0.544699 0.275390 -0.134989
C31   C     C_R   0.510108 0.437413 0.962948 -0.164018
C32   C     C_R   0.488301 0.561751 0.037186 -0.162731
C33   C     C_R   0.512132 0.437701 0.039125 -0.208058
C34   C     C_R   0.486356 0.561475 0.961032 -0.206545
C35   C     C_R   0.501785 0.499936 0.077273 0.143484
C36   C     C_R   0.496753 0.499261 0.922891 0.139807
C37   C     C_3   0.976662 0.448052 0.541291 0.015444
C38   C     C_3   0.023862 0.555498 0.458327 0.016508
C39   C     C_3   0.029167 0.441607 0.471243 -0.290497
C40   C     C_3   0.971341 0.562003 0.528218 -0.303415
C41   C     C_1   0.249157 0.501841 0.497572 -0.210100
C42   C     C_1   0.751062 0.499277 0.502326 -0.195458
C43   C     C_3   0.032023 0.509121 0.566771 0.019948
C44   C     C_3   0.968538 0.494530 0.432733 0.020879
C45   C     C_3   0.083310 0.503292 0.497115 0.109560
C46   C     C_3   0.917079 0.500278 0.502408 0.108116
C47   C     C_1   0.174023 0.503205 0.496418 -0.070041
C48   C     C_1   0.826284 0.499341 0.503309 -0.060905
C49   C     C_R   0.430740 0.742445 0.545682 0.521082
C50   C     C_R   0.497064 0.251793 0.568228 0.484562
H1    H     H_    0.056249 0.393740 0.447785 0.130573
H2    H     H_    0.945126 0.610400 0.550938 0.141715
H3    H     H_    0.585320 0.582354 0.833798 0.155005
H4    H     H_    0.413814 0.418082 0.165670 0.153825
H5    H     H_    0.406668 0.421958 0.691871 0.180286
H6    H     H_    0.592665 0.578537 0.307251 0.153419
H7    H     H_    0.519469 0.388823 0.935185 0.140362
H8    H     H_    0.478849 0.610346 0.064907 0.139808
H9    H     H_    0.522959 0.389302 0.068383 0.137502
H10   H     H_    0.475561 0.609881 0.931776 0.142633
H11   H     H_    0.388484 0.841497 0.583573 0.149450
H12   H     H_    0.482886 0.150641 0.616184 0.135781
H13   H     H_    0.552134 0.847365 0.398672 0.133281
H14   H     H_    0.507844 0.155714 0.384242 0.138859
H15   H     H_    0.566184 0.721028 0.403481 0.160373
H16   H     H_    0.511767 0.282072 0.384916 0.193994
N1    N     N_R   0.500010 0.499980 0.689440 -0.134995
N2    N     N_R   0.499990 0.500020 0.310560 -0.126071
O1    O     O_R   0.500000 0.398180 0.560840 -0.602117
O2    O     O_R   0.500000 0.601820 0.439160 -0.643063
O3    O     O_R   0.499960 0.398180 0.439210 -0.577228
O4    O     O_R   0.500040 0.601820 0.560790 -0.538159
O5    O     O_R   0.376800 0.500000 0.560800 -0.631292
O6    O     O_R   0.623200 0.500000 0.439200 -0.617810
O7    O     O_R   0.376760 0.499990 0.439180 -0.589572
O8    O     O_R   0.623240 0.500010 0.560820 -0.614469
Zn1   Zn    Zn3+2 0.500030 0.500000 0.581210 0.985692
Zn2   Zn    Zn3+2 0.499970 0.500000 0.418790 0.975021
O9    O     O_3   0.597965 0.592698 0.689591 -0.610800
C51   C     C_3   0.685628 0.582988 0.704862 0.059641
H17   H     H_    0.705933 0.529096 0.691752 0.137729
H18   H     H_    0.700784 0.593514 0.762831 0.122257
C52   C     C_3   0.735646 0.634146 0.658410 -0.272181
H19   H     H_    0.725084 0.622656 0.600037 0.223629
H20   H     H_    0.712186 0.687527 0.668404 0.222774
C53   C     C_3   0.830682 0.630893 0.676284 -1.031872
H21   H     H_    0.842658 0.642135 0.734504 0.267875
H22   H     H_    0.864347 0.670278 0.643189 0.252827
H23   H     H_    0.856466 0.578774 0.663881 0.271613
O10   O     O_3   0.401484 0.408572 0.315112 -0.624865
C54   C     C_3   0.322880 0.388433 0.283283 0.061540
H24   H     H_    0.294035 0.350504 0.321406 0.177852
H25   H     H_    0.331126 0.359284 0.232369 0.117146
C55   C     C_3   0.260421 0.449656 0.273921 -0.377177
H26   H     H_    0.254995 0.476882 0.326399 0.239742
H27   H     H_    0.284063 0.487158 0.232836 0.209325
C56   C     C_3   0.172514 0.424705 0.249611 -0.978868
H28   H     H_    0.176868 0.395973 0.197924 0.264302
H29   H     H_    0.129349 0.469904 0.240729 0.271062
H30   H     H_    0.145050 0.390254 0.291804 0.257767
C57   C     C_R   0.378617 0.407658 0.834803 0.116433
C58   C     C_R   0.321076 0.433758 0.885499 -0.140413
C59   C     C_R   0.260544 0.390208 0.916674 -0.155435
C60   C     C_R   0.256315 0.320470 0.897119 -0.115591
C61   C     C_R   0.312487 0.294207 0.846209 -0.141225
C62   C     C_R   0.373202 0.337557 0.814981 -0.188789
H31   H     H_    0.322279 0.487969 0.900259 0.130483
H32   H     H_    0.216527 0.410676 0.955642 0.128058
H33   H     H_    0.209266 0.286861 0.921166 0.120483
H34   H     H_    0.308920 0.240242 0.830835 0.128746
H35   H     H_    0.416099 0.316435 0.775535 0.157781
C63   C     C_R   0.619321 0.592297 0.164268 0.122767
C64   C     C_R   0.622272 0.663036 0.181977 -0.192399
C65   C     C_R   0.682262 0.706654 0.150100 -0.143012
C66   C     C_R   0.739945 0.680064 0.100594 -0.112051
C67   C     C_R   0.737903 0.609755 0.083010 -0.157634
C68   C     C_R   0.678157 0.565919 0.114851 -0.141450
H36   H     H_    0.577820 0.684485 0.220083 0.123797
H37   H     H_    0.684035 0.761103 0.163807 0.123916
H38   H     H_    0.786394 0.713895 0.076037 0.120173
H39   H     H_    0.783001 0.589088 0.045060 0.125988
H40   H     H_    0.678442 0.511323 0.101576 0.128884
C69   C     C_R   0.948896 0.389762 0.590387 0.123903
C70   C     C_R   0.975154 0.321142 0.578281 -0.161527
C71   C     C_R   0.952770 0.268123 0.626625 -0.147351
C72   C     C_R   0.903988 0.283160 0.687159 -0.123105
C73   C     C_R   0.876706 0.351135 0.699049 -0.138692
C74   C     C_R   0.899196 0.404308 0.650956 -0.136087
H41   H     H_    0.013870 0.308500 0.532304 0.114634
H42   H     H_    0.973830 0.215434 0.617431 0.119256
H43   H     H_    0.887554 0.242172 0.724957 0.117274
H44   H     H_    0.838728 0.362724 0.745847 0.126250
H45   H     H_    0.878681 0.456856 0.661336 0.120688
C75   C     C_R   0.051652 0.613619 0.409214 0.126531
C76   C     C_R   0.020050 0.681271 0.417496 -0.166079
C77   C     C_R   0.042853 0.733842 0.368819 -0.144795
C78   C     C_R   0.097958 0.719428 0.312126 -0.108969
C79   C     C_R   0.129991 0.652278 0.303871 -0.143781
C80   C     C_R   0.106486 0.599475 0.351981 -0.151838
H46   H     H_    0.976775 0.693390 0.460578 0.117009
H47   H     H_    0.017309 0.785634 0.374972 0.116880
H48   H     H_    0.115505 0.760111 0.274363 0.113351
H49   H     H_    0.172402 0.640983 0.259855 0.128370
H50   H     H_    0.130388 0.547436 0.344530 0.140031
C81   C     C_R   0.929491 0.489630 0.357849 0.127908
C82   C     C_R   0.947044 0.432957 0.313260 -0.157184
C83   C     C_R   0.911105 0.429824 0.243473 -0.142034
C84   C     C_R   0.857315 0.483013 0.217896 -0.108956
C85   C     C_R   0.839340 0.539461 0.262091 -0.128341
C86   C     C_R   0.875313 0.542847 0.331780 -0.135254
H51   H     H_    0.988422 0.391257 0.332061 0.117272
H52   H     H_    0.925012 0.386140 0.209186 0.126268
H53   H     H_    0.829707 0.480449 0.163843 0.121639
H54   H     H_    0.797751 0.580708 0.242394 0.151580
H55   H     H_    0.861134 0.586997 0.365412 0.128266
C87   C     C_R   0.073097 0.515262 0.640759 0.120387
C88   C     C_R   0.124903 0.461043 0.668053 -0.133644
C89   C     C_R   0.164749 0.466493 0.736052 -0.129860
C90   C     C_R   0.153287 0.526134 0.777222 -0.106252
C91   C     C_R   0.102062 0.580411 0.750325 -0.141953
C92   C     C_R   0.062097 0.575138 0.682286 -0.179817
H56   H     H_    0.134610 0.414681 0.636525 0.132942
H57   H     H_    0.204519 0.424477 0.756675 0.154835
H58   H     H_    0.184101 0.530396 0.829888 0.122351
H59   H     H_    0.093495 0.626695 0.782135 0.126575
H60   H     H_    0.023456 0.617997 0.662126 0.130810
O11   O     O_3   0.388377 0.707072 0.599927 -0.632025
C93   C     C_3   0.318766 0.669391 0.570639 0.144422
H61   H     H_    0.311290 0.622490 0.605504 0.162152
H62   H     H_    0.329077 0.649694 0.514867 0.096619
C94   C     C_3   0.235314 0.711029 0.573790 -0.418257
H63   H     H_    0.181990 0.674605 0.584039 0.198242
H64   H     H_    0.238033 0.748260 0.619353 0.237800
C95   C     C_3   0.215537 0.749929 0.502814 -0.843615
H65   H     H_    0.265720 0.788349 0.490857 0.276559
H66   H     H_    0.153888 0.777824 0.507181 0.250821
H67   H     H_    0.210546 0.712943 0.457211 0.268790
O12   O     O_3   0.492378 0.284357 0.634539 -0.657992
C96   C     C_3   0.575322 0.292149 0.664731 0.108559
H68   H     H_    0.578948 0.344666 0.688828 0.167383
H69   H     H_    0.627282 0.289598 0.624104 0.125578
C97   C     C_3   0.591200 0.238230 0.725154 -0.365169
H70   H     H_    0.541220 0.242803 0.766712 0.217901
H71   H     H_    0.588289 0.185273 0.702383 0.224724
C98   C     C_3   0.678213 0.248136 0.761294 -0.982563
H72   H     H_    0.728996 0.242154 0.720749 0.272692
H73   H     H_    0.688029 0.208337 0.804719 0.260923
H74   H     H_    0.682609 0.300453 0.785733 0.258692
C99   C     C_R   0.618200 0.912428 0.554145 0.149127
C100  C     C_R   0.609875 0.876765 0.620436 -0.139117
C101  C     C_R   0.676953 0.835902 0.647975 -0.133890
C102  C     C_R   0.752384 0.830086 0.609321 -0.127019
C103  C     C_R   0.760880 0.865256 0.543108 -0.134850
C104  C     C_R   0.694088 0.906495 0.515574 -0.135843
H75   H     H_    0.551845 0.881201 0.650931 0.122591
H76   H     H_    0.670522 0.808948 0.699406 0.129456
H77   H     H_    0.804306 0.798470 0.630737 0.125190
H78   H     H_    0.819309 0.860726 0.513246 0.118624
H79   H     H_    0.701314 0.933770 0.464357 0.113512
C105  C     C_R   0.342831 0.086144 0.441321 0.145416
C106  C     C_R   0.294957 0.126708 0.488707 -0.142975
C107  C     C_R   0.230736 0.170717 0.461410 -0.135259
C108  C     C_R   0.213818 0.174389 0.386786 -0.120884
C109  C     C_R   0.260975 0.133926 0.339362 -0.137021
C110  C     C_R   0.325348 0.089929 0.366431 -0.137323
H80   H     H_    0.307663 0.124340 0.546606 0.121341
H81   H     H_    0.194184 0.202069 0.498082 0.122527
H82   H     H_    0.164221 0.208613 0.365713 0.113626
H83   H     H_    0.247875 0.136874 0.281585 0.120902
H84   H     H_    0.362058 0.059310 0.329164 0.116956
C111  C     C_R   0.632309 0.061653 0.559557 0.142559
C112  C     C_R   0.649727 0.055447 0.634322 -0.161028
C113  C     C_R   0.723068 0.085155 0.664273 -0.135900
C114  C     C_R   0.779109 0.121523 0.619934 -0.111264
C115  C     C_R   0.761892 0.128381 0.545575 -0.138983
C116  C     C_R   0.688838 0.098394 0.515315 -0.150697
H85   H     H_    0.606428 0.027760 0.669265 0.119537
H86   H     H_    0.736303 0.080213 0.721906 0.129051
H87   H     H_    0.835921 0.144231 0.643222 0.117338
H88   H     H_    0.805364 0.156664 0.511362 0.128936
H89   H     H_    0.676423 0.103492 0.457534 0.122013
C117  C     C_R   0.328072 0.936432 0.436397 0.132576
C118  C     C_R   0.249388 0.944953 0.470277 -0.144496
C119  C     C_R   0.174730 0.921382 0.436733 -0.144529
C120  C     C_R   0.178299 0.888769 0.369588 -0.106632
C121  C     C_R   0.256606 0.878380 0.336511 -0.139692
C122  C     C_R   0.331376 0.902317 0.369633 -0.157328
H90   H     H_    0.245811 0.971229 0.521745 0.122281
H91   H     H_    0.114035 0.929016 0.462411 0.123202
H92   H     H_    0.120306 0.872146 0.342898 0.112485
H93   H     H_    0.259167 0.852925 0.284580 0.121383
H94   H     H_    0.391396 0.896026 0.342417 0.122098

loop_
_geom_bond_atom_site_label_1
_geom_bond_atom_site_label_2
_ccdc_geom_bond_type
C39   H1    S    
C61   H34   S    
C100  C101  A    
O2    Zn2   S    
C24   C42   S    
C106  C107  A    
C16   C117  S    
C118  C119  A    
N1    Zn1   S    
C68   H40   S    
C32   H8    S    
C108  C109  A    
C119  C120  A    
C65   C66   A    
C3    C49   A    
C76   C77   A    
C22   H4    S    
C14   C105  S    
C113  C114  A    
C28   C63   S    
C40   C46   S    
C94   H64   S    
C1    O3    A    
C10   H16   S    
C13   C18   A    
C117  C122  A    
C87   C88   A    
C50   O12   S    
C49   O11   S    
C79   H49   S    
C31   C36   A    
C90   C91   A    
C63   C68   A    
C53   H22   S    
C98   H73   S    
C27   C29   A    
C112  H85   S    
C3    H11   S    
C103  H78   S    
C105  C110  A    
C4    H12   S    
C116  H89   S    
C13   C99   S    
C67   C68   A    
C102  H77   S    
C95   H65   S    
C60   C61   A    
C38   C45   S    
C15   C111  S    
C37   C69   S    
O1    Zn1   S    
C99   C104  A    
C88   C89   A    
C83   C84   A    
C105  C106  A    
C109  H83   S    
C106  H80   S    
C31   C33   A    
C19   N1    A    
C59   H32   S    
C65   H37   S    
C56   H28   S    
C39   C45   S    
C96   C97   S    
C93   H62   S    
C111  C116  A    
C88   H56   S    
C33   H9    S    
C29   N1    A    
C60   H33   S    
C34   H10   S    
C14   C17   A    
C55   H26   S    
C1    C12   S    
C23   O5    A    
C51   C52   S    
C2    O4    A    
C2    C11   S    
C71   H42   S    
C63   C64   A    
C56   H29   S    
O11   C93   S    
C44   C46   S    
C81   C82   A    
C119  H91   S    
C62   H35   S    
C45   C47   S    
N2    Zn2   S    
C76   H46   S    
C37   C39   S    
C94   C95   S    
C46   C48   S    
C78   H48   S    
C67   H39   S    
C101  C102  A    
C57   C58   A    
O12   C96   S    
C107  H81   S    
C69   C70   A    
C57   C62   A    
C84   C85   A    
C4    C6    A    
C107  C108  A    
C54   H24   S    
C5    C7    A    
C118  H90   S    
C24   O8    A    
C98   H74   S    
C6    C8    A    
C5    C18   S    
C29   H5    S    
C55   C56   S    
C40   H2    S    
C20   O10   S    
C27   C57   S    
C1    O1    A    
O9    C51   S    
C4    C50   A    
C82   H51   S    
C97   C98   S    
C32   C34   A    
C101  H76   S    
C37   C43   S    
C55   H27   S    
C85   H54   S    
C32   C35   A    
C111  C112  A    
C38   C44   S    
O4    Zn1   S    
C11   C49   A    
C54   H25   S    
C9    C11   A    
C80   H50   S    
C52   H19   S    
C95   H67   S    
C40   C43   S    
C9    H15   S    
C120  C121  A    
C41   C47   T    
C58   H31   S    
C95   H66   S    
C42   C48   T    
C91   H59   S    
O8    Zn1   S    
C19   O9    S    
C97   H70   S    
C73   H44   S    
C94   H63   S    
C7    H13   S    
C64   C65   A    
C10   C12   A    
C100  H75   S    
C8    H14   S    
C89   H57   S    
C51   H18   S    
C93   H61   S    
C52   H20   S    
C20   C22   A    
C87   C92   A    
C103  C104  A    
C115  H88   S    
C86   H55   S    
C13   C15   A    
O6    Zn2   S    
C71   C72   A    
C14   C16   A    
C84   H53   S    
O10   C54   S    
C73   C74   A    
C75   C80   A    
C56   H30   S    
C53   H21   S    
C82   C83   A    
C61   C62   A    
C99   C100  A    
C7    C9    A    
C6    C17   S    
C21   C25   A    
C43   C87   S    
C19   C21   A    
C25   C36   S    
C114  C115  A    
C20   N2    A    
C16   C18   A    
C81   C86   A    
C44   C81   S    
C23   O7    A    
C51   H17   S    
C3    C5    A    
C53   H23   S    
C12   C50   A    
C113  H86   S    
C66   H38   S    
C15   C17   A    
C39   C44   S    
C96   H68   S    
C25   C27   A    
C78   C79   A    
C75   C76   A    
C26   C28   A    
C120  H92   S    
C23   C41   S    
C114  H87   S    
C91   C92   A    
C31   H7    S    
C28   C30   A    
C83   H52   S    
C43   C45   S    
C2    O2    A    
C85   C86   A    
C102  C103  A    
C54   C55   S    
C38   C40   S    
C24   O6    A    
C98   H72   S    
C89   C90   A    
C30   H6    S    
C72   H43   S    
C72   C73   A    
C21   H3    S    
C33   C35   A    
C77   H47   S    
C70   H41   S    
C122  H94   S    
C108  H82   S    
C34   C36   A    
C38   C75   S    
C115  C116  A    
C58   C59   A    
O7    Zn2   S    
C97   H71   S    
C79   C80   A    
C110  H84   S    
C92   H60   S    
C64   H36   S    
C104  H79   S    
C26   C35   S    
C52   C53   S    
C109  C110  A    
C8    C10   A    
C121  C122  A    
C22   C26   A    
C69   C74   A    
C59   C60   A    
O5    Zn1   S    
C90   H58   S    
C77   C78   A    
C93   C94   S    
C66   C67   A    
C37   C46   S    
C74   H45   S    
C117  C118  A    
O3    Zn2   S    
C30   N2    A    
C121  H93   S    
C112  C113  A    
C70   C71   A    
C96   H69   S    
