data_mof_unit_5256.cif
_audit_creation_date              2012-12-11T15:18:30-0500
_audit_creation_method            fapswitch 2.2
_symmetry_space_group_name_H-M    P1
_symmetry_Int_Tables_number       1
_space_group_crystal_system       triclinic
_cell_length_a                    6.943381
_cell_length_b                    19.882085
_cell_length_c                    23.840781
_cell_angle_alpha                 93.696949
_cell_angle_beta                  91.143976
_cell_angle_gamma                 88.673121
_cell_volume                      3282.9010528

loop_
_atom_site_label
_atom_site_type_symbol
_atom_type_description
_atom_site_fract_x
_atom_site_fract_y
_atom_site_fract_z
_atom_type_partial_charge
O1    O     O_R   0.620100 0.812200 0.810870 -0.543105
O2    O     O_R   0.379900 0.187800 0.189130 -0.542382
O3    O     O_R   0.296960 0.671650 0.794750 -0.521987
O4    O     O_R   0.703040 0.328350 0.205250 -0.534431
O5    O     O_R   0.120160 0.687800 0.689130 -0.543942
O6    O     O_R   0.879840 0.312200 0.310870 -0.541088
C1    C     C_R   0.468489 0.646954 0.804467 0.758612
C2    C     C_R   0.531851 0.352724 0.195278 0.691723
O7    O     O_R   0.290810 0.810670 0.817290 -0.535199
O8    O     O_R   0.709190 0.189330 0.182710 -0.538471
O9    O     O_R   0.113980 0.827820 0.711840 -0.539561
O10   O     O_R   0.886020 0.172180 0.288160 -0.537558
C3    C     C_R   0.459437 0.831799 0.834275 0.721510
C4    C     C_R   0.540554 0.168262 0.165690 0.701382
O11   O     O_R   0.626290 0.672180 0.788160 -0.545571
O12   O     O_R   0.373710 0.327820 0.211840 -0.537145
O13   O     O_3   0.451520 0.755460 0.715370 -0.376423
O14   O     O_3   0.548480 0.244540 0.284630 -0.370216
V1    V     V_3+5 0.179200 0.748980 0.756420 1.452036
V2    V     V_3+5 0.820800 0.251020 0.243580 1.427748
O15   O     O_R   0.783880 0.828350 0.705250 -0.538714
O16   O     O_R   0.216120 0.171650 0.294750 -0.537645
C5    C     C_R   0.950127 0.852520 0.694633 0.688179
C6    C     C_R   0.049873 0.147479 0.305367 0.691853
O17   O     O_R   0.790030 0.689320 0.682700 -0.545837
O18   O     O_R   0.209970 0.310680 0.317300 -0.543556
C7    C     C_R   0.959042 0.668194 0.665677 0.700067
C8    C     C_R   0.040955 0.331786 0.334338 0.706319
V3    V     V_3+5 0.678400 0.751010 0.743570 1.416828
V4    V     V_3+5 0.321600 0.248990 0.256430 1.416032
O19   O     O_3   0.955950 0.744540 0.784620 -0.361212
O20   O     O_3   0.044050 0.255460 0.215380 -0.364716
C9    C     C_R   0.181468 0.425834 0.396442 -0.220946
C10   C     C_R   0.818581 0.574094 0.603619 -0.222784
C11   C     C_R   0.030718 0.380803 0.383949 -0.082770
C12   C     C_R   0.969285 0.619152 0.616086 -0.080919
C13   C     C_R   0.868066 0.383664 0.418469 -0.224928
C14   C     C_R   0.131926 0.616290 0.581564 -0.224635
C15   C     C_R   0.855971 0.430362 0.465143 0.089908
C16   C     C_R   0.144049 0.569575 0.534905 0.089911
C17   C     C_R   0.006327 0.476026 0.476833 0.052664
C18   C     C_R   0.993707 0.523903 0.523222 0.052681
C19   C     C_R   0.169136 0.473964 0.442164 0.090323
C20   C     C_R   0.830911 0.525960 0.557898 0.090899
C21   C     C_R   0.696052 0.432265 0.500366 -0.192477
C22   C     C_R   0.303983 0.567666 0.499689 -0.192530
C23   C     C_R   0.683815 0.479541 0.546365 -0.184632
C24   C     C_R   0.316241 0.520379 0.453698 -0.184406
H1    H     H_    0.306621 0.424352 0.369867 0.122237
H2    H     H_    0.693465 0.575566 0.630209 0.120135
H3    H     H_    0.751628 0.348986 0.409353 0.126204
H4    H     H_    0.248340 0.650982 0.590666 0.125638
H5    H     H_    0.579565 0.397434 0.492130 0.133343
H6    H     H_    0.420464 0.602499 0.507922 0.133261
H7    H     H_    0.558364 0.480085 0.572724 0.134590
H8    H     H_    0.441703 0.519830 0.427343 0.134258
C25   C     C_R   0.949315 0.914019 0.662980 -0.042028
C26   C     C_R   0.050685 0.085981 0.337019 -0.042706
C27   C     C_R   0.874010 0.033097 0.660119 -0.161897
C28   C     C_R   0.125990 0.966903 0.339880 -0.162247
C29   C     C_R   0.889423 0.975154 0.689815 -0.168717
C30   C     C_R   0.110577 0.024846 0.310185 -0.168117
C31   C     C_R   0.993228 0.911160 0.605417 -0.215182
C32   C     C_R   0.006771 0.088840 0.394583 -0.215212
C33   C     C_R   0.975193 0.969593 0.573665 0.086380
C34   C     C_R   0.024805 0.030407 0.426335 0.086527
C35   C     C_R   0.914819 0.030862 0.602584 0.139566
C36   C     C_R   0.085180 0.969138 0.397415 0.139727
C37   C     C_R   0.012092 0.969453 0.514442 0.057917
C38   C     C_R   0.987906 0.030547 0.485557 0.057870
C39   C     C_R   0.928260 0.089710 0.516898 -0.187333
C40   C     C_R   0.071738 0.910290 0.483102 -0.187413
C41   C     C_R   0.893057 0.089672 0.574013 -0.201579
C42   C     C_R   0.106941 0.910328 0.425987 -0.201806
H9    H     H_    0.846886 0.136474 0.596109 0.122994
H10   H     H_    0.153112 0.863526 0.403891 0.122776
H11   H     H_    0.963929 0.137508 0.413300 0.093549
H12   H     H_    0.036069 0.862492 0.586699 0.093486
H13   H     H_    0.146807 0.022103 0.266081 0.105247
H14   H     H_    0.853194 0.977897 0.733919 0.104884
H15   H     H_    0.827176 0.079842 0.682137 0.112601
H16   H     H_    0.172824 0.920158 0.317863 0.112234
H17   H     H_    0.906610 0.137385 0.498479 0.123175
H18   H     H_    0.093387 0.862614 0.501520 0.123099
C43   C     C_R   0.489960 0.585329 0.835429 -0.062191
C44   C     C_R   0.516375 0.412579 0.162033 -0.115119
C45   C     C_R   0.612374 0.470644 0.836914 -0.159550
C46   C     C_R   0.505057 0.534127 0.162326 -0.166646
C47   C     C_R   0.579299 0.528765 0.808562 -0.248852
C48   C     C_R   0.518978 0.475704 0.191146 -0.214090
C49   C     C_R   0.434930 0.583941 0.891966 0.265642
C50   C     C_R   0.501325 0.407686 0.102226 0.277038
C51   C     C_R   0.495925 0.528238 0.924066 -0.010736
C52   C     C_R   0.508889 0.467634 0.072115 0.052643
C53   C     C_R   0.573207 0.469960 0.894264 0.113831
C54   C     C_R   0.499236 0.530799 0.103476 0.088598
C55   C     C_R   0.492304 0.528909 0.984322 0.039889
C56   C     C_R   0.524841 0.467667 0.012069 0.084727
C57   C     C_R   0.593412 0.410548 0.979645 -0.129996
C58   C     C_R   0.481685 0.589870 0.017809 -0.204204
C59   C     C_R   0.619312 0.412119 0.922212 -0.212426
C60   C     C_R   0.487486 0.590696 0.076050 -0.187401
H19   H     H_    0.680374 0.367846 0.899594 0.123273
H20   H     H_    0.483565 0.638986 0.099937 0.122806
H21   H     H_    0.528366 0.479726 0.236673 0.119774
H22   H     H_    0.620477 0.529281 0.764977 0.123544
H23   H     H_    0.676372 0.426840 0.814412 0.123622
H24   H     H_    0.501960 0.582374 0.186258 0.122311
H25   H     H_    0.646458 0.365634 0.998297 0.178604
H26   H     H_    0.483517 0.638271 0.999811 0.168569
C61   C     C_R   0.682858 0.073405 0.104356 -0.164381
C62   C     C_R   0.317242 0.926810 0.895514 -0.165923
C63   C     C_R   0.530175 0.119416 0.116018 -0.103172
C64   C     C_R   0.469871 0.880757 0.883887 -0.103353
C65   C     C_R   0.365590 0.117827 0.080665 -0.205853
C66   C     C_R   0.634563 0.882428 0.919201 -0.204022
C67   C     C_R   0.353360 0.071782 0.033244 0.072560
C68   C     C_R   0.646868 0.928526 0.966580 0.070398
C69   C     C_R   0.505886 0.024318 0.022965 -0.015982
C70   C     C_R   0.494345 0.975992 0.976850 -0.016104
C71   C     C_R   0.670304 0.025183 0.058793 0.065516
C72   C     C_R   0.329902 0.975106 0.941032 0.066140
C73   C     C_R   0.191608 0.071603 0.996132 0.274960
C74   C     C_R   0.808669 0.928731 0.003673 0.275845
C75   C     C_R   0.180534 0.022744 0.950982 -0.255358
C76   C     C_R   0.819722 0.977576 0.048826 -0.256074
H27   H     H_    0.809677 0.074012 0.131668 0.123120
H28   H     H_    0.190374 0.926165 0.868221 0.122073
H29   H     H_    0.247857 0.153163 0.090111 0.167359
H30   H     H_    0.752315 0.847093 0.909772 0.169225
H31   H     H_    0.054982 0.022515 0.923189 0.131241
H32   H     H_    0.945270 0.977800 0.076622 0.131225
O21   O     O_3   0.463295 0.346825 0.073048 -0.666898
H33   H     H_    0.449685 0.310552 0.099069 0.272987
O22   O     O_3   0.315047 0.635392 0.912961 -0.659507
H34   H     H_    0.227325 0.616109 0.939724 0.289926
N1    N     N_2   0.039100 0.120295 0.003789 -0.525308
H35   H     H_    0.906133 0.102675 0.990538 0.266939
C77   C     C_3   0.076920 0.184581 0.981503 -0.545206
H36   H     H_    0.088931 0.178588 0.935014 0.190832
H37   H     H_    0.212143 0.205985 0.999942 0.215147
H38   H     H_    0.956518 0.220615 0.992105 0.204141
N2    N     N_2   0.961181 0.880043 0.996018 -0.521046
H39   H     H_    0.094190 0.897709 0.009175 0.267090
C78   C     C_3   0.923580 0.815830 0.018460 -0.553543
H40   H     H_    0.912269 0.821928 0.064961 0.190065
H41   H     H_    0.043737 0.779740 0.007752 0.209707
H42   H     H_    0.788052 0.794441 0.000231 0.205225

loop_
_geom_bond_atom_site_label_1
_geom_bond_atom_site_label_2
_ccdc_geom_bond_type
C26   C30   A    
C34   C36   A    
C46   C54   A    
C58   H26   S    
C54   C60   A    
C61   C71   A    
C41   H9    S    
C17   C18   A    
C50   C52   A    
C50   O21   S    
O4    C2    A    
V1    O19   S    
C78   H42   S    
C31   C33   A    
C78   H40   S    
C43   C49   A    
O22   H34   S    
C15   C17   A    
C1    C43   S    
C16   C22   A    
N1    C77   S    
O9    V1    S    
C42   H10   S    
C23   H7    S    
C11   C13   A    
O3    C1    A    
C67   C69   A    
C65   H29   S    
C13   H3    S    
C77   H38   S    
C73   C75   A    
C14   H4    S    
C52   C56   A    
C29   H14   S    
C36   C42   A    
N2    H39   S    
C57   H25   S    
C55   C56   A    
O13   V3    S    
C28   C30   A    
C32   H11   S    
O7    C3    A    
C52   C54   A    
C27   C35   A    
O5    C7    A    
C28   H16   S    
O7    V1    S    
N2    C78   S    
C8    C11   S    
O8    V2    S    
C33   C35   A    
C45   C53   A    
C47   H22   S    
C74   N2    S    
C25   C31   A    
C38   C39   A    
C35   C41   A    
V4    O20   S    
C19   C24   A    
C10   C12   A    
C3    C64   S    
C20   C23   A    
C15   C21   A    
C21   C23   A    
C21   H5    S    
C2    O12   A    
C26   C32   A    
C17   C19   A    
C22   H6    S    
C18   C20   A    
C62   C64   A    
C78   H41   S    
C70   C72   A    
O11   V3    S    
C39   H17   S    
C69   C71   A    
C2    C44   S    
O17   V3    S    
C13   C15   A    
C22   C24   A    
C10   H2    S    
C27   C29   A    
C9    C19   A    
C30   H13   S    
C10   C20   A    
C40   C42   A    
C44   C48   A    
C39   C41   A    
C43   C47   A    
C1    O11   A    
C65   C67   A    
O15   V3    S    
C66   H30   S    
C32   C34   A    
C37   C40   A    
C60   H20   S    
C62   C72   A    
C49   C51   A    
C75   H31   S    
C76   H32   S    
C69   C70   A    
O10   V2    S    
C5    C25   S    
C58   C60   A    
C45   H23   S    
C61   C63   A    
C68   C74   A    
O3    V1    S    
C40   H18   S    
O14   V4    S    
C6    C26   S    
C57   C59   A    
C46   C48   A    
O18   V4    S    
C45   C47   A    
C61   H27   S    
O21   H33   S    
O16   C6    A    
O1    C3    A    
O12   V4    S    
C12   C14   A    
C51   C55   A    
C55   C58   A    
C74   C76   A    
V2    O20   S    
C24   H8    S    
O10   C6    A    
O16   V4    S    
C27   H15   S    
C48   H21   S    
C16   C18   A    
C64   C66   A    
C77   H36   S    
C25   C29   A    
O5    V1    S    
C7    C12   S    
O17   C7    A    
C4    C63   S    
O6    V2    S    
N1    H35   S    
C73   N1    S    
O18   C8    A    
C59   H19   S    
O2    V4    S    
C72   C75   A    
O15   C5    A    
C67   C73   A    
C71   C76   A    
V3    O19   S    
C44   C50   A    
C14   C16   A    
C77   H37   S    
C9    C11   A    
O1    V3    S    
C34   C38   A    
C33   C37   A    
O9    C5    A    
O13   V1    S    
C66   C68   A    
O14   V2    S    
C37   C38   A    
O2    C4    A    
C68   C70   A    
C62   H28   S    
O4    V2    S    
C46   H24   S    
O6    C8    A    
C49   O22   S    
C28   C36   A    
C51   C53   A    
C56   C57   A    
C9    H1    S    
C53   C59   A    
O8    C4    A    
C63   C65   A    
C31   H12   S    
