data_mof_unit_35381.cif
_audit_creation_date              2012-12-11T15:12:21-0500
_audit_creation_method            fapswitch 2.2
_symmetry_space_group_name_H-M    P1
_symmetry_Int_Tables_number       1
_space_group_crystal_system       triclinic
_cell_length_a                    30.727824
_cell_length_b                    22.482189
_cell_length_c                    18.062363
_cell_angle_alpha                 89.999978
_cell_angle_beta                  123.316774
_cell_angle_gamma                 90.0
_cell_volume                      10427.1978458

loop_
_atom_site_label
_atom_site_type_symbol
_atom_type_description
_atom_site_fract_x
_atom_site_fract_y
_atom_site_fract_z
_atom_type_partial_charge
C1    C     C_R   0.542853 0.590034 0.737165 0.585928
C2    C     C_R   0.288861 0.767606 0.412409 0.142069
C3    C     C_R   0.282373 0.353934 0.957396 0.137898
C4    C     C_R   0.837151 0.227586 0.997404 0.105805
C5    C     C_R   0.217626 0.853934 0.042604 0.137898
C6    C     C_R   0.162849 0.227586 0.002596 0.105805
C7    C     C_R   0.782374 0.853934 0.957396 0.137898
C8    C     C_R   0.301288 0.786879 0.065685 -0.149814
C9    C     C_R   0.762620 0.307073 0.980673 -0.193541
C10   C     C_R   0.698712 0.786878 0.934315 -0.149815
C11   C     C_R   0.237380 0.307072 0.019327 -0.193541
C12   C     C_R   0.801288 0.286879 0.065685 -0.149815
C13   C     C_R   0.219814 0.361121 0.427467 0.136955
C14   C     C_R   0.262620 0.807073 0.980673 -0.193542
C15   C     C_R   0.198712 0.286878 0.934315 -0.149814
C16   C     C_R   0.737380 0.807072 0.019327 -0.193541
C17   C     C_R   0.770811 0.300691 0.910785 0.642939
C18   C     C_R   0.304283 0.811765 0.140621 0.636443
C19   C     C_R   0.229189 0.300691 0.089215 0.642939
C20   C     C_R   0.695717 0.811764 0.859379 0.636443
C21   C     C_R   0.270811 0.800692 0.910785 0.642939
C22   C     C_R   0.804283 0.311764 0.140621 0.636443
C23   C     C_R   0.729189 0.800691 0.089215 0.642939
C24   C     C_R   0.711139 0.767606 0.587591 0.142069
C25   C     C_R   0.195717 0.311764 0.859379 0.636442
C26   C     C_R   0.808436 0.261145 0.920279 -0.372471
C27   C     C_R   0.262369 0.846757 0.127613 -0.417181
C28   C     C_R   0.191564 0.261145 0.079721 -0.372471
C29   C     C_R   0.737631 0.846757 0.872387 -0.417180
C30   C     C_R   0.308436 0.761146 0.920279 -0.372471
C31   C     C_R   0.762369 0.346757 0.127613 -0.417180
C32   C     C_R   0.691564 0.761145 0.079721 -0.372472
C33   C     C_R   0.237631 0.346757 0.872387 -0.417180
C34   C     C_R   0.580434 0.608008 0.427039 -0.162776
C35   C     C_R   0.280186 0.861121 0.572533 0.136955
C36   C     C_R   0.403873 0.421586 0.575191 -0.135239
C37   C     C_R   0.419566 0.608008 0.572961 -0.162776
C38   C     C_R   0.596127 0.421586 0.424809 -0.135238
C39   C     C_R   0.080434 0.108008 0.427039 -0.162776
C40   C     C_R   0.903873 0.921586 0.575191 -0.135239
C41   C     C_R   0.919566 0.108008 0.572961 -0.162777
C42   C     C_R   0.096127 0.921586 0.424809 -0.135238
C43   C     C_R   0.385218 0.591297 0.263877 -0.264120
C44   C     C_R   0.615019 0.408819 0.733302 -0.211463
C45   C     C_R   0.614782 0.591297 0.736123 -0.264120
C46   C     C_R   0.788861 0.267606 0.412409 0.142068
C47   C     C_R   0.384981 0.408819 0.266698 -0.211464
C48   C     C_R   0.885218 0.091297 0.263877 -0.264119
C49   C     C_R   0.115019 0.908819 0.733302 -0.211463
C50   C     C_R   0.114782 0.091297 0.736123 -0.264120
C51   C     C_R   0.884981 0.908819 0.266698 -0.211464
C52   C     C_R   0.592437 0.612345 0.780197 -0.074923
C53   C     C_R   0.405552 0.387753 0.219973 -0.104718
C54   C     C_R   0.407563 0.612345 0.219803 -0.074924
C55   C     C_R   0.594448 0.387753 0.780027 -0.104718
C56   C     C_R   0.092437 0.112345 0.780197 -0.074923
C57   C     C_R   0.719814 0.861121 0.427467 0.136954
C58   C     C_R   0.905552 0.887753 0.219973 -0.104718
C59   C     C_R   0.907563 0.112345 0.219803 -0.074924
C60   C     C_R   0.094448 0.887753 0.780027 -0.104718
C61   C     C_R   0.618466 0.639060 0.501439 0.064281
C62   C     C_R   0.354009 0.410671 0.502938 0.054218
C63   C     C_R   0.381534 0.639060 0.498561 0.064281
C64   C     C_R   0.645991 0.410671 0.497062 0.054218
C65   C     C_R   0.118466 0.139060 0.501439 0.064281
C66   C     C_R   0.854008 0.910671 0.502938 0.054218
C67   C     C_R   0.881534 0.139060 0.498561 0.064282
C68   C     C_R   0.211139 0.267606 0.587591 0.142069
C69   C     C_R   0.145991 0.910671 0.497062 0.054218
C70   C     C_R   0.684950 0.384279 0.412848 -0.263841
C71   C     C_R   0.375499 0.728128 0.574647 -0.254188
C72   C     C_R   0.315050 0.384279 0.587151 -0.263842
C73   C     C_R   0.624500 0.728129 0.425353 -0.254188
C74   C     C_R   0.184950 0.884279 0.412849 -0.263842
C75   C     C_R   0.875499 0.228129 0.574646 -0.254187
C76   C     C_R   0.815050 0.884279 0.587151 -0.263842
C77   C     C_R   0.124500 0.228129 0.425353 -0.254187
C78   C     C_R   0.691755 0.398023 0.494253 0.114191
C79   C     C_R   0.769901 0.338591 0.491598 0.024600
C80   C     C_R   0.357839 0.695996 0.496413 0.122836
C81   C     C_R   0.308245 0.398023 0.505746 0.114192
C82   C     C_R   0.642161 0.695996 0.503587 0.122836
C83   C     C_R   0.191754 0.898023 0.494253 0.114192
C84   C     C_R   0.857839 0.195996 0.496413 0.122836
C85   C     C_R   0.808245 0.898023 0.505746 0.114192
C86   C     C_R   0.142161 0.195996 0.503587 0.122836
C87   C     C_R   0.741021 0.391660 0.573196 -0.243580
C88   C     C_R   0.315823 0.717417 0.415387 -0.287529
C89   C     C_R   0.258979 0.391660 0.426804 -0.243579
C90   C     C_R   0.303189 0.796059 0.492138 0.032839
C91   C     C_R   0.684176 0.717417 0.584613 -0.287529
C92   C     C_R   0.241021 0.891660 0.573196 -0.243579
C93   C     C_R   0.815824 0.217417 0.415387 -0.287529
C94   C     C_R   0.758979 0.891660 0.426804 -0.243580
C95   C     C_R   0.184176 0.217417 0.584613 -0.287529
C96   C     C_3   0.497680 0.537056 0.781190 -0.270031
C97   C     C_3   0.499928 0.344978 0.226233 -0.322043
C98   C     C_3   0.502320 0.537056 0.218809 -0.270031
C99   C     C_3   0.500072 0.344978 0.773767 -0.322044
C100  C     C_3   0.997680 0.037056 0.781190 -0.270031
C101  C     C_R   0.230099 0.338591 0.508402 0.024600
C102  C     C_3   0.999928 0.844978 0.226233 -0.322043
C103  C     C_3   0.002320 0.037056 0.218809 -0.270031
C104  C     C_3   0.000072 0.844978 0.773767 -0.322044
C105  C     C_3   0.768197 0.390595 0.852403 -0.298992
C106  C     C_3   0.345099 0.797536 0.291564 -0.248758
C107  C     C_3   0.231803 0.390594 0.147597 -0.298993
C108  C     C_3   0.654901 0.797537 0.708436 -0.248758
C109  C     C_3   0.268197 0.890595 0.852403 -0.298992
C110  C     C_3   0.845099 0.297536 0.291564 -0.248757
C111  C     C_3   0.731803 0.890594 0.147597 -0.298995
C112  C     C_R   0.457313 0.406966 0.265075 0.576341
C113  C     C_R   0.696811 0.796060 0.507862 0.032839
C114  C     C_3   0.154901 0.297537 0.708436 -0.248758
C115  C     C_R   0.269901 0.838591 0.491598 0.024600
C116  C     C_R   0.803189 0.296059 0.492138 0.032839
C117  C     C_R   0.730099 0.838591 0.508402 0.024600
C118  C     C_R   0.196811 0.296059 0.507862 0.032839
C119  C     C_R   0.723226 0.353150 0.411018 0.147070
C120  C     C_R   0.347590 0.777403 0.573363 0.136652
C121  C     C_R   0.276774 0.353150 0.588982 0.147070
C122  C     C_R   0.652410 0.777403 0.426637 0.136652
C123  C     C_R   0.223226 0.853150 0.411018 0.147070
C124  C     C_R   0.457147 0.590034 0.262835 0.585928
C125  C     C_R   0.847590 0.277403 0.573363 0.136652
C126  C     C_R   0.776774 0.853150 0.588982 0.147070
C127  C     C_R   0.152410 0.277403 0.426637 0.136652
C128  C     C_R   0.826855 0.346687 0.652229 -0.198706
C129  C     C_R   0.245062 0.786543 0.331664 -0.233451
C130  C     C_R   0.173145 0.346687 0.347771 -0.198706
C131  C     C_R   0.754938 0.786543 0.668336 -0.233451
C132  C     C_R   0.326855 0.846687 0.652229 -0.198707
C133  C     C_R   0.745062 0.286543 0.331664 -0.233451
C134  C     C_R   0.673145 0.846688 0.347771 -0.198706
C135  C     C_R   0.542687 0.406966 0.734925 0.576340
C136  C     C_R   0.254938 0.286543 0.668336 -0.233452
C137  C     C_R   0.360665 0.805147 0.652556 -0.198253
C138  C     C_R   0.712625 0.329844 0.330876 -0.205291
C139  C     C_R   0.639335 0.805147 0.347444 -0.198253
C140  C     C_R   0.287375 0.329844 0.669124 -0.205291
C141  C     C_R   0.860665 0.305147 0.652556 -0.198252
C142  C     C_R   0.212625 0.829844 0.330876 -0.205291
C143  C     C_R   0.139335 0.305147 0.347444 -0.198252
C144  C     C_R   0.787375 0.829844 0.669124 -0.205291
C145  C     C_R   0.383781 0.651228 0.142750 0.122935
C146  C     C_R   0.042853 0.090034 0.737165 0.585927
C147  C     C_R   0.629114 0.366826 0.870983 0.114022
C148  C     C_R   0.616219 0.651227 0.857250 0.122935
C149  C     C_R   0.370886 0.366826 0.129018 0.114022
C150  C     C_R   0.883781 0.151228 0.142750 0.122934
C151  C     C_R   0.129114 0.866826 0.870983 0.114023
C152  C     C_R   0.116219 0.151227 0.857250 0.122935
C153  C     C_R   0.870886 0.866826 0.129018 0.114023
C154  C     C_R   0.367164 0.679698 0.000333 -0.197132
C155  C     C_R   0.673497 0.383784 0.028949 -0.194023
C156  C     C_R   0.632836 0.679698 0.999667 -0.197131
C157  C     C_R   0.957313 0.906966 0.265075 0.576341
C158  C     C_R   0.326503 0.383784 0.971051 -0.194023
C159  C     C_R   0.867164 0.179698 0.000333 -0.197132
C160  C     C_R   0.173497 0.883784 0.028949 -0.194023
C161  C     C_R   0.132836 0.179698 0.999668 -0.197132
C162  C     C_R   0.826503 0.883783 0.971051 -0.194023
C163  C     C_R   0.390204 0.641400 0.072667 -0.112353
C164  C     C_R   0.629841 0.392029 0.942684 -0.171927
C165  C     C_R   0.609796 0.641400 0.927333 -0.112354
C166  C     C_R   0.370159 0.392029 0.057316 -0.171926
C167  C     C_R   0.890204 0.141400 0.072667 -0.112352
C168  C     C_R   0.957147 0.090034 0.262835 0.585928
C169  C     C_R   0.129841 0.892029 0.942684 -0.171927
C170  C     C_R   0.109796 0.141400 0.927333 -0.112353
C171  C     C_R   0.870159 0.892029 0.057316 -0.171927
C172  C     C_R   0.356459 0.700598 0.142338 -0.191262
C173  C     C_R   0.671064 0.333032 0.886160 -0.203035
C174  C     C_R   0.643541 0.700598 0.857662 -0.191262
C175  C     C_R   0.328936 0.333031 0.113840 -0.203036
C176  C     C_R   0.856459 0.200598 0.142338 -0.191262
C177  C     C_R   0.171064 0.833032 0.886160 -0.203036
C178  C     C_R   0.143541 0.200598 0.857662 -0.191262
C179  C     C_R   0.042687 0.906966 0.734925 0.576340
C180  C     C_R   0.828936 0.833032 0.113840 -0.203036
C181  C     C_R   0.333729 0.740272 0.071053 0.122327
C182  C     C_R   0.717391 0.332197 0.969086 0.101147
C183  C     C_R   0.666271 0.740272 0.928947 0.122327
C184  C     C_R   0.282609 0.332197 0.030914 0.101147
C185  C     C_R   0.833729 0.240272 0.071053 0.122328
C186  C     C_R   0.217391 0.832197 0.969086 0.101147
C187  C     C_R   0.166271 0.240272 0.928947 0.122327
C188  C     C_R   0.782609 0.832197 0.030914 0.101147
C189  C     C_R   0.629726 0.606380 0.574697 -0.108834
C190  C     C_R   0.780186 0.361121 0.572533 0.136955
C191  C     C_R   0.354591 0.421236 0.428150 -0.092287
C192  C     C_R   0.370274 0.606380 0.425303 -0.108834
C193  C     C_R   0.645409 0.421236 0.571850 -0.092287
C194  C     C_R   0.129726 0.106380 0.574697 -0.108834
C195  C     C_R   0.854591 0.921236 0.428150 -0.092287
C196  C     C_R   0.870274 0.106380 0.425303 -0.108834
C197  C     C_R   0.145409 0.921236 0.571850 -0.092287
C198  C     C_R   0.337151 0.727586 0.997404 0.105805
C199  C     C_R   0.717626 0.353934 0.042604 0.137897
C200  C     C_R   0.662849 0.727586 0.002596 0.105805
H1    H     H_    0.668020 0.310565 0.830484 0.175219
H2    H     H_    0.411319 0.603076 0.072151 0.147484
H3    H     H_    0.469548 0.343788 0.788683 0.175689
H4    H     H_    0.033191 0.010596 0.827106 0.164706
H5    H     H_    0.972231 0.014024 0.716995 0.173225
H6    H     H_    0.975264 0.041425 0.812442 0.174238
H7    H     H_    0.964868 0.822680 0.170561 0.161896
H8    H     H_    0.015164 0.819905 0.289079 0.151939
H9    H     H_    0.030452 0.843788 0.211317 0.175688
H10   H     H_    0.966809 0.010596 0.172893 0.164706
H11   H     H_    0.027769 0.014024 0.283005 0.173225
H12   H     H_    0.024736 0.041425 0.187558 0.174238
H13   H     H_    0.401908 0.419844 0.068124 0.147787
H14   H     H_    0.035132 0.822680 0.829438 0.161896
H15   H     H_    0.984836 0.819905 0.710921 0.151939
H16   H     H_    0.969548 0.843787 0.788683 0.175688
H17   H     H_    0.810026 0.386604 0.875893 0.148376
H18   H     H_    0.764078 0.415618 0.901398 0.153523
H19   H     H_    0.748792 0.416919 0.790400 0.154318
H20   H     H_    0.314741 0.763091 0.272145 0.110895
H21   H     H_    0.336116 0.838730 0.314578 0.163483
H22   H     H_    0.382206 0.779543 0.348322 0.184804
H23   H     H_    0.189974 0.386604 0.124106 0.148376
H24   H     H_    0.588681 0.603075 0.927849 0.147484
H25   H     H_    0.235922 0.415618 0.098602 0.153523
H26   H     H_    0.251208 0.416919 0.209600 0.154319
H27   H     H_    0.685259 0.763092 0.727855 0.110896
H28   H     H_    0.663883 0.838730 0.685422 0.163483
H29   H     H_    0.617794 0.779543 0.651678 0.184804
H30   H     H_    0.310026 0.886604 0.875894 0.148376
H31   H     H_    0.264078 0.915618 0.901398 0.153523
H32   H     H_    0.248792 0.916919 0.790400 0.154318
H33   H     H_    0.814741 0.263092 0.272145 0.110896
H34   H     H_    0.836116 0.338730 0.314578 0.163482
H35   H     H_    0.098092 0.919844 0.931876 0.147787
H36   H     H_    0.882206 0.279543 0.348322 0.184804
H37   H     H_    0.689974 0.886604 0.124107 0.148377
H38   H     H_    0.735922 0.915618 0.098602 0.153523
H39   H     H_    0.751208 0.916919 0.209600 0.154319
H40   H     H_    0.185259 0.263092 0.727855 0.110895
H41   H     H_    0.163883 0.338730 0.685422 0.163483
H42   H     H_    0.117794 0.279543 0.651678 0.184804
H43   H     H_    0.911319 0.103076 0.072151 0.147484
H44   H     H_    0.901908 0.919844 0.068124 0.147787
H45   H     H_    0.088681 0.103075 0.927849 0.147484
H46   H     H_    0.370707 0.670257 0.945016 0.129898
H47   H     H_    0.673600 0.402586 0.084277 0.126199
H48   H     H_    0.629293 0.670256 0.054984 0.129898
H49   H     H_    0.350786 0.705444 0.195962 0.153025
H50   H     H_    0.326399 0.402586 0.915723 0.126199
H51   H     H_    0.870707 0.170257 0.945016 0.129899
H52   H     H_    0.173600 0.902586 0.084277 0.126199
H53   H     H_    0.129293 0.170256 0.054984 0.129899
H54   H     H_    0.826400 0.902586 0.915723 0.126199
H55   H     H_    0.658185 0.615471 0.643359 0.086050
H56   H     H_    0.321500 0.425061 0.360822 0.090246
H57   H     H_    0.341815 0.615471 0.356641 0.086050
H58   H     H_    0.678500 0.425061 0.639178 0.090247
H59   H     H_    0.158185 0.115472 0.643359 0.086050
H60   H     H_    0.331980 0.310565 0.169516 0.175220
H61   H     H_    0.821500 0.925061 0.360822 0.090246
H62   H     H_    0.841815 0.115472 0.356641 0.086050
H63   H     H_    0.178500 0.925061 0.639178 0.090247
H64   H     H_    0.565111 0.619934 0.359779 0.175783
H65   H     H_    0.415580 0.426740 0.643051 0.141728
H66   H     H_    0.434889 0.619934 0.640221 0.175783
H67   H     H_    0.584420 0.426740 0.356949 0.141728
H68   H     H_    0.065111 0.119934 0.359779 0.175783
H69   H     H_    0.915580 0.926740 0.643051 0.141728
H70   H     H_    0.934889 0.119933 0.640221 0.175783
H71   H     H_    0.649214 0.705444 0.804038 0.153024
H72   H     H_    0.084420 0.926740 0.356949 0.141728
H73   H     H_    0.344429 0.593804 0.240033 0.129261
H74   H     H_    0.655559 0.409437 0.755183 0.171569
H75   H     H_    0.655571 0.593803 0.759967 0.129261
H76   H     H_    0.344441 0.409437 0.244817 0.171569
H77   H     H_    0.844429 0.093803 0.240033 0.129261
H78   H     H_    0.155559 0.909437 0.755183 0.171569
H79   H     H_    0.155571 0.093803 0.759967 0.129261
H80   H     H_    0.844441 0.909437 0.244817 0.171569
H81   H     H_    0.647967 0.391144 0.351028 0.118338
H82   H     H_    0.168020 0.810565 0.830484 0.175219
H83   H     H_    0.408858 0.713144 0.637297 0.134954
H84   H     H_    0.352033 0.391144 0.648972 0.118338
H85   H     H_    0.591141 0.713144 0.362703 0.134954
H86   H     H_    0.147967 0.891144 0.351028 0.118338
H87   H     H_    0.908858 0.213144 0.637297 0.134954
H88   H     H_    0.852033 0.891144 0.648972 0.118338
H89   H     H_    0.091142 0.213144 0.362703 0.134954
H90   H     H_    0.747702 0.404959 0.636181 0.120314
H91   H     H_    0.301628 0.693621 0.354338 0.114889
H92   H     H_    0.252298 0.404959 0.363819 0.120314
H93   H     H_    0.850786 0.205444 0.195962 0.153025
H94   H     H_    0.698372 0.693621 0.645662 0.114889
H95   H     H_    0.247702 0.904959 0.636181 0.120314
H96   H     H_    0.801628 0.193621 0.354338 0.114889
H97   H     H_    0.752298 0.904959 0.363819 0.120314
H98   H     H_    0.198372 0.193621 0.645662 0.114889
H99   H     H_    0.835514 0.364475 0.714715 0.132509
H100  H     H_    0.234198 0.765483 0.269802 0.130732
H101  H     H_    0.164486 0.364475 0.285284 0.132509
H102  H     H_    0.765801 0.765483 0.730198 0.130732
H103  H     H_    0.335514 0.864475 0.714715 0.132509
H104  H     H_    0.831980 0.810565 0.169516 0.175220
H105  H     H_    0.734198 0.265483 0.269802 0.130732
H106  H     H_    0.664486 0.864475 0.285284 0.132509
H107  H     H_    0.265801 0.265484 0.730198 0.130732
H108  H     H_    0.395072 0.791821 0.715233 0.138424
H109  H     H_    0.677181 0.341421 0.268515 0.128103
H110  H     H_    0.604928 0.791821 0.284766 0.138424
H111  H     H_    0.322819 0.341421 0.731485 0.128103
H112  H     H_    0.895072 0.291821 0.715233 0.138424
H113  H     H_    0.177181 0.841421 0.268515 0.128103
H114  H     H_    0.104928 0.291821 0.284766 0.138424
H115  H     H_    0.149214 0.205444 0.804039 0.153024
H116  H     H_    0.822819 0.841421 0.731485 0.128103
H117  H     H_    0.812953 0.254481 0.865393 0.164327
H118  H     H_    0.264181 0.867744 0.183168 0.155892
H119  H     H_    0.187047 0.254480 0.134607 0.164327
H120  H     H_    0.735819 0.867744 0.816832 0.155892
H121  H     H_    0.312953 0.754481 0.865393 0.164327
H122  H     H_    0.764181 0.367744 0.183168 0.155892
H123  H     H_    0.687047 0.754481 0.134607 0.164328
H124  H     H_    0.235819 0.367744 0.816832 0.155892
H125  H     H_    0.533191 0.510596 0.827106 0.164706
H126  H     H_    0.598092 0.419844 0.931876 0.147787
H127  H     H_    0.472231 0.514024 0.716995 0.173225
H128  H     H_    0.475264 0.541425 0.812442 0.174237
H129  H     H_    0.464868 0.322680 0.170561 0.161896
H130  H     H_    0.515164 0.319905 0.289079 0.151939
H131  H     H_    0.530452 0.343788 0.211317 0.175688
H132  H     H_    0.466809 0.510596 0.172893 0.164706
H133  H     H_    0.527769 0.514024 0.283005 0.173225
H134  H     H_    0.524736 0.541425 0.187558 0.174238
H135  H     H_    0.535132 0.322680 0.829439 0.161896
H136  H     H_    0.484836 0.319905 0.710921 0.151939
N1    N     N_R   0.532970 0.559900 0.665210 -0.105012
N2    N     N_R   0.402100 0.440070 0.454470 -0.040775
N3    N     N_R   0.402100 0.559930 0.454470 -0.036037
N4    N     N_R   0.597900 0.440070 0.545530 -0.040775
N5    N     N_R   0.097900 0.059930 0.545530 -0.036037
N6    N     N_R   0.902100 0.940070 0.454470 -0.040775
N7    N     N_R   0.902100 0.059930 0.454470 -0.036037
N8    N     N_R   0.097900 0.940070 0.545530 -0.040775
N9    N     N_R   0.567170 0.559950 0.454460 -0.047483
N10   N     N_R   0.432830 0.440050 0.545540 -0.046897
N11   N     N_R   0.432830 0.559950 0.545540 -0.047483
N12   N     N_R   0.467030 0.440100 0.334790 -0.101661
N13   N     N_R   0.567170 0.440050 0.454460 -0.046897
N14   N     N_R   0.067170 0.059950 0.454460 -0.047483
N15   N     N_R   0.932830 0.940050 0.545540 -0.046897
N16   N     N_R   0.932830 0.059950 0.545540 -0.047483
N17   N     N_R   0.067170 0.940050 0.454460 -0.046897
N18   N     N_R   0.421470 0.559970 0.334770 -0.057202
N19   N     N_R   0.578530 0.440030 0.665230 -0.069216
N20   N     N_R   0.578530 0.559970 0.665230 -0.057202
N21   N     N_R   0.421470 0.440030 0.334770 -0.069216
N22   N     N_R   0.921470 0.059970 0.334770 -0.057202
N23   N     N_R   0.467030 0.559900 0.334790 -0.105012
N24   N     N_R   0.078530 0.940030 0.665230 -0.069216
N25   N     N_R   0.078530 0.059970 0.665230 -0.057202
N26   N     N_R   0.921470 0.940030 0.334770 -0.069216
N27   N     N_R   0.532970 0.440100 0.665210 -0.101661
N28   N     N_R   0.032970 0.059900 0.665210 -0.105012
N29   N     N_R   0.967030 0.940100 0.334790 -0.101661
N30   N     N_R   0.967030 0.059900 0.334790 -0.105012
N31   N     N_R   0.032970 0.940100 0.665210 -0.101661
N32   N     N_R   0.597900 0.559930 0.545530 -0.036037
Ni1   Ni    Ni4+2 0.483030 0.500000 0.604430 0.218733
Ni2   Ni    Ni4+2 0.516970 0.500000 0.395570 0.218733
Ni3   Ni    Ni4+2 0.983030 0.000000 0.604430 0.218733
Ni4   Ni    Ni4+2 0.016970 0.000000 0.395570 0.218733
Ni5   Ni    Ni4+2 0.587400 0.500000 0.604430 0.194034
Ni6   Ni    Ni4+2 0.412600 0.500000 0.395570 0.194034
Ni7   Ni    Ni4+2 0.087400 0.000000 0.604430 0.194034
Ni8   Ni    Ni4+2 0.912600 0.000000 0.395570 0.194034
O1    O     O_3   0.510997 0.594257 0.768827 -0.665374
O2    O     O_3   0.351796 0.810086 0.222004 -0.613148
O3    O     O_3   0.255990 0.334374 0.165686 -0.631502
O4    O     O_3   0.648204 0.810086 0.777997 -0.613149
O5    O     O_3   0.244010 0.834374 0.834314 -0.631502
O6    O     O_3   0.851796 0.310086 0.222004 -0.613149
O7    O     O_3   0.755990 0.834374 0.165686 -0.631502
O8    O     O_3   0.148204 0.310086 0.777997 -0.613148
O9    O     O_3   0.489789 0.404888 0.234630 -0.668014
O10   O     O_3   0.489003 0.594257 0.231173 -0.665374
O11   O     O_3   0.510211 0.404888 0.765370 -0.668014
O12   O     O_3   0.010997 0.094257 0.768827 -0.665374
O13   O     O_3   0.989789 0.904887 0.234630 -0.668014
O14   O     O_3   0.989003 0.094257 0.231173 -0.665374
O15   O     O_3   0.010211 0.904887 0.765370 -0.668014
O16   O     O_3   0.744010 0.334374 0.834314 -0.631502

loop_
_geom_bond_atom_site_label_1
_geom_bond_atom_site_label_2
_ccdc_geom_bond_type
C44   H74   S    
C7    C29   A    
C171  H44   S    
C160  H52   S    
C131  H102  S    
C74   C83   A    
C136  C140  A    
C106  O2    S    
C66   C85   S    
C41   C67   A    
C111  H37   S    
C49   C60   A    
C32   H123  S    
N3    Ni6   S    
C195  H61   S    
C122  C139  A    
C147  C164  A    
C59   C168  A    
C74   H86   S    
C107  H26   S    
C173  H1    S    
N10   Ni1   S    
C2    C90   A    
C9    C182  A    
N29   Ni4   S    
C11   C15   A    
C113  C122  A    
C154  H46   S    
C10   C20   A    
C45   N20   A    
C3    C158  A    
C13   C130  A    
N16   Ni3   S    
C35   C115  A    
C72   H84   S    
C117  C126  A    
C47   C53   A    
C194  N5    A    
C74   C123  A    
C153  C180  A    
C61   C189  A    
C148  C165  A    
C39   C65   A    
C5    C186  A    
C36   C62   A    
C178  H115  S    
C103  H10   S    
C37   C63   A    
C38   C64   A    
N25   N28   A    
C20   O4    S    
C30   H121  S    
C115  C123  A    
C176  H93   S    
C176  C185  A    
C104  H16   S    
C16   C188  A    
N14   Ni4   S    
C129  C142  A    
C108  H28   S    
C132  C137  A    
C34   C61   A    
C148  C174  A    
C177  C186  A    
N11   Ni1   S    
C93   H96   S    
C149  C175  A    
C60   C151  S    
C58   C153  S    
C152  C170  A    
C109  H30   S    
C7    C188  A    
C43   C54   A    
C43   N18   A    
C107  O3    S    
C99   H136  S    
C141  H112  S    
N7    N16   A    
C193  H58   S    
C127  C143  A    
C137  H108  S    
N12   N21   A    
C54   C145  S    
C62   C81   S    
C164  H126  S    
C173  C182  A    
C105  H17   S    
C130  H101  S    
N22   N30   A    
C124  N23   A    
C191  N2    A    
N22   Ni8   S    
C121  C140  A    
C114  H40   S    
C65   C194  A    
C168  N30   A    
N26   Ni8   S    
C182  C199  A    
N24   N31   A    
C157  O13   S    
C34   H64   S    
C180  H104  S    
C191  H56   S    
C61   C82   S    
C112  N12   A    
C159  H51   S    
N7    Ni8   S    
C80   C88   A    
C10   C16   A    
C44   C55   A    
C139  H110  S    
C12   C185  A    
C98   H132  S    
C159  C167  A    
C128  C190  A    
C84   C93   A    
C42   H72   S    
C86   C95   A    
C14   C21   A    
C4    C159  A    
C197  H63   S    
C96   H128  S    
C142  H113  S    
C102  H8    S    
C35   C132  A    
C97   H129  S    
C78   C87   A    
C98   H133  S    
C109  H31   S    
C135  O11   S    
C24   C131  A    
C162  H54   S    
C48   N22   A    
C98   O10   S    
C17   O16   S    
C60   C179  A    
C92   H95   S    
C101  C118  A    
C109  O5    S    
C111  O7    S    
C154  C198  A    
C109  H32   S    
C146  N28   A    
C75   C84   A    
C151  C177  A    
C140  H111  S    
C21   O5    S    
C63   C192  A    
C12   C22   A    
C172  H49   S    
C2    C129  A    
C23   O7    S    
C194  H59   S    
N27   Ni1   S    
C68   C118  A    
C5    C27   A    
C189  N32   A    
C172  C181  A    
C6    C28   A    
N15   Ni3   S    
C105  H19   S    
C132  H103  S    
N8    N17   A    
C77   C127  A    
C110  H33   S    
C37   H66   S    
C145  C172  A    
C52   C148  S    
C53   C149  S    
C168  O14   S    
C51   N26   A    
C63   C80   S    
C162  C171  A    
C144  H116  S    
C103  H11   S    
C134  C139  A    
C138  H109  S    
C47   H76   S    
C145  C163  A    
C45   C52   A    
C50   C56   A    
C90   C120  A    
C31   H122  S    
C38   H67   S    
C47   N21   A    
N5    N14   A    
C6    C161  A    
C5    C160  A    
C189  H55   S    
N8    Ni7   S    
C19   C28   A    
C97   H131  S    
C87   C190  A    
C113  C117  A    
C30   C198  A    
C73   C122  A    
C16   C23   A    
C167  H43   S    
C116  C125  A    
C44   N19   A    
C22   O6    S    
C118  C127  A    
N2    Ni6   S    
C67   C196  A    
C155  C199  A    
C48   C59   A    
C3    C184  A    
C193  N4    A    
C169  H35   S    
C99   H3    S    
C119  C138  A    
C64   C78   S    
C26   H117  S    
C11   C184  A    
C58   C157  A    
C100  H5    S    
C102  H9    S    
C62   C191  A    
N20   Ni5   S    
N3    N11   A    
C91   H94   S    
C146  O12   S    
C183  C200  A    
C151  C169  A    
C57   C94   A    
C71   H83   S    
C134  H106  S    
C179  O15   S    
C107  H25   S    
C126  C144  A    
C143  H114  S    
C135  N27   A    
C37   N11   A    
C166  H13   S    
C177  H82   S    
C20   C29   A    
C42   N17   A    
C75   H87   S    
C76   H88   S    
N31   Ni3   S    
C1    N1    A    
C25   C33   A    
C8    C181  A    
C106  H20   S    
C72   C121  A    
C76   C126  A    
C36   H65   S    
C31   C199  A    
C66   C195  A    
C65   C86   S    
C39   N14   A    
C48   H77   S    
C11   C19   A    
C18   O2    S    
C105  O16   S    
N28   Ni3   S    
C106  H21   S    
C3    C33   A    
C38   N13   A    
C196  N7    A    
C180  C188  A    
C99   H135  S    
N4    Ni5   S    
C79   C119  A    
C160  C169  A    
C100  O12   S    
C56   C152  S    
C128  C141  A    
C72   C81   A    
C99   O11   S    
C175  H60   S    
N24   Ni7   S    
C81   C89   A    
C35   C92   A    
C97   O9    S    
C133  C138  A    
C40   C66   A    
C10   C183  A    
C110  H36   S    
N18   Ni6   S    
C111  H38   S    
C149  C166  A    
C68   C95   A    
C28   H119  S    
C156  H48   S    
C39   H68   S    
C45   H75   S    
C6    C187  A    
C101  C121  A    
C75   C125  A    
C4    C185  A    
C104  O15   S    
N19   Ni5   S    
C155  H47   S    
C51   C58   A    
C90   C115  A    
C19   O3    S    
C178  C187  A    
C25   O8    S    
C96   H125  S    
C95   H98   S    
C57   C134  A    
C17   C26   A    
N30   Ni4   S    
C73   C82   A    
C158  C166  A    
C128  H99   S    
C57   C117  A    
C59   C150  S    
C54   C124  A    
C98   H134  S    
C158  H50   S    
C104  H15   S    
C174  C183  A    
C50   N25   A    
C4    C26   A    
C147  C173  A    
C192  N3    A    
C43   H73   S    
C108  H27   S    
C112  O9    S    
C70   H81   S    
C21   C30   A    
C46   C116  A    
C23   C32   A    
C29   H120  S    
C32   C200  A    
C46   C133  A    
C100  H4    S    
C156  C165  A    
C108  O4    S    
C150  C167  A    
C123  C142  A    
C51   H80   S    
N13   Ni2   S    
C56   C146  A    
C1    C52   A    
C8    C18   A    
C15   C25   A    
N6    N15   A    
C82   C91   A    
C73   H85   S    
C105  H18   S    
C195  N6    A    
C120  C137  A    
C131  C144  A    
C110  H34   S    
C165  H24   S    
C175  C184  A    
N26   N29   A    
C150  C176  A    
C163  H2    S    
C27   H118  S    
C70   C78   A    
C88   H91   S    
C114  O8    S    
C87   H90   S    
C161  H53   S    
C124  O10   S    
C40   H69   S    
C83   C92   A    
C197  N8    A    
N9    N32   A    
C71   C120  A    
C110  O6    S    
N21   Ni6   S    
C77   H89   S    
N32   Ni5   S    
C14   C186  A    
C40   N15   A    
N18   N23   A    
C36   N10   A    
N5    Ni7   S    
N4    N13   A    
C89   H92   S    
C79   C190  A    
C96   H127  S    
C170  H45   S    
C2    C88   A    
C102  H7    S    
C97   H130  S    
C34   N9    A    
C24   C113  A    
C79   C116  A    
C69   C197  A    
C156  C200  A    
C181  C198  A    
C157  N29   A    
C71   C80   A    
C9    C12   A    
C107  H23   S    
C108  H29   S    
C7    C162  A    
C1    O1    S    
C22   C31   A    
C154  C163  A    
C68   C136  A    
N23   Ni2   S    
C192  H57   S    
C125  C141  A    
C100  H6    S    
C76   C85   A    
C15   C187  A    
C50   H79   S    
C42   C69   A    
C111  H39   S    
C33   H124  S    
C69   C83   S    
C85   C94   A    
C55   C147  S    
C70   C119  A    
C64   C193  A    
C153  C171  A    
C49   N24   A    
C41   H70   S    
N17   Ni4   S    
C130  C143  A    
C133  H105  S    
C96   O1    S    
C161  C170  A    
C53   C112  A    
C9    C17   A    
C103  O14   S    
C77   C86   A    
C41   N16   A    
C13   C101  A    
C24   C91   A    
N9    Ni2   S    
C8    C14   A    
C13   C89   A    
C18   C27   A    
C103  H12   S    
C179  N31   A    
C114  H42   S    
C174  H71   S    
N1    N20   A    
C155  C164  A    
N19   N27   A    
C129  H100  S    
N2    N10   A    
C196  H62   S    
C104  H14   S    
C136  H107  S    
C106  H22   S    
C46   C93   A    
N12   Ni2   S    
C49   H78   S    
C55   C135  A    
C94   H97   S    
C152  C178  A    
C102  O13   S    
C67   C84   S    
C114  H41   S    
N1    Ni1   S    
N25   Ni7   S    
N6    Ni8   S    
