data_mof_unit_62965.cif
_audit_creation_date              2013-03-05T16:39:37-0500
_audit_creation_method            fapswitch 2.2
_symmetry_space_group_name_H-M    P1
_symmetry_Int_Tables_number       1
_space_group_crystal_system       triclinic
_cell_length_a                    25.954174
_cell_length_b                    36.275708
_cell_length_c                    22.331038
_cell_angle_alpha                 89.998908
_cell_angle_beta                  125.619578
_cell_angle_gamma                 89.999901
_cell_volume                      17091.1035684

loop_
_atom_site_label
_atom_site_type_symbol
_atom_site_description
_atom_site_fract_x
_atom_site_fract_y
_atom_site_fract_z
_atom_type_partial_charge
Zn1   Zn    Zn3+2 0.987140 0.280510 0.061030 1.060169
Zn2   Zn    Zn3+2 0.012860 0.719490 0.938970 1.058537
Zn3   Zn    Zn3+2 0.012860 0.280510 0.938970 1.060144
Zn4   Zn    Zn3+2 0.987140 0.719490 0.061030 1.059190
Zn5   Zn    Zn3+2 0.487140 0.780510 0.061030 1.058556
Zn6   Zn    Zn3+2 0.512860 0.219490 0.938970 1.060420
Zn7   Zn    Zn3+2 0.512860 0.780510 0.938970 1.059141
Zn8   Zn    Zn3+2 0.487140 0.219490 0.061030 1.062125
Zn9   Zn    Zn3+2 0.073920 0.219480 0.061030 1.043186
Zn10  Zn    Zn3+2 0.926080 0.780520 0.938970 1.043781
Zn11  Zn    Zn3+2 0.926080 0.219480 0.938970 1.043173
Zn12  Zn    Zn3+2 0.073920 0.780520 0.061030 1.043711
Zn13  Zn    Zn3+2 0.573920 0.719480 0.061030 1.043790
Zn14  Zn    Zn3+2 0.426080 0.280520 0.938970 1.042969
Zn15  Zn    Zn3+2 0.426080 0.719480 0.938970 1.043705
Zn16  Zn    Zn3+2 0.573920 0.280520 0.061030 1.043151
O1    O     O_3   0.000000 0.249990 0.000000 -0.515889
O2    O     O_3   0.000000 0.750010 0.000000 -0.515621
O3    O     O_3   0.500000 0.749990 0.000000 -0.515621
O4    O     O_3   0.500000 0.250010 0.000000 -0.516219
O5    O     O_R   0.094460 0.271340 0.957280 -0.610614
O6    O     O_R   0.905540 0.728660 0.042720 -0.610596
O7    O     O_R   0.905540 0.271340 0.042720 -0.610627
O8    O     O_R   0.094460 0.728660 0.957280 -0.610658
O9    O     O_R   0.594460 0.771340 0.957280 -0.610623
O10   O     O_R   0.405540 0.228660 0.042720 -0.611316
O11   O     O_R   0.405540 0.771340 0.042720 -0.610652
O12   O     O_R   0.594460 0.228660 0.957280 -0.610567
O13   O     O_R   0.111850 0.228640 0.162930 -0.627776
O14   O     O_R   0.888150 0.771360 0.837070 -0.626973
O15   O     O_R   0.888150 0.228640 0.837070 -0.627777
O16   O     O_R   0.111850 0.771360 0.162930 -0.627209
O17   O     O_R   0.611850 0.728640 0.162930 -0.626957
O18   O     O_R   0.388150 0.271360 0.837070 -0.627735
O19   O     O_R   0.388150 0.728640 0.837070 -0.627209
O20   O     O_R   0.611850 0.271360 0.162930 -0.628502
O21   O     O_R   0.051760 0.168530 0.042720 -0.625970
O22   O     O_R   0.948240 0.831470 0.957280 -0.626011
O23   O     O_R   0.948240 0.168530 0.957280 -0.626092
O24   O     O_R   0.051760 0.831470 0.042720 -0.625991
O25   O     O_R   0.551760 0.668530 0.042720 -0.626001
O26   O     O_R   0.448240 0.331470 0.957280 -0.625947
O27   O     O_R   0.448240 0.668530 0.957280 -0.625998
O28   O     O_R   0.551760 0.331470 0.042720 -0.626221
O29   O     O_R   0.009000 0.331450 0.957280 -0.629582
O30   O     O_R   0.991000 0.668550 0.042720 -0.629848
O31   O     O_R   0.991000 0.331450 0.042720 -0.629518
O32   O     O_R   0.009000 0.668550 0.957280 -0.630164
O33   O     O_R   0.509000 0.831450 0.957280 -0.629854
O34   O     O_R   0.491000 0.168550 0.042720 -0.628042
O35   O     O_R   0.491000 0.831450 0.042720 -0.630165
O36   O     O_R   0.509000 0.168550 0.957280 -0.629887
O37   O     O_R   0.051110 0.271360 0.162930 -0.598126
O38   O     O_R   0.948890 0.728640 0.837070 -0.600249
O39   O     O_R   0.948890 0.271360 0.837070 -0.598101
O40   O     O_R   0.051110 0.728640 0.162930 -0.599483
O41   O     O_R   0.551110 0.771360 0.162930 -0.600247
O42   O     O_R   0.448890 0.228640 0.837070 -0.598193
O43   O     O_R   0.448890 0.771360 0.837070 -0.599514
O44   O     O_R   0.551110 0.228640 0.162930 -0.595684
O45   O     O_R   0.137190 0.228630 0.042710 -0.645345
O46   O     O_R   0.862810 0.771370 0.957290 -0.645122
O47   O     O_R   0.862810 0.228630 0.957290 -0.645264
O48   O     O_R   0.137190 0.771370 0.042710 -0.645100
O49   O     O_R   0.637190 0.728630 0.042710 -0.645125
O50   O     O_R   0.362810 0.271370 0.957290 -0.645279
O51   O     O_R   0.362810 0.728630 0.957290 -0.645092
O52   O     O_R   0.637190 0.271370 0.042710 -0.645084
C1    C     C_R   0.140063 0.249761 0.999568 0.835245
C2    C     C_R   0.859934 0.750236 0.000428 0.835221
C3    C     C_R   0.859935 0.249762 0.000430 0.835262
C4    C     C_R   0.140067 0.750235 0.999574 0.835196
C5    C     C_R   0.640066 0.749763 0.999572 0.835197
C6    C     C_R   0.359935 0.250239 0.000431 0.834955
C7    C     C_R   0.359933 0.749765 0.000426 0.835217
C8    C     C_R   0.640065 0.250238 0.999570 0.835578
C9    C     C_R   0.098970 0.249956 0.197953 0.858436
C10   C     C_R   0.901029 0.750046 0.802046 0.859459
C11   C     C_R   0.901020 0.249966 0.802048 0.858397
C12   C     C_R   0.098970 0.750045 0.197953 0.859200
C13   C     C_R   0.598971 0.749954 0.197953 0.859487
C14   C     C_R   0.401030 0.250044 0.802046 0.858438
C15   C     C_R   0.401030 0.749955 0.802046 0.859150
C16   C     C_R   0.598959 0.250047 0.197953 0.858504
C17   C     C_R   0.000000 0.150987 0.000000 0.862581
C18   C     C_R   0.999999 0.849013 0.999999 0.862304
C19   C     C_R   0.500000 0.650987 1.000000 0.862295
C20   C     C_R   0.499999 0.349013 0.999999 0.862542
C21   C     C_R   1.000000 0.348956 1.000000 0.809767
C22   C     C_R   1.000000 0.651044 0.000000 0.809702
C23   C     C_R   0.500000 0.848956 1.000000 0.809721
C24   C     C_R   0.500000 0.151044 0.000001 0.810252
C25   C     C_R   0.042112 0.519413 0.990866 0.129881
C26   C     C_R   0.957887 0.480586 0.009134 0.130169
C27   C     C_R   0.957886 0.519413 0.009134 0.129914
C28   C     C_R   0.042111 0.480587 0.990864 0.130193
C29   C     C_R   0.542227 0.019414 0.991057 0.130268
C30   C     C_R   0.457781 0.980587 0.008954 0.129781
C31   C     C_R   0.457782 0.019413 0.008956 0.130394
C32   C     C_R   0.542227 0.980587 0.991056 0.129927
C33   C     C_R   0.999999 0.538651 0.000000 -0.065718
C34   C     C_R   0.999999 0.461349 0.999999 -0.065795
C35   C     C_R   0.500004 0.038651 0.000007 -0.065801
C36   C     C_R   0.500003 0.961349 0.000004 -0.065651
C37   C     C_1   0.999999 0.578392 0.000000 0.078214
C38   C     C_1   0.999999 0.421608 0.999999 0.078643
C39   C     C_1   0.500003 0.078392 0.000005 0.079067
C40   C     C_1   0.500002 0.921608 0.000002 0.078265
C41   C     C_1   1.000000 0.388409 0.999999 -0.069751
C42   C     C_1   0.999999 0.611591 0.000000 -0.070619
C43   C     C_1   0.500001 0.888409 0.000000 -0.070610
C44   C     C_1   0.500002 0.111591 0.000003 -0.068932
H1    H     H_    0.867097 0.085685 0.986005 0.194968
H2    H     H_    0.132604 0.914334 0.013376 0.194944
H3    H     H_    0.132935 0.085670 0.013992 0.194983
H4    H     H_    0.867331 0.914346 0.986557 0.194995
H5    H     H_    0.367402 0.585661 0.986650 0.194949
H6    H     H_    0.632898 0.414335 0.013905 0.194966
H7    H     H_    0.632682 0.585667 0.013515 0.194972
H8    H     H_    0.366899 0.414329 0.985718 0.195049
C45   C     C_R   0.881978 0.132490 0.052822 0.092649
C46   C     C_R   0.117744 0.867440 0.946762 0.092758
C47   C     C_R   0.118034 0.132489 0.947193 0.092627
C48   C     C_R   0.882211 0.867452 0.053184 0.092736
C49   C     C_R   0.382269 0.632564 0.053250 0.092747
C50   C     C_R   0.617993 0.367504 0.947134 0.092657
C51   C     C_R   0.617819 0.632541 0.946852 0.092725
C52   C     C_R   0.381826 0.367552 0.052619 0.092721
C53   C     C_R   0.858186 0.166589 0.056946 0.274354
C54   C     C_R   0.141594 0.833333 0.942753 0.272781
C55   C     C_R   0.141819 0.166592 0.943075 0.274418
C56   C     C_R   0.858376 0.833345 0.057203 0.273133
C57   C     C_R   0.358419 0.666667 0.057254 0.272750
C58   C     C_R   0.641782 0.333399 0.943030 0.274212
C59   C     C_R   0.641653 0.666644 0.942817 0.273122
C60   C     C_R   0.358079 0.333448 0.056796 0.276174
C61   C     C_R   0.799436 0.179483 0.994851 -0.091643
C62   C     C_R   0.200412 0.820521 0.004858 -0.091628
C63   C     C_R   0.200575 0.179481 0.005165 -0.091524
C64   C     C_R   0.799564 0.820522 0.995102 -0.091672
C65   C     C_R   0.299594 0.679478 0.995153 -0.091600
C66   C     C_R   0.700550 0.320519 0.005118 -0.091628
C67   C     C_R   0.700449 0.679480 0.004925 -0.091704
C68   C     C_R   0.299359 0.320517 0.994714 -0.091841
C69   C     C_R   0.765602 0.158193 0.930385 -0.226428
C70   C     C_R   0.234261 0.841897 0.069206 -0.226322
C71   C     C_R   0.234424 0.158180 0.069618 -0.226568
C72   C     C_R   0.765706 0.841896 0.930747 -0.226282
C73   C     C_R   0.265737 0.658095 0.930814 -0.226342
C74   C     C_R   0.734406 0.341831 0.069554 -0.226459
C75   C     C_R   0.734290 0.658125 0.069305 -0.226219
C76   C     C_R   0.265511 0.341774 0.930202 -0.226743
H9    H     H_    0.720855 0.168429 0.883076 0.213863
H10   H     H_    0.279063 0.831723 0.116521 0.213807
H11   H     H_    0.279178 0.168411 0.116923 0.213682
H12   H     H_    0.720907 0.831717 0.883435 0.213912
H13   H     H_    0.220929 0.668264 0.883503 0.213810
H14   H     H_    0.779168 0.331608 0.116857 0.213819
H15   H     H_    0.779074 0.668315 0.116622 0.213918
H16   H     H_    0.220786 0.331510 0.882903 0.213845
C77   C     C_R   0.789643 0.124394 0.926099 0.339711
C78   C     C_R   0.210174 0.875706 0.073370 0.339704
C79   C     C_R   0.210392 0.124375 0.073896 0.339655
C80   C     C_R   0.789778 0.875708 0.926574 0.339685
C81   C     C_R   0.289824 0.624285 0.926656 0.339687
C82   C     C_R   0.710370 0.375638 0.073817 0.339574
C83   C     C_R   0.710216 0.624317 0.073495 0.339644
C84   C     C_R   0.289510 0.375578 0.925862 0.339566
C85   C     C_R   0.847990 0.111834 0.987845 -0.270697
C86   C     C_R   0.151752 0.888182 0.011626 -0.270911
C87   C     C_R   0.152036 0.111823 0.012158 -0.270625
C88   C     C_R   0.848195 0.888191 0.988314 -0.270875
C89   C     C_R   0.348254 0.611815 0.988396 -0.270935
C90   C     C_R   0.652002 0.388181 0.012082 -0.270742
C91   C     C_R   0.651818 0.611819 0.011745 -0.270873
C92   C     C_R   0.347827 0.388175 0.987598 -0.270666
C93   C     C_R   0.218813 0.717090 0.992815 -0.173892
C94   C     C_R   0.781258 0.282902 0.007326 -0.173799
C95   C     C_R   0.781206 0.717093 0.007221 -0.173727
C96   C     C_R   0.218707 0.282897 0.992609 -0.173795
C97   C     C_R   0.718738 0.217099 0.992668 -0.173542
C98   C     C_R   0.281189 0.782909 0.007188 -0.173863
C99   C     C_R   0.281276 0.217100 0.007360 -0.174327
C100  C     C_R   0.718798 0.782908 0.992786 -0.173790
H17   H     H_    0.195402 0.691527 0.989057 0.167387
H18   H     H_    0.804722 0.308462 0.011190 0.167611
H19   H     H_    0.804630 0.691530 0.011004 0.167434
H20   H     H_    0.195223 0.308456 0.988706 0.167624
H21   H     H_    0.695274 0.191539 0.988802 0.167688
H22   H     H_    0.304600 0.808473 0.010946 0.167390
H23   H     H_    0.304756 0.191542 0.011256 0.167765
H24   H     H_    0.695374 0.808471 0.989005 0.167438
C101  C     C_R   0.195524 0.750737 0.998430 -0.031711
C102  C     C_R   0.804475 0.249261 0.001567 -0.031870
C103  C     C_R   0.804478 0.750738 0.001573 -0.031686
C104  C     C_R   0.195519 0.249258 0.998421 -0.031928
C105  C     C_R   0.695523 0.250740 0.998429 -0.031954
C106  C     C_R   0.304477 0.749263 0.001571 -0.031711
C107  C     C_R   0.304470 0.250740 0.001559 -0.031904
C108  C     C_R   0.695525 0.749263 0.998431 -0.031693
C109  C     C_R   0.226310 0.784076 0.004665 0.096199
C110  C     C_R   0.773612 0.215928 0.995183 0.096187
C111  C     C_R   0.773677 0.784077 0.995311 0.096234
C112  C     C_R   0.226397 0.215927 0.004834 0.096182
C113  C     C_R   0.726382 0.284073 0.004805 0.096197
C114  C     C_R   0.273693 0.715923 0.995340 0.096208
C115  C     C_R   0.273575 0.284070 0.995115 0.096496
C116  C     C_R   0.726329 0.715925 0.004700 0.096228
C117  C     C_R   0.771167 0.267314 0.461309 0.081051
C118  C     C_R   0.226993 0.735330 0.538704 0.081320
C119  C     C_R   0.230388 0.268900 0.538691 0.081569
C120  C     C_R   0.774292 0.737412 0.461294 0.081093
C121  C     C_R   0.273006 0.764671 0.461296 0.081319
C122  C     C_R   0.730981 0.230570 0.538702 0.079130
C123  C     C_R   0.725708 0.762587 0.538706 0.081082
C124  C     C_R   0.269612 0.231101 0.461309 0.081646
C125  C     C_R   0.712331 0.249055 0.422658 -0.135431
C126  C     C_R   0.289175 0.749209 0.577331 -0.134558
C127  C     C_R   0.289317 0.250740 0.577331 -0.134747
C128  C     C_R   0.710896 0.749189 0.422669 -0.134308
C129  C     C_R   0.210824 0.750792 0.422669 -0.134554
C130  C     C_R   0.789757 0.248894 0.577353 -0.134542
C131  C     C_R   0.789103 0.750810 0.577331 -0.134298
C132  C     C_R   0.210683 0.249260 0.422669 -0.134844
C133  C     C_R   0.691964 0.230767 0.461157 0.249499
C134  C     C_R   0.312332 0.763940 0.538831 0.247204
C135  C     C_R   0.309066 0.231774 0.538844 0.247270
C136  C     C_R   0.686447 0.761834 0.461170 0.247255
C137  C     C_R   0.187667 0.736061 0.461169 0.247193
C138  C     C_R   0.809926 0.267403 0.538860 0.248117
C139  C     C_R   0.813552 0.738165 0.538829 0.247237
C140  C     C_R   0.190934 0.268226 0.461156 0.247412
C141  C     C_1   0.672153 0.249593 0.343175 0.129865
C142  C     C_1   0.328721 0.749493 0.656823 0.127519
C143  C     C_1   0.328796 0.250488 0.656823 0.127789
C144  C     C_1   0.671318 0.749486 0.343177 0.127464
C145  C     C_1   0.171278 0.750508 0.343177 0.127525
C146  C     C_1   0.829012 0.249354 0.656834 0.127923
C147  C     C_1   0.828681 0.750513 0.656823 0.127464
C148  C     C_1   0.171204 0.249512 0.343177 0.127772
C149  C     C_1   0.861870 0.249693 0.723180 -0.047171
C150  C     C_1   0.138235 0.750258 0.276826 -0.047304
C151  C     C_1   0.138212 0.249745 0.276826 -0.047285
C152  C     C_1   0.861750 0.750258 0.723174 -0.047396
C153  C     C_1   0.361765 0.749742 0.723174 -0.047307
C154  C     C_1   0.638653 0.249886 0.276826 -0.046109
C155  C     C_1   0.638250 0.749741 0.276826 -0.047392
C156  C     C_1   0.361788 0.250255 0.723174 -0.047191
H25   H     H_    0.102077 0.033963 0.073015 0.191981
H26   H     H_    0.897922 0.966036 0.926984 0.192145
H27   H     H_    0.897923 0.033967 0.926984 0.191943
H28   H     H_    0.102075 0.966033 0.073011 0.192231
H29   H     H_    0.602076 0.533963 0.073013 0.192160
H30   H     H_    0.397920 0.466037 0.926967 0.191851
H31   H     H_    0.397924 0.533967 0.926974 0.192227
H32   H     H_    0.602075 0.466033 0.073010 0.191985
C157  C     C_R   0.057421 0.980723 0.041037 -0.122202
C158  C     C_R   0.942578 0.019277 0.958959 -0.122256
C159  C     C_R   0.942577 0.980725 0.958959 -0.122290
C160  C     C_R   0.057422 0.019275 0.041039 -0.122054
C161  C     C_R   0.557420 0.480723 0.041033 -0.122169
C162  C     C_R   0.442578 0.519277 0.958949 -0.122211
C163  C     C_R   0.442576 0.480725 0.958946 -0.121990
C164  C     C_R   0.557421 0.519275 0.041035 -0.122206
C165  C     C_R   0.999999 0.961376 0.999997 0.119954
C166  C     C_R   0.000000 0.038624 1.000000 0.120176
C167  C     C_R   0.499998 0.461376 0.999988 0.120192
C168  C     C_R   0.500000 0.538624 0.999994 0.119929
C169  C     C_1   0.999998 0.921733 0.999997 -0.023685
C170  C     C_1   0.000001 0.078267 0.000001 -0.023426
C171  C     C_1   0.499998 0.421733 0.999990 -0.023315
C172  C     C_1   0.500001 0.578267 0.999997 -0.023661
C173  C     C_1   0.000001 0.111481 0.000001 -0.087446
C174  C     C_1   0.999998 0.888519 0.999998 -0.087654
C175  C     C_1   0.500001 0.611481 0.999999 -0.087643
C176  C     C_1   0.499998 0.388519 0.999994 -0.087284
I1    I     I_    0.105468 0.450381 0.977122 -0.175787
I2    I     I_    0.894529 0.549619 0.022874 -0.176516
I3    I     I_    0.894531 0.450380 0.022876 -0.175467
I4    I     I_    0.105470 0.549620 0.977127 -0.176980
I5    I     I_    0.605749 0.950381 0.977593 -0.176640
I6    I     I_    0.394262 0.049619 0.022424 -0.174685
I7    I     I_    0.394257 0.950380 0.022415 -0.177129
I8    I     I_    0.605750 0.049620 0.977595 -0.175157
I9    I     I_    0.966834 0.109258 0.144533 -0.168590
I10   I     I_    0.032763 0.890553 0.855031 -0.166433
I11   I     I_    0.033169 0.109265 0.855486 -0.169805
I12   I     I_    0.967181 0.890576 0.144910 -0.166952
I13   I     I_    0.467263 0.609459 0.144979 -0.166254
I14   I     I_    0.533110 0.390715 0.855425 -0.168511
I15   I     I_    0.532874 0.609398 0.855122 -0.166984
I16   I     I_    0.466621 0.390843 0.144312 -0.171245
N1    N     N_R   0.893024 0.187778 0.123743 0.212264
O53   O     O_R   0.864835 0.200681 0.152057 -0.338424
O54   O     O_R   0.951987 0.196350 0.153799 -0.369600
N2    N     N_R   0.106756 0.812070 0.876054 0.212894
O55   O     O_R   0.134922 0.799135 0.847735 -0.335947
O56   O     O_R   0.047816 0.803473 0.846086 -0.365957
N3    N     N_R   0.106971 0.187787 0.876285 0.212252
O57   O     O_R   0.135148 0.200693 0.847958 -0.338763
O58   O     O_R   0.048010 0.196359 0.846245 -0.369644
N4    N     N_R   0.893221 0.812084 0.123909 0.212699
O59   O     O_R   0.865061 0.799149 0.152235 -0.336445
O60   O     O_R   0.952163 0.803492 0.153879 -0.367114
N5    N     N_R   0.393263 0.687940 0.123945 0.212887
O61   O     O_R   0.365105 0.700878 0.152273 -0.335943
O62   O     O_R   0.452200 0.696538 0.153899 -0.365981
N6    N     N_R   0.606929 0.312194 0.876256 0.212250
O63   O     O_R   0.635096 0.299281 0.847923 -0.338310
O64   O     O_R   0.547971 0.303621 0.846235 -0.369559
N7    N     N_R   0.606821 0.687891 0.876092 0.212722
O65   O     O_R   0.635000 0.700818 0.847783 -0.336475
O66   O     O_R   0.547873 0.696480 0.846089 -0.367044
N8    N     N_R   0.392932 0.312292 0.123635 0.211660
O67   O     O_R   0.364747 0.299396 0.151960 -0.340966
O68   O     O_R   0.451908 0.303740 0.153720 -0.375154
N9    N     N_R   0.754968 0.102930 0.859393 0.238763
O69   O     O_R   0.700888 0.114536 0.802018 -0.304042
O70   O     O_R   0.777186 0.071601 0.855291 -0.348554
N10   N     N_R   0.244881 0.897263 0.139951 0.238784
O71   O     O_R   0.299025 0.885730 0.197329 -0.304170
O72   O     O_R   0.222639 0.928612 0.143929 -0.348643
N11   N     N_R   0.245087 0.102898 0.140586 0.238925
O73   O     O_R   0.299188 0.114490 0.197944 -0.303520
O74   O     O_R   0.222870 0.071567 0.144686 -0.348111
N12   N     N_R   0.755060 0.897264 0.859988 0.238753
O75   O     O_R   0.700919 0.885725 0.802615 -0.304042
O76   O     O_R   0.777288 0.928616 0.856002 -0.348799
N13   N     N_R   0.255107 0.602719 0.860086 0.238794
O77   O     O_R   0.200948 0.614243 0.802718 -0.304105
O78   O     O_R   0.277354 0.571372 0.856108 -0.348651
N14   N     N_R   0.745074 0.397127 0.140489 0.238884
O79   O     O_R   0.799192 0.385546 0.197840 -0.303570
O80   O     O_R   0.722851 0.428457 0.144579 -0.348213
N15   N     N_R   0.744912 0.602782 0.140109 0.238779
O81   O     O_R   0.799024 0.614341 0.197499 -0.303919
O82   O     O_R   0.722689 0.571430 0.144106 -0.348622
N16   N     N_R   0.254821 0.397010 0.859112 0.238948
O83   O     O_R   0.200753 0.385378 0.801757 -0.303576
O84   O     O_R   0.277015 0.428335 0.854950 -0.347894
N17   N     N_R   0.869730 0.286272 0.578505 0.235276
O85   O     O_R   0.871876 0.321570 0.569873 -0.293110
O86   O     O_R   0.921633 0.268802 0.627241 -0.306950
N18   N     N_R   0.124353 0.721695 0.421521 0.235510
O87   O     O_R   0.114927 0.687319 0.429151 -0.290412
O88   O     O_R   0.076357 0.742107 0.373560 -0.304094
N19   N     N_R   0.130979 0.286935 0.421496 0.235248
O89   O     O_R   0.128634 0.322319 0.429126 -0.293024
O90   O     O_R   0.079113 0.269216 0.373531 -0.306804
N20   N     N_R   0.878126 0.725935 0.578475 0.235490
O91   O     O_R   0.890773 0.692280 0.570844 -0.289513
O92   O     O_R   0.924138 0.747458 0.626439 -0.303631
N21   N     N_R   0.375646 0.778306 0.578479 0.235508
O93   O     O_R   0.385071 0.812682 0.570849 -0.290470
O94   O     O_R   0.423642 0.757894 0.626439 -0.304107
N22   N     N_R   0.631693 0.212415 0.421523 0.239468
O95   O     O_R   0.588418 0.222574 0.430310 -0.283194
O96   O     O_R   0.618253 0.187371 0.372696 -0.325828
N23   N     N_R   0.621873 0.774064 0.421525 0.235493
O97   O     O_R   0.609225 0.807718 0.429155 -0.289593
O98   O     O_R   0.575862 0.752540 0.373561 -0.303617
N24   N     N_R   0.369021 0.213064 0.578504 0.235428
O99   O     O_R   0.371364 0.177681 0.570872 -0.293023
O100  O     O_R   0.420886 0.230784 0.626471 -0.306055
I17   I     I_    0.803150 0.293232 0.402439 -0.058146
I18   I     I_    0.190948 0.715281 0.597669 -0.059475
I19   I     I_    0.199058 0.295513 0.597640 -0.057619
I20   I     I_    0.812073 0.720574 0.402326 -0.062620
I21   I     I_    0.309051 0.784721 0.402331 -0.059522
I22   I     I_    0.702460 0.200826 0.597554 -0.057345
I23   I     I_    0.687926 0.779425 0.597674 -0.062786
I24   I     I_    0.300943 0.204488 0.402361 -0.056090

loop_
_geom_bond_atom_site_label_1
_geom_bond_atom_site_label_2
_geom_bond_distance
_ccdc_geom_bond_type
C31   C35   1.408181 A    
C37   C42   1.204314 T    
C28   C34   1.408183 A    
C106  C114  1.411014 A    
Zn8   O10   1.937656 S    
C39   C44   1.204314 T    
C13   C155  1.431808 S    
C95   C103  1.399682 A    
C163  C167  1.400967 A    
C93   C101  1.399686 A    
C145  C150  1.204512 T    
O42   C14   1.275103 A    
C103  C111  1.411014 A    
C61   C110  1.484224 S    
C137  N18   1.435659 S    
C54   N2    1.436076 S    
C32   C36   1.408182 A    
C101  C109  1.411007 A    
O46   C2    1.266885 A    
C123  C136  1.407807 A    
O24   C18   1.275538 A    
Zn6   O42   1.908948 S    
C65   C114  1.484253 S    
C121  C134  1.407800 A    
C122  C130  1.407208 A    
C2    C103  1.454478 S    
C46   C86   1.397924 A    
N12   O75   1.301621 A    
C104  C112  1.411021 A    
C71   H11   1.083334 S    
Zn16  O28   1.907886 S    
C96   C104  1.399677 A    
C59   N7    1.436129 S    
Zn4   O2    1.929855 S    
C67   C75   1.402707 A    
C108  C116  1.411007 A    
C82   N14   1.440010 S    
Zn4   O40   1.908963 S    
C120  I20   2.138405 S    
O33   C23   1.275735 A    
O11   C7    1.266299 A    
Zn7   O43   1.908964 S    
N21   O94   1.301173 A    
O25   C19   1.275540 A    
C82   C90   1.403511 A    
C119  C140  1.407796 A    
N11   O73   1.301613 A    
C157  C165  1.400958 A    
C29   I8    2.141611 S    
C25   C33   1.408181 A    
N15   O82   1.301563 A    
C30   I7    2.141612 S    
C3    C102  1.454490 S    
C120  C128  1.407353 A    
N8    O67   1.301146 A    
C129  C145  1.443063 S    
Zn12  O24   1.907886 S    
C124  C132  1.407305 A    
Zn13  O17   1.910055 S    
O16   C12   1.275071 A    
C94   C102  1.399686 A    
Zn10  O14   1.910056 S    
C67   C116  1.484232 S    
C48   C88   1.397918 A    
C53   N1    1.436107 S    
Zn16  O4    1.928102 S    
Zn7   O33   1.907784 S    
C29   C35   1.408183 A    
Zn5   O3    1.929884 S    
N2    O55   1.301154 A    
O47   C3    1.266894 A    
Zn7   O3    1.929855 S    
C99   C112  1.392897 A    
C160  C166  1.400963 A    
C54   C62   1.415546 A    
Zn8   O34   1.907785 S    
C7    C106  1.454480 S    
H5    C89   1.082193 S    
O43   C15   1.275156 A    
C79   N11   1.440012 S    
C40   C43   1.204314 T    
C14   C156  1.431810 S    
Zn10  O22   1.907902 S    
C117  C125  1.407255 A    
C131  C147  1.443063 S    
C134  N21   1.435658 S    
C69   C77   1.404053 A    
Zn10  O2    1.928068 S    
C172  C175  1.204854 T    
C75   C83   1.404034 A    
C118  C137  1.407800 A    
Zn3   O1    1.929855 S    
C11   C149  1.431756 S    
N20   O91   1.300932 A    
N15   O81   1.301620 A    
C94   H18   1.084812 S    
C133  N22   1.435587 S    
C53   C61   1.415546 A    
C50   C58   1.409288 A    
C60   C68   1.415523 A    
C30   C31   1.408462 A    
N23   O97   1.300933 A    
Zn5   O35   1.907770 S    
C35   C39   1.441611 S    
C98   H22   1.084813 S    
Zn6   O36   1.907769 S    
C126  C134  1.409908 A    
C49   I13   2.121605 S    
N10   O72   1.301564 A    
C98   C109  1.392928 A    
C97   C105  1.399687 A    
C121  I21   2.138417 S    
C128  C136  1.409898 A    
C169  C174  1.204854 T    
O22   C18   1.275540 A    
Zn9   O45   1.938196 S    
Zn11  O47   1.938201 S    
C63   C112  1.484239 S    
C142  C153  1.204514 T    
Zn12  O48   1.938198 S    
N24   O99   1.300911 A    
C74   C82   1.404052 A    
C93   C114  1.392931 A    
C48   C56   1.409310 A    
C77   N9    1.440013 S    
C4    C101  1.454484 S    
Zn1   O37   1.908947 S    
C58   N6    1.436109 S    
Zn5   O11   1.937659 S    
Zn3   O39   1.908964 S    
Zn6   O12   1.937658 S    
C168  C172  1.438082 S    
C100  C108  1.399680 A    
C68   C115  1.484222 S    
C77   C85   1.403511 A    
C59   C67   1.415571 A    
O32   C22   1.275729 A    
N13   O78   1.301562 A    
C19   C175  1.433112 S    
C107  C115  1.411041 A    
N6    O64   1.301052 A    
N17   O86   1.301165 A    
C171  C176  1.204854 T    
N4    O60   1.301053 A    
C72   C80   1.404034 A    
C127  C143  1.443063 S    
C73   C81   1.404032 A    
N14   O79   1.301619 A    
C121  C129  1.407336 A    
O5    C1    1.266287 A    
N11   O74   1.301570 A    
C75   H15   1.083334 S    
C140  N19   1.435645 S    
N1    O53   1.301148 A    
H6    C90   1.082184 S    
Zn4   O6    1.937656 S    
Zn15  O51   1.938201 S    
C15   C153  1.431808 S    
N22   O96   1.301131 A    
C132  C148  1.443064 S    
C26   C34   1.408180 A    
N16   O84   1.301573 A    
N7    O66   1.301054 A    
C139  N20   1.435676 S    
C80   C88   1.403506 A    
O51   C7    1.266907 A    
H25   C160  1.083096 S    
C158  C166  1.400964 A    
C84   N16   1.440008 S    
H26   C159  1.083085 S    
C29   C32   1.408462 A    
O29   C21   1.275733 A    
O8    C4    1.266303 A    
C83   C91   1.403507 A    
Zn9   O1    1.928068 S    
C84   C92   1.403509 A    
C9    C151  1.431812 S    
C50   C90   1.397908 A    
Zn14  O18   1.910056 S    
C161  C164  1.398505 A    
C162  C163  1.398508 A    
O52   C8    1.266895 A    
C119  C127  1.407308 A    
Zn1   O1    1.929884 S    
O40   C12   1.275155 A    
C157  C160  1.398505 A    
C78   N10   1.440013 S    
C158  C159  1.398508 A    
Zn15  O27   1.907885 S    
C68   C76   1.402715 A    
C71   C79   1.404056 A    
Zn16  O20   1.910039 S    
C62   C70   1.402710 A    
C17   C173  1.433104 S    
O9    C5    1.266288 A    
C117  C138  1.407769 A    
C55   C63   1.415558 A    
C52   I16   2.121574 S    
O13   C9    1.275121 A    
N18   O87   1.300937 A    
C130  C138  1.409928 A    
C100  C111  1.392925 A    
C135  N24   1.435642 S    
N12   O76   1.301563 A    
O18   C14   1.275120 A    
O6    C2    1.266283 A    
C27   C33   1.408179 A    
C125  C133  1.409950 A    
C38   C41   1.204314 T    
C143  C156  1.204514 T    
C105  C113  1.411027 A    
Zn13  O25   1.907903 S    
N21   O93   1.300937 A    
Zn15  O3    1.928102 S    
C70   C78   1.404029 A    
C146  C149  1.204480 T    
C28   I1    2.141623 S    
C61   C69   1.402709 A    
C51   C59   1.409311 A    
C52   C60   1.409278 A    
C95   H19   1.084812 S    
N8    O68   1.301044 A    
C102  C110  1.411022 A    
C5    C108  1.454483 S    
C93   H17   1.084814 S    
H4    C88   1.082192 S    
N9    O70   1.301569 A    
C122  C133  1.407699 A    
C165  C169  1.438078 S    
C96   H20   1.084813 S    
H7    C91   1.082189 S    
C50   I14   2.121595 S    
C97   H21   1.084812 S    
H8    C92   1.082180 S    
C32   I5    2.141613 S    
C100  H24   1.084815 S    
C96   C115  1.392870 A    
C79   C87   1.403512 A    
N2    O56   1.301052 A    
C27   I2    2.141622 S    
C56   N4    1.436130 S    
H32   C161  1.083096 S    
C170  C173  1.204854 T    
C55   N3    1.436110 S    
Zn10  O46   1.938200 S    
C16   C154  1.431790 S    
C76   C84   1.404062 A    
C131  C139  1.409899 A    
H28   C157  1.083082 S    
C51   C91   1.397918 A    
C52   C92   1.397902 A    
Zn13  O3    1.928068 S    
Zn14  O4    1.928068 S    
H3    C87   1.082182 S    
Zn2   O38   1.908948 S    
C167  C171  1.438074 S    
N19   O89   1.300909 A    
C120  C139  1.407807 A    
O19   C15   1.275069 A    
C24   C44   1.431193 S    
Zn13  O49   1.938196 S    
Zn2   O32   1.907769 S    
Zn3   O29   1.907784 S    
C148  C151  1.204512 T    
C10   C152  1.431808 S    
C123  C131  1.407352 A    
O37   C9    1.275101 A    
N3    O57   1.301144 A    
O7    C3    1.266318 A    
C58   C66   1.415559 A    
O39   C11   1.275071 A    
C78   C86   1.403507 A    
C45   I9    2.121585 S    
N20   O92   1.301190 A    
C47   I11   2.121591 S    
C48   I12   2.121597 S    
O36   C24   1.275731 A    
C125  C141  1.443010 S    
O12   C8    1.266315 A    
C36   C40   1.441615 S    
C95   C116  1.392915 A    
Zn11  O1    1.928102 S    
C74   H14   1.083335 S    
C47   C55   1.409280 A    
C136  N23   1.435675 S    
Zn1   O31   1.907770 S    
C45   C53   1.409287 A    
C83   N15   1.440013 S    
C124  I24   2.138446 S    
H1    C85   1.082182 S    
O30   C22   1.275730 A    
C56   C64   1.415582 A    
Zn6   O4    1.929884 S    
C57   C65   1.415603 A    
Zn7   O9    1.937654 S    
Zn5   O41   1.908947 S    
C8    C105  1.454487 S    
C60   N8    1.436083 S    
C66   C74   1.402713 A    
H27   C158  1.083092 S    
Zn8   O44   1.908963 S    
N24   O100  1.301181 A    
C12   C150  1.431808 S    
C46   I10   2.121592 S    
C26   C27   1.408462 A    
C119  I19   2.138443 S    
C31   I6    2.141612 S    
C6    C107  1.454492 S    
N5    O61   1.301156 A    
C129  C137  1.409911 A    
C81   N13   1.440013 S    
C72   H12   1.083338 S    
C127  C135  1.409926 A    
C73   H13   1.083335 S    
C47   C87   1.397909 A    
O38   C10   1.275176 A    
O50   C6    1.266861 A    
C45   C85   1.397911 A    
N7    O65   1.301153 A    
C76   H16   1.083334 S    
Zn2   O2    1.929884 S    
N13   O77   1.301627 A    
C138  N17   1.435582 S    
C97   C110  1.392890 A    
C98   C106  1.399680 A    
C122  I22   2.138331 S    
C49   C89   1.397922 A    
C64   C72   1.402711 A    
C65   C73   1.402708 A    
Zn4   O30   1.907785 S    
N17   O85   1.300912 A    
C63   C71   1.402710 A    
Zn8   O4    1.929855 S    
C18   C174  1.433112 S    
O21   C17   1.275540 A    
N14   O80   1.301567 A    
C161  C167  1.400963 A    
C132  C140  1.409926 A    
C162  C168  1.400959 A    
C62   C109  1.484244 S    
C141  C154  1.204499 T    
C81   C89   1.403506 A    
C94   C113  1.392900 A    
C21   C41   1.431193 S    
O49   C5    1.266882 A    
C66   C113  1.484246 S    
C23   C43   1.431193 S    
C25   I4    2.141623 S    
C26   I3    2.141621 S    
C117  I17   2.138291 S    
C70   H10   1.083336 S    
C147  C152  1.204512 T    
Zn16  O52   1.938198 S    
Zn9   O13   1.910055 S    
Zn14  O26   1.907902 S    
C69   H9    1.083332 S    
Zn11  O15   1.910041 S    
Zn12  O16   1.910039 S    
O35   C23   1.275728 A    
O31   C21   1.275727 A    
C144  C155  1.204512 T    
C118  I18   2.138420 S    
Zn15  O19   1.910041 S    
C33   C37   1.441618 S    
C124  C135  1.407796 A    
C126  C142  1.443063 S    
C166  C170  1.438074 S    
C64   C111  1.484249 S    
C51   I15   2.121595 S    
N5    O62   1.301055 A    
C130  C146  1.442977 S    
C1    C104  1.454476 S    
C99   C107  1.399695 A    
C159  C165  1.400957 A    
N19   O90   1.301180 A    
C123  I23   2.138405 S    
H31   C162  1.083083 S    
C164  C168  1.400955 A    
C49   C57   1.409276 A    
Zn9   O21   1.907903 S    
Zn14  O50   1.938200 S    
N23   O98   1.301190 A    
Zn11  O23   1.907885 S    
N3    O58   1.301050 A    
C57   N5    1.436161 S    
H29   C164  1.083088 S    
O34   C24   1.275728 A    
N18   O88   1.301173 A    
H30   C163  1.083100 S    
Zn1   O7    1.937659 S    
C25   C28   1.408459 A    
Zn2   O8    1.937658 S    
O41   C13   1.275175 A    
Zn3   O5    1.937654 S    
O26   C20   1.275538 A    
C22   C42   1.431193 S    
N6    O63   1.301149 A    
O45   C1    1.266879 A    
H2    C86   1.082189 S    
N4    O59   1.301150 A    
C128  C144  1.443062 S    
C80   N12   1.440011 S    
C99   H23   1.084811 S    
O15   C11   1.275128 A    
C118  C126  1.407337 A    
O27   C19   1.275539 A    
N10   O71   1.301620 A    
C20   C176  1.433101 S    
N1    O54   1.301049 A    
O44   C16   1.275020 A    
O20   C16   1.275203 A    
C30   C36   1.408184 A    
N22   O95   1.300959 A    
O10   C6    1.266320 A    
C34   C38   1.441615 S    
O48   C4    1.266905 A    
N9    O69   1.301611 A    
O14   C10   1.275046 A    
N16   O83   1.301609 A    
Zn12  O2    1.928102 S    
O23   C17   1.275539 A    
O28   C20   1.275540 A    
O17   C13   1.275048 A    
C46   C54   1.409412 A    
