data_mof_unit_57608.cif
_audit_creation_date              2012-12-11T15:46:48-0500
_audit_creation_method            fapswitch 2.2
_symmetry_space_group_name_H-M    P1
_symmetry_Int_Tables_number       1
_space_group_crystal_system       triclinic
_cell_length_a                    11.540412
_cell_length_b                    11.450129
_cell_length_c                    19.512573
_cell_angle_alpha                 90.674818
_cell_angle_beta                  90.094322
_cell_angle_gamma                 60.246937
_cell_volume                      2238.29307068

loop_
_atom_site_label
_atom_site_type_symbol
_atom_type_description
_atom_site_fract_x
_atom_site_fract_y
_atom_site_fract_z
_atom_type_partial_charge
C1    C     C_R   0.640423 0.117938 0.599131 0.544491
C2    C     C_1   0.640885 0.703958 0.667987 0.003659
C3    C     C_1   0.147177 0.187978 0.863293 0.000622
C4    C     C_1   0.228118 0.144753 0.735742 -0.029843
C5    C     C_1   0.188421 0.163847 0.805204 -0.028822
C6    C     C_1   0.259345 0.132831 0.676091 0.000071
C7    C     C_1   0.678752 0.190129 0.860974 0.004807
C8    C     C_1   0.658067 0.167579 0.729106 -0.031129
C9    C     C_1   0.665511 0.180264 0.800473 -0.030427
C10   C     C_1   0.652497 0.150532 0.668593 0.003102
C11   C     C_R   0.640921 0.701870 0.184945 0.014344
C12   C     C_R   0.612332 0.745844 0.598589 0.550823
C13   C     C_R   0.524493 0.724765 0.219029 0.035771
C14   C     C_R   0.505280 0.760982 0.286717 0.010833
C15   C     C_R   0.702520 0.782749 0.286041 -0.133674
C16   C     C_R   0.723880 0.743498 0.216707 -0.146554
C17   C     C_3   0.468232 0.632389 0.227955 -0.265168
C18   C     C_3   0.449021 0.671246 0.302641 -0.267958
C19   C     C_R   0.598127 0.780972 0.322571 0.007524
C20   C     C_R   0.163386 0.188901 0.187288 0.011771
C21   C     C_R   0.194381 0.275838 0.223099 0.028709
C22   C     C_R   0.252049 0.244906 0.286967 0.002906
C23   C     C_R   0.298550 0.120133 0.605480 0.562253
C24   C     C_R   0.241686 0.039418 0.284850 -0.161787
C25   C     C_R   0.196561 0.064847 0.216954 -0.166023
C26   C     C_3   0.108864 0.422351 0.241479 -0.039494
C27   C     C_3   0.180263 0.390355 0.309372 -0.205406
C28   C     C_R   0.265033 0.132091 0.321460 0.005581
C29   C     C_R   0.672618 0.178700 0.192123 0.018444
C30   C     C_R   0.766421 0.060776 0.224870 0.028834
C31   C     C_R   0.759320 0.045542 0.293766 0.013960
C32   C     C_R   0.555348 0.258039 0.300228 -0.160236
C33   C     C_R   0.560705 0.273226 0.229402 -0.172264
C34   C     C_R   0.644473 0.113018 0.402607 0.533926
C35   C     C_3   0.916082 0.992949 0.227395 -0.262442
C36   C     C_3   0.906614 0.976092 0.303460 -0.281039
C37   C     C_R   0.659572 0.146287 0.333352 0.017811
C38   C     C_R   0.084889 0.229369 0.929365 0.549976
C39   C     C_R   0.683971 0.604821 0.929624 0.546087
C40   C     C_R   0.708441 0.206051 0.930292 0.547094
C41   C     C_R   0.084376 0.235508 0.125125 0.537900
C42   C     C_R   0.680193 0.616653 0.124093 0.534391
C43   C     C_R   0.708327 0.210177 0.126578 0.542556
C44   C     C_R   0.581300 0.803432 0.395819 0.547515
C45   C     C_R   0.301337 0.115361 0.393824 0.541748
C46   C     C_1   0.670488 0.647114 0.860284 0.004972
C47   C     C_1   0.654492 0.684018 0.728484 -0.030771
C48   C     C_1   0.663383 0.667299 0.799797 -0.030309
Cr1   Cr    Cr6+3 0.404720 0.198220 0.499960 1.012576
Cr2   Cr    Cr6+3 0.698290 0.897110 0.500380 1.022723
Cr3   Cr    Cr6+3 0.396970 0.904720 0.499610 1.021686
Cr4   Cr    Cr6+3 0.926290 0.152010 0.028150 1.020939
Cr5   Cr    Cr6+3 0.921440 0.451830 0.027490 1.020963
Cr6   Cr    Cr6+3 0.626370 0.446880 0.028730 1.021537
H1    H     H_    0.773652 0.802537 0.312217 0.150267
H2    H     H_    0.125919 0.491706 0.209070 0.147092
H3    H     H_    0.247786 0.432938 0.314130 0.095822
H4    H     H_    0.112443 0.412967 0.354104 0.189201
H5    H     H_    0.471847 0.334317 0.329226 0.129657
H6    H     H_    0.482849 0.362154 0.205106 0.119808
H7    H     H_    0.953626 0.062994 0.215856 0.160236
H8    H     H_    0.964963 0.895908 0.198437 0.132022
H9    H     H_    0.948536 0.869350 0.318497 0.139590
H10   H     H_    0.939192 0.035613 0.335392 0.147785
H11   H     H_    0.811793 0.732358 0.190795 0.136712
H12   H     H_    0.544302 0.525108 0.219689 0.159504
H13   H     H_    0.372821 0.667415 0.199964 0.131833
H14   H     H_    0.342436 0.726534 0.318355 0.127732
H15   H     H_    0.514786 0.586007 0.336300 0.163173
H16   H     H_    0.249872 0.952350 0.309935 0.133026
H17   H     H_    0.177156 0.993026 0.190204 0.124866
O1    O     O_R   0.267750 0.231960 0.575440 -0.489171
O2    O     O_R   0.685950 0.784660 0.430010 -0.493445
O3    O     O_R   0.502510 0.767000 0.423980 -0.519286
O4    O     O_R   0.288320 0.026340 0.429250 -0.504619
O5    O     O_3   0.499990 0.000020 0.499980 -0.313460
O6    O     O_R   0.821590 0.119350 0.952850 -0.504216
O7    O     O_R   0.037230 0.162540 0.957390 -0.491798
O8    O     O_R   0.056530 0.344750 0.951370 -0.502978
O9    O     O_R   0.798000 0.560370 0.957490 -0.492372
O10   O     O_R   0.596230 0.579400 0.952760 -0.503726
O11   O     O_R   0.639160 0.321170 0.958690 -0.491921
O12   O     O_R   0.527290 0.186640 0.570530 -0.507923
O13   O     O_R   0.821370 0.124220 0.104400 -0.522209
O14   O     O_R   0.037020 0.167050 0.097880 -0.510808
O15   O     O_R   0.056310 0.349620 0.102920 -0.523190
O16   O     O_R   0.797790 0.564880 0.097980 -0.518158
O17   O     O_R   0.596000 0.584270 0.104310 -0.518922
O18   O     O_R   0.638950 0.325690 0.099180 -0.507463
O19   O     O_3   0.824700 0.350240 0.028120 -0.249281
O20   O     O_R   0.728110 0.003450 0.576380 -0.497709
O21   O     O_R   0.682980 0.789190 0.570500 -0.486363
O22   O     O_R   0.499300 0.771880 0.575540 -0.507266
O23   O     O_R   0.285350 0.030870 0.569740 -0.478654
O24   O     O_R   0.270960 0.227070 0.423890 -0.512699
O25   O     O_R   0.530270 0.182120 0.430040 -0.521480
O26   O     O_R   0.731320 0.998570 0.424830 -0.520636
N1    N     N_3   0.967506 0.464023 0.251428 -0.638431
H18   H     H_    0.924407 0.471579 0.203771 0.270639
H19   H     H_    0.957590 0.390643 0.278157 0.239659

loop_
_geom_bond_atom_site_label_1
_geom_bond_atom_site_label_2
_ccdc_geom_bond_type
C21   C26   S    
C34   C37   S    
C14   C18   S    
Cr4   O19   S    
C35   C36   S    
Cr3   O3    S    
C2    C12   S    
C20   C41   S    
C24   H16   S    
C15   C19   A    
C41   O15   A    
C26   C27   S    
C43   O18   A    
C30   C35   S    
Cr4   O14   S    
Cr5   O8    S    
C34   O25   A    
Cr6   O19   S    
C30   C31   A    
C20   C25   A    
C18   H14   S    
C15   C16   A    
C29   C33   A    
C34   O26   A    
C11   C42   S    
Cr4   O13   S    
C3    C38   S    
C8    C9    S    
Cr1   O1    S    
C7    C40   S    
Cr5   O15   S    
C25   H17   S    
C36   H9    S    
C18   H15   S    
C1    O20   A    
C22   C28   A    
C13   C14   A    
C29   C43   S    
C43   O13   A    
Cr4   O7    S    
C14   C19   A    
C46   C48   T    
C28   C45   S    
C17   H13   S    
C40   O11   A    
Cr5   O9    S    
C24   C25   A    
C39   O10   A    
Cr6   O18   S    
C4    C6    T    
C27   H3    S    
Cr2   O2    S    
C38   O7    A    
Cr1   O24   S    
C31   C37   A    
C15   H1    S    
C29   C30   A    
Cr2   O5    S    
C11   C16   A    
C47   C48   S    
C17   C18   S    
C17   H12   S    
Cr1   O5    S    
Cr5   O16   S    
C32   C37   A    
Cr3   O5    S    
C44   O3    A    
Cr3   O22   S    
C39   C46   S    
Cr2   O21   S    
C26   N1    S    
C33   H6    S    
N1    H19   S    
C22   C27   S    
C12   O22   A    
C42   O17   A    
Cr4   O6    S    
C45   O24   A    
Cr6   O11   S    
C19   C44   S    
C7    C9    T    
Cr2   O26   S    
C31   C36   S    
C23   O1    A    
C12   O21   A    
C1    C10   S    
C24   C28   A    
Cr3   O4    S    
C4    C5    S    
C3    C5    T    
C27   H4    S    
C26   H2    S    
C42   O16   A    
C2    C47   T    
C1    O12   A    
C41   O14   A    
C23   O23   A    
C13   C17   S    
C45   O4    A    
C32   C33   A    
Cr1   O12   S    
C36   H10   S    
C39   O9    A    
Cr6   O17   S    
C11   C13   A    
C35   H7    S    
C6    C23   S    
C35   H8    S    
Cr1   O25   S    
C44   O2    A    
Cr3   O23   S    
Cr2   O20   S    
C20   C21   A    
C8    C10   T    
N1    H18   S    
C38   O8    A    
Cr5   O19   S    
C40   O6    A    
C16   H11   S    
C32   H5    S    
C21   C22   A    
Cr6   O10   S    
