data_mof_unit_58877.cif
_audit_creation_date              2012-12-10T17:52:24-0500
_audit_creation_method            fapswitch 2.2
_symmetry_space_group_name_H-M    P1
_symmetry_Int_Tables_number       1
_space_group_crystal_system       triclinic
_cell_length_a                    18.988457
_cell_length_b                    10.630944
_cell_length_c                    9.911648
_cell_angle_alpha                 89.809822
_cell_angle_beta                  89.879959
_cell_angle_gamma                 91.7455
_cell_volume                      1999.87278305

loop_
_atom_site_label
_atom_site_type_symbol
_atom_type_description
_atom_site_fract_x
_atom_site_fract_y
_atom_site_fract_z
_atom_type_partial_charge
C1    C     C_R   0.501874 0.260706 0.500222 0.843623
C2    C     C_R   0.289118 0.471869 0.500607 -0.036144
C3    C     C_R   0.927033 0.385685 0.501447 0.287150
C4    C     C_R   0.069236 0.383385 0.501396 0.295015
C5    C     C_R   0.815731 0.426333 0.623298 -0.165774
C6    C     C_R   0.745660 0.459680 0.622746 -0.218121
C7    C     C_R   0.710176 0.474686 0.500073 -0.031064
C8    C     C_R   0.745677 0.455911 0.377991 -0.188971
C9    C     C_R   0.815786 0.422770 0.378507 -0.164789
C10   C     C_R   0.851443 0.408204 0.501161 0.093311
C11   C     C_R   0.618764 0.137252 0.628757 -0.170767
C12   C     C_R   0.365148 0.496012 0.500193 0.840173
C13   C     C_R   0.673333 0.074436 0.691174 -0.123732
C14   C     C_R   0.673422 0.943547 0.691037 -0.138940
C15   C     C_R   0.619041 0.875039 0.628163 -0.181734
C16   C     C_R   0.562775 0.937302 0.565795 0.100286
C17   C     C_R   0.562582 0.069190 0.566245 0.097320
C18   C     C_R   0.506788 0.128684 0.500224 -0.091868
C19   C     C_R   0.454374 0.061916 0.430609 -0.210502
C20   C     C_R   0.454637 0.933447 0.429979 -0.178603
C21   C     C_R   0.507243 0.872048 0.499140 -0.098112
C22   C     C_R   0.407344 0.335612 0.140684 -0.182744
C23   C     C_R   0.502284 0.739472 0.499775 0.881897
C24   C     C_R   0.361287 0.255027 0.071274 -0.173468
C25   C     C_R   0.360911 0.254384 0.930809 0.002574
C26   C     C_R   0.407500 0.335327 0.860860 -0.245618
C27   C     C_R   0.454535 0.418672 0.928255 0.163202
C28   C     C_R   0.454434 0.418898 0.072581 0.070857
C29   C     C_R   0.544806 0.577145 0.072234 0.577506
C30   C     C_R   0.543453 0.578061 0.927520 -0.246357
C31   C     C_R   0.634786 0.497150 0.499889 0.831393
C32   C     C_R   0.253263 0.452624 0.623139 -0.204213
C33   C     C_R   0.182103 0.418834 0.623371 -0.146524
C34   C     C_R   0.145706 0.404383 0.501072 0.081681
C35   C     C_R   0.181848 0.422218 0.378530 -0.149831
C36   C     C_R   0.253001 0.455985 0.378310 -0.199231
H1    H     H_    0.280181 0.462511 0.718925 0.161144
H2    H     H_    0.621766 0.238879 0.628451 0.154110
H3    H     H_    0.716028 0.127559 0.738575 0.141101
H4    H     H_    0.716156 0.894932 0.738465 0.135706
H5    H     H_    0.622285 0.773688 0.627200 0.141436
H6    H     H_    0.412800 0.881480 0.378160 0.158596
H7    H     H_    0.404308 0.329794 0.247657 0.203190
H8    H     H_    0.325833 0.193024 0.128103 0.183022
H9    H     H_    0.405331 0.330806 0.753851 0.195968
H10   H     H_    0.155530 0.405954 0.719422 0.158932
H11   H     H_    0.577171 0.642896 0.870996 0.159735
H12   H     H_    0.155066 0.412180 0.282647 0.157593
H13   H     H_    0.279700 0.468627 0.282323 0.164603
H14   H     H_    0.842008 0.416359 0.719423 0.149255
H15   H     H_    0.719170 0.472174 0.718453 0.153149
H16   H     H_    0.719159 0.465098 0.282037 0.157235
H17   H     H_    0.842103 0.409938 0.282731 0.149234
H18   H     H_    0.412377 0.109523 0.379124 0.142708
N1    N     N_R   0.033095 0.380492 0.383603 -0.172914
N2    N     N_R   0.963241 0.381587 0.383627 -0.175074
N3    N     N_R   0.963051 0.383378 0.619317 -0.175913
N4    N     N_R   0.032911 0.382267 0.619292 -0.171335
N5    N     N_R   0.499340 0.498800 0.142780 -0.157704
N6    N     N_R   0.499320 0.498720 0.857170 -0.130203
O1    O     O_R   0.500000 0.316780 0.614690 -0.638088
O2    O     O_R   0.499990 0.316750 0.385360 -0.630080
O3    O     O_R   0.398140 0.500000 0.614700 -0.627909
O4    O     O_R   0.398130 0.499970 0.385370 -0.639766
O5    O     O_R   0.500010 0.683250 0.614640 -0.613493
O6    O     O_R   0.500000 0.683220 0.385310 -0.558832
O7    O     O_R   0.601870 0.500030 0.614630 -0.636443
O8    O     O_R   0.601860 0.500000 0.385300 -0.575079
Zn1   Zn    Zn3+2 0.500000 0.500020 0.653130 0.932725
Zn2   Zn    Zn3+2 0.500000 0.499980 0.346870 0.985918
O9    O     O_3   0.587635 0.660018 0.145488 -0.563236
C37   C     C_3   0.656798 0.667469 0.092905 -0.341349
H19   H     H_    0.660316 0.736194 0.008337 0.165180
H20   H     H_    0.675945 0.574066 0.060880 0.135644
H21   H     H_    0.692684 0.702772 0.173422 0.201166
C38   C     C_2   0.312042 0.169871 0.854949 0.404257
H22   H     H_    0.312415 0.171156 0.745389 0.054377
O10   O     O_2   0.270786 0.098067 0.913448 -0.557448

loop_
_geom_bond_atom_site_label_1
_geom_bond_atom_site_label_2
_ccdc_geom_bond_type
N1    N2    A    
C16   C21   A    
C35   C36   A    
C2    C12   S    
C1    O2    A    
C7    C8    A    
C31   O7    A    
C26   C27   A    
C23   O6    A    
C38   O10   D    
C34   C35   A    
C27   N6    A    
O3    Zn1   S    
C5    C6    A    
C12   O4    A    
O1    Zn1   S    
C15   C16   A    
O2    Zn2   S    
C2    C32   A    
C18   C19   A    
C26   H9    S    
C19   C20   A    
C16   C17   A    
C30   N6    A    
O4    Zn2   S    
C6    H15   S    
C9    C10   A    
C8    H16   S    
C22   C28   A    
C13   C14   A    
C33   H10   S    
C37   H21   S    
C35   H12   S    
C33   C34   A    
C31   O8    A    
C4    C34   S    
C7    C31   S    
C29   N5    A    
C30   H11   S    
C38   H22   S    
C15   H5    S    
C37   H20   S    
C12   O3    A    
C8    C9    A    
C25   C26   A    
O7    Zn1   S    
C11   H2    S    
C29   C30   A    
C3    N2    A    
C22   H7    S    
C17   C18   A    
C1    C18   S    
C32   H1    S    
C24   C25   A    
C3    N3    A    
C19   H18   S    
C21   C23   S    
C4    N1    A    
C24   H8    S    
C22   C24   A    
C5    H14   S    
C9    H17   S    
C28   N5    A    
C2    C36   A    
C11   C17   A    
C37   H19   S    
C1    O1    A    
C20   H6    S    
C6    C7    A    
C25   C38   S    
C32   C33   A    
C23   O5    A    
C5    C10   A    
C3    C10   S    
C11   C13   A    
N3    N4    A    
O6    Zn2   S    
N6    Zn1   S    
O5    Zn1   S    
C13   H3    S    
N5    Zn2   S    
C14   H4    S    
O9    C37   S    
C20   C21   A    
O8    Zn2   S    
C4    N4    A    
C27   C28   A    
C14   C15   A    
C36   H13   S    
C29   O9    S    
