data_mof_unit_43985.cif
_audit_creation_date              2012-12-11T14:21:07-0500
_audit_creation_method            fapswitch 2.2
_symmetry_space_group_name_H-M    P1
_symmetry_Int_Tables_number       1
_space_group_crystal_system       triclinic
_cell_length_a                    21.946662
_cell_length_b                    7.207616
_cell_length_c                    14.912044
_cell_angle_alpha                 90.519816
_cell_angle_beta                  107.09879
_cell_angle_gamma                 90.215976
_cell_volume                      2254.42733967

loop_
_atom_site_label
_atom_site_type_symbol
_atom_type_description
_atom_site_fract_x
_atom_site_fract_y
_atom_site_fract_z
_atom_type_partial_charge
O1    O     O_R   0.584770 0.505770 0.002090 -0.543404
O2    O     O_R   0.415230 0.005770 0.997910 -0.540666
O3    O     O_R   0.467060 0.173340 0.861950 -0.537640
O4    O     O_R   0.532940 0.673340 0.138050 -0.539003
C1    C     C_R   0.455070 0.343199 0.825860 0.679767
C2    C     C_R   0.544902 0.845392 0.174028 0.682867
O5    O     O_R   0.587510 0.175890 0.993210 -0.538902
O6    O     O_R   0.412490 0.675890 0.006790 -0.537279
O7    O     O_R   0.536540 0.008150 0.130100 -0.538026
O8    O     O_R   0.463460 0.508150 0.869900 -0.535826
C3    C     C_R   0.613019 0.345132 0.997703 0.724726
C4    C     C_R   0.387076 0.844720 0.002741 0.728816
O9    O     O_3   0.483140 0.340040 0.044760 -0.375903
O10   O     O_3   0.516860 0.840040 0.955240 -0.376120
V1    V     V_3+5 0.503130 0.064190 0.991700 1.420461
V2    V     V_3+5 0.496870 0.564190 0.008300 1.420951
C5    C     C_2   0.213685 0.727802 0.002701 -0.083362
C6    C     C_2   0.785861 0.227189 0.996917 -0.100356
C7    C     C_2   0.180284 0.886992 0.995818 -0.298399
C8    C     C_2   0.819721 0.386340 0.003898 -0.285891
H1    H     H_    0.190369 0.597144 0.008380 0.149621
H2    H     H_    0.808763 0.096197 0.991103 0.139778
H3    H     H_    0.202005 0.019017 0.988715 0.128454
H4    H     H_    0.798320 0.518757 0.010752 0.123803
C9    C     C_2   0.281496 0.714363 0.002182 -0.107324
C10   C     C_2   0.717965 0.214691 0.997216 -0.127521
C11   C     C_2   0.320071 0.861043 0.004123 -0.300915
C12   C     C_2   0.680211 0.361747 0.997189 -0.295077
H5    H     H_    0.300171 0.575340 0.001002 0.140327
H6    H     H_    0.698501 0.075782 0.996624 0.136818
H7    H     H_    0.302593 0.000832 0.006143 0.137148
H8    H     H_    0.698367 0.501560 0.997003 0.131896
C13   C     C_R   0.927909 0.879095 0.723655 -0.050049
C14   C     C_R   0.073790 0.391959 0.276235 -0.048598
C15   C     C_R   0.573646 0.858900 0.275424 -0.042784
C16   C     C_R   0.426974 0.346125 0.724131 -0.030468
C17   C     C_R   0.936042 0.768740 0.574491 -0.146765
C18   C     C_R   0.064687 0.414651 0.433217 -0.155101
C19   C     C_R   0.964905 0.814020 0.668409 -0.171706
C20   C     C_R   0.036718 0.423069 0.336523 -0.174674
C21   C     C_R   0.862680 0.908778 0.683375 -0.111439
C22   C     C_R   0.139503 0.365927 0.312855 -0.130707
C23   C     C_R   0.833215 0.877811 0.586503 0.107042
C24   C     C_R   0.170051 0.380827 0.410234 0.100151
C25   C     C_R   0.870053 0.791713 0.534708 0.112368
C26   C     C_R   0.130681 0.387136 0.470191 0.110543
C27   C     C_R   0.767246 0.912637 0.542050 -0.049500
C28   C     C_R   0.237735 0.377195 0.450265 -0.053717
C29   C     C_R   0.736565 0.827356 0.452348 -0.010491
C30   C     C_R   0.263559 0.340407 0.548710 -0.015513
C31   C     C_R   0.773576 0.705926 0.411854 0.103065
C32   C     C_R   0.220249 0.296517 0.601259 0.090276
C33   C     C_R   0.840119 0.709969 0.448136 -0.220812
C34   C     C_R   0.156186 0.346243 0.564775 -0.227644
C35   C     C_R   0.730574 0.029569 0.583650 0.351490
C36   C     C_R   0.280869 0.411307 0.396785 0.370390
C37   C     C_R   0.664511 0.028693 0.549475 -0.217387
C38   C     C_R   0.345528 0.375476 0.434697 -0.207685
C39   C     C_R   0.633816 0.946476 0.463383 0.065174
C40   C     C_R   0.371253 0.342409 0.529989 0.065859
C41   C     C_R   0.670204 0.864132 0.409466 0.068559
C42   C     C_R   0.331283 0.344527 0.589184 0.070328
C43   C     C_R   0.567469 0.965067 0.426140 -0.142148
C44   C     C_R   0.437564 0.323967 0.567993 -0.134432
C45   C     C_R   0.537338 0.917645 0.332876 -0.166707
C46   C     C_R   0.465028 0.319288 0.664864 -0.161667
C47   C     C_R   0.639516 0.837497 0.312892 -0.200469
C48   C     C_R   0.361038 0.364907 0.686362 -0.195954
H9    H     H_    0.868838 0.631145 0.413397 0.112133
H10   H     H_    0.124081 0.330490 0.607393 0.116791
H11   H     H_    0.666454 0.820617 0.264016 0.102975
H12   H     H_    0.334480 0.405231 0.733336 0.095267
H13   H     H_    0.486493 0.938732 0.303965 0.122541
H14   H     H_    0.516107 0.302710 0.693554 0.113562
H15   H     H_    0.637331 0.110305 0.585552 0.160575
H16   H     H_    0.376993 0.392543 0.391203 0.162193
H17   H     H_    0.964710 0.706193 0.534388 0.112095
H18   H     H_    0.034535 0.424882 0.479014 0.112571
H19   H     H_    0.015303 0.788094 0.699318 0.103902
H20   H     H_    0.985859 0.445252 0.308718 0.101688
H21   H     H_    0.834887 0.939244 0.730465 0.161004
H22   H     H_    0.165289 0.326603 0.264361 0.166311
H23   H     H_    0.539356 0.024466 0.467909 0.118033
H24   H     H_    0.468210 0.316592 0.522818 0.113927
O11   O     O_R   0.036450 0.233070 0.130130 -0.540528
O12   O     O_R   0.963550 0.733070 0.869870 -0.535569
O13   O     O_R   0.912470 0.560570 0.006790 -0.546338
O14   O     O_R   0.087530 0.060570 0.993210 -0.545580
C49   C     C_R   0.886995 0.391689 0.002610 0.743209
C50   C     C_R   0.113007 0.892113 0.997312 0.737319
O15   O     O_R   0.032920 0.562940 0.138050 -0.533690
O16   O     O_R   0.967080 0.062940 0.861950 -0.532420
O17   O     O_R   0.084790 0.730500 0.002090 -0.535263
O18   O     O_R   0.915210 0.230500 0.997910 -0.536854
C51   C     C_R   0.044985 0.395504 0.174607 0.693207
C52   C     C_R   0.955282 0.893238 0.825427 0.685969
O19   O     O_3   0.016820 0.396170 0.955260 -0.379211
O20   O     O_3   0.983180 0.896170 0.044740 -0.382307
V3    V     V_3+5 0.996880 0.672090 0.008300 1.451261
V4    V     V_3+5 0.003120 0.172090 0.991700 1.449631
C53   C     C_3   0.746606 0.552752 0.339031 -0.351334
C54   C     C_3   0.698955 0.423858 0.366219 -0.275553
C55   C     C_3   0.660629 0.309061 0.281942 -0.735258
H25   H     H_    0.635903 0.400857 0.223180 0.229668
H26   H     H_    0.692369 0.212984 0.258244 0.216529
H27   H     H_    0.623872 0.227547 0.301974 0.234792
H28   H     H_    0.725318 0.329082 0.422643 0.215558
H29   H     H_    0.664899 0.501982 0.393789 0.214180
H30   H     H_    0.727852 0.608174 0.267539 0.156267
H31   H     H_    0.785598 0.461094 0.331693 0.162789
C56   C     C_3   0.235269 0.163515 0.684200 -0.360097
C57   C     C_3   0.260865 0.977585 0.659770 -0.277439
C58   C     C_3   0.272544 0.842334 0.741063 -0.761134
H32   H     H_    0.309672 0.898722 0.803066 0.226174
H33   H     H_    0.227912 0.816926 0.759936 0.226623
H34   H     H_    0.289299 0.708396 0.720215 0.218927
H35   H     H_    0.225765 0.914762 0.597156 0.204678
H36   H     H_    0.306447 0.998503 0.643083 0.209690
H37   H     H_    0.266990 0.223202 0.749656 0.160474
H38   H     H_    0.190964 0.131370 0.703075 0.167890
Cl1   Cl    Cl    0.763167 0.209157 0.665550 -0.693895
Cl2   Cl    Cl    0.261264 0.533281 0.289793 -0.690581

loop_
_geom_bond_atom_site_label_1
_geom_bond_atom_site_label_2
_ccdc_geom_bond_type
C18   C20   A    
C43   C45   A    
C53   C54   S    
C56   C57   S    
C22   H22   S    
O2    C4    A    
C2    O7    A    
C35   Cl1   S    
C38   H16   S    
C27   C29   A    
O5    C3    A    
C13   C19   A    
C14   C20   A    
C56   H37   S    
C57   H35   S    
C16   C46   A    
C37   C39   A    
C15   C45   A    
C38   C40   A    
C46   H14   S    
C1    C16   S    
O16   C52   A    
C45   H13   S    
C2    C15   S    
C40   C42   A    
C49   O18   A    
C44   H24   S    
C8    H4    S    
C24   C26   A    
C14   C22   A    
C29   C31   A    
C6    C10   S    
C30   C32   A    
C20   H20   S    
C54   H29   S    
C15   C47   A    
O17   V3    S    
C47   H11   S    
O6    C4    A    
C58   H34   S    
C28   C30   A    
C33   H9    S    
O6    V2    S    
C21   C23   A    
C22   C24   A    
C57   C58   S    
C32   C34   A    
O13   V3    S    
C9    H5    S    
C39   C41   A    
C29   C41   A    
C4    C11   S    
C11   H7    S    
C12   H8    S    
C14   C51   S    
O4    C2    A    
C18   H18   S    
C32   C56   S    
C53   H31   S    
C17   H17   S    
C5    H1    S    
C43   H23   S    
C56   H38   S    
C31   C33   A    
C44   C46   A    
O4    V2    S    
C7    H3    S    
O12   V3    S    
C41   C47   A    
C34   H10   S    
O18   V4    S    
C48   H12   S    
C21   H21   S    
C26   C34   A    
C54   H28   S    
C55   H26   S    
O1    V2    S    
O2    V1    S    
C23   C25   A    
O14   V4    S    
O12   C52   A    
O14   C50   A    
C10   H6    S    
O13   C49   A    
C30   C42   A    
C31   C53   S    
C17   C25   A    
C13   C52   S    
O19   V4    S    
O3    V1    S    
O16   V4    S    
C50   O17   A    
C27   C35   A    
C58   H32   S    
C28   C36   A    
C6    H2    S    
C10   C12   D    
O3    C1    A    
C36   Cl2   S    
C16   C48   A    
C9    C11   D    
C8    C49   S    
C39   C43   A    
C42   C48   A    
C40   C44   A    
C13   C21   A    
C37   H15   S    
C35   C37   A    
O7    V1    S    
C5    C9    S    
C1    O8    A    
C17   C19   A    
O11   V4    S    
O8    V2    S    
C57   H36   S    
O11   C51   A    
C23   C27   A    
C3    C12   S    
O5    V1    S    
C5    C7    D    
C36   C38   A    
C55   H27   S    
C6    C8    D    
C54   C55   S    
C18   C26   A    
C25   C33   A    
O15   C51   A    
O20   V3    S    
O9    V2    S    
C55   H25   S    
C7    C50   S    
O10   V1    S    
O1    C3    A    
O15   V3    S    
C53   H30   S    
C24   C28   A    
C19   H19   S    
C58   H33   S    
