data_mof_unit_47333.cif
_audit_creation_date              2012-12-11T14:58:33-0500
_audit_creation_method            fapswitch 2.2
_symmetry_space_group_name_H-M    P1
_symmetry_Int_Tables_number       1
_space_group_crystal_system       triclinic
_cell_length_a                    11.112346
_cell_length_b                    11.164741
_cell_length_c                    18.775892
_cell_angle_alpha                 90.653695
_cell_angle_beta                  91.293576
_cell_angle_gamma                 57.934815
_cell_volume                      1973.58365306

loop_
_atom_site_label
_atom_site_type_symbol
_atom_type_description
_atom_site_fract_x
_atom_site_fract_y
_atom_site_fract_z
_atom_type_partial_charge
C1    C     C_R   0.352430 0.778490 0.398791 0.632057
C2    C     C_R   0.204002 0.385814 0.212159 0.311471
C3    C     C_R   0.205411 0.408913 0.284878 0.039290
C4    C     C_R   0.377435 0.348963 0.391713 0.591734
C5    C     C_R   0.834173 0.749154 0.387602 -0.011184
C6    C     C_R   0.820450 0.659762 0.339829 0.405656
C7    C     C_R   0.939080 0.551794 0.305353 -0.112687
C8    C     C_R   0.072886 0.531303 0.316900 0.006851
C9    C     C_R   0.333156 0.315871 0.323294 -0.026334
C10   C     C_R   0.952825 0.255788 0.308437 -0.284171
C11   C     C_R   0.983325 0.240497 0.236175 -0.234310
C12   C     C_R   0.605354 0.079039 0.186640 0.055016
C13   C     C_R   0.876688 0.327077 0.185834 -0.003364
C14   C     C_R   0.737625 0.421208 0.206532 0.397779
C15   C     C_R   0.705780 0.432628 0.278212 0.448145
C16   C     C_R   0.776503 0.378076 0.403234 0.581323
C17   C     C_R   0.814203 0.353674 0.329274 -0.015695
C18   C     C_R   0.412431 0.886662 0.299990 0.434370
C19   C     C_R   0.418463 0.894054 0.225982 -0.066521
C20   C     C_R   0.350259 0.846375 0.180083 0.018023
C21   C     C_R   0.270210 0.798901 0.212401 0.015233
C22   C     C_R   0.229478 0.840561 0.281837 -0.134793
C23   C     C_R   0.326109 0.277051 0.176914 0.002375
C24   C     C_R   0.323343 0.849094 0.328805 0.053569
C25   C     C_R   0.472119 0.250112 0.720207 0.033554
C26   C     C_R   0.452645 0.265997 0.792907 0.424816
C27   C     C_R   0.315651 0.339040 0.819494 0.050397
C28   C     C_R   0.342363 0.773123 0.603565 0.574504
C29   C     C_R   0.198462 0.423665 0.774672 -0.196067
C30   C     C_R   0.218586 0.427328 0.702183 -0.163208
C31   C     C_R   0.353688 0.337903 0.673806 0.015132
C32   C     C_R   0.679888 0.419531 0.732710 0.381610
C33   C     C_R   0.705919 0.403566 0.805786 0.422592
C34   C     C_R   0.440784 0.192818 0.289789 -0.140462
C35   C     C_R   0.844842 0.314841 0.830882 0.010818
C36   C     C_R   0.957320 0.241738 0.783364 -0.211215
C37   C     C_R   0.931772 0.259505 0.710431 -0.244911
C38   C     C_R   0.793408 0.349423 0.685330 -0.026602
C39   C     C_R   0.185335 0.869375 0.709060 -0.009723
C40   C     C_R   0.376409 0.353023 0.599104 0.573344
C41   C     C_R   0.182118 0.870028 0.782914 -0.104321
C42   C     C_R   0.297508 0.851027 0.823726 0.038070
C43   C     C_R   0.417405 0.832133 0.790305 -0.051693
C44   C     C_R   0.423985 0.831465 0.716590 0.012191
C45   C     C_R   0.454359 0.181297 0.216460 -0.062127
C46   C     C_R   0.312720 0.836503 0.675129 0.076566
C47   C     C_R   0.915215 0.314363 0.112303 0.610387
C48   C     C_R   0.305506 0.257307 0.101881 0.575795
C49   C     C_R   0.309005 0.899188 0.106125 0.530044
C50   C     C_R   0.882260 0.310043 0.905151 0.612234
C51   C     C_R   0.297113 0.293188 0.887742 0.596365
C52   C     C_R   0.762685 0.376677 0.610288 0.568297
C53   C     C_R   0.275066 0.895336 0.897747 0.558461
C54   C     C_R   0.863363 0.937940 0.110114 0.399366
C55   C     C_R   0.852215 0.014397 0.171280 -0.065853
C56   C     C_R   0.074343 0.644319 0.346204 0.391862
C57   C     C_R   0.728526 0.077002 0.212476 -0.029717
C58   C     C_3   0.718807 0.837696 0.439873 -0.298615
C59   C     C_3   0.230222 0.703247 0.176157 -0.212153
C60   C     C_3   0.772251 0.815190 0.032808 -0.314638
C61   C     C_3   0.618407 0.135277 0.695592 -0.339379
C62   C     C_3   0.049545 0.908481 0.669027 -0.384048
C63   C     C_3   0.971508 0.860887 0.428061 -0.351721
C64   C     C_3   0.549310 0.828703 0.685072 -0.376235
C65   C     C_3   0.741206 0.120166 0.286613 -0.386083
C66   C     C_R   0.959660 0.750951 0.386184 -0.050022
C67   C     C_R   0.633685 0.977854 0.132755 -0.095968
C68   C     C_R   0.757604 0.911327 0.093365 0.026229
Cr1   Cr    Cr6+3 0.601770 0.606860 0.505860 1.055647
Cr2   Cr    Cr6+3 0.291380 0.601660 0.495070 1.046212
Cr3   Cr    Cr6+3 0.606880 0.291510 0.499120 1.006386
Cr4   Cr    Cr6+3 0.062440 0.063090 0.008210 1.120449
Cr5   Cr    Cr6+3 0.062880 0.375170 0.998920 1.079574
Cr6   Cr    Cr6+3 0.374700 0.061720 0.992470 1.022061
F1    F     F_    0.692940 0.676601 0.326222 -0.564445
F2    F     F_    0.084057 0.478831 0.174905 -0.633498
F3    F     F_    0.633884 0.500782 0.157657 -0.602076
F4    F     F_    0.569290 0.521036 0.298323 -0.565803
F5    F     F_    0.482188 0.927941 0.343158 -0.672894
F6    F     F_    0.566790 0.198490 0.838413 -0.610030
F7    F     F_    0.544608 0.504751 0.707820 -0.611358
F8    F     F_    0.597532 0.476182 0.851640 -0.579974
F9    F     F_    0.980430 0.882440 0.069670 -0.629470
F10   F     F_    0.188109 0.647265 0.329697 -0.635687
H1    H     H_    0.524894 0.110901 0.321603 0.208966
H2    H     H_    0.019268 0.206080 0.674007 0.127771
H3    H     H_    0.084983 0.894665 0.808441 0.150967
H4    H     H_    0.503982 0.824850 0.821899 0.146531
H5    H     H_    0.943185 0.019449 0.188145 0.130787
H6    H     H_    0.557468 0.954307 0.116054 0.165596
H7    H     H_    0.661005 0.950817 0.424482 0.164727
H8    H     H_    0.642741 0.803243 0.443538 0.241195
H9    H     H_    0.765837 0.824636 0.494209 0.054868
H10   H     H_    0.263653 0.681018 0.119873 0.194946
H11   H     H_    0.286153 0.599777 0.203986 0.213382
H12   H     H_    0.925360 0.488727 0.267320 0.181941
H13   H     H_    0.114741 0.747942 0.179577 0.178187
H14   H     H_    0.875809 0.768610 0.006046 0.187300
H15   H     H_    0.763434 0.727293 0.053338 0.159652
H16   H     H_    0.686146 0.875541 0.992607 0.135063
H17   H     H_    0.689091 0.067063 0.739641 0.166315
H18   H     H_    0.609484 0.063020 0.657882 0.111972
H19   H     H_    0.672939 0.182101 0.670721 0.177064
H20   H     H_    0.954937 0.978892 0.701449 0.116742
H21   H     H_    0.038180 0.967673 0.619605 0.128529
H22   H     H_    0.048062 0.811940 0.656191 0.159913
H23   H     H_    0.035837 0.193129 0.347465 0.126610
H24   H     H_    0.007222 0.915850 0.394276 0.135252
H25   H     H_    0.869153 0.946488 0.449335 0.090636
H26   H     H_    0.044101 0.810159 0.474518 0.168295
H27   H     H_    0.515585 0.897081 0.637036 0.119012
H28   H     H_    0.596124 0.870319 0.723330 0.103955
H29   H     H_    0.633563 0.718735 0.671895 0.193767
H30   H     H_    0.845814 0.106364 0.296404 0.116862
H31   H     H_    0.655687 0.230617 0.297002 0.192774
H32   H     H_    0.740258 0.046788 0.325291 0.140027
H33   H     H_    0.090987 0.165775 0.219624 0.125912
H34   H     H_    0.470146 0.942390 0.206880 0.113784
H35   H     H_    0.132210 0.854210 0.299404 0.176420
H36   H     H_    0.091580 0.481302 0.794988 0.145106
H37   H     H_    0.128089 0.495556 0.667920 0.129558
H38   H     H_    0.065786 0.175859 0.803039 0.130713
O1    O     O_R   0.748800 0.497470 0.428000 -0.462637
O2    O     O_R   0.417600 0.174890 0.067840 -0.528200
O3    O     O_R   0.375320 0.946260 0.070860 -0.551675
O4    O     O_R   0.476420 0.724060 0.429470 -0.425627
O5    O     O_R   0.160600 0.919630 0.926660 -0.476937
O6    O     O_R   0.933060 0.190520 0.936020 -0.470730
O7    O     O_R   0.908880 0.403460 0.925020 -0.521329
O8    O     O_R   0.179600 0.361450 0.918490 -0.522863
O9    O     O_R   0.391510 0.170860 0.907530 -0.456672
O10   O     O_R   0.351130 0.942530 0.922260 -0.520382
O11   O     O_3   0.166667 0.166667 0.999870 -0.322229
O12   O     O_R   0.300070 0.471040 0.567100 -0.504393
O13   O     O_R   0.264580 0.744340 0.416750 -0.488580
O14   O     O_R   0.309380 0.472470 0.418200 -0.427719
O15   O     O_R   0.501710 0.260430 0.414300 -0.545004
O16   O     O_R   0.728090 0.305600 0.428960 -0.516010
O17   O     O_R   0.738760 0.495930 0.588610 -0.525020
O18   O     O_R   0.467110 0.722640 0.578360 -0.505690
O19   O     O_R   0.254530 0.742800 0.577360 -0.543919
O20   O     O_R   0.491670 0.258900 0.574910 -0.541635
O21   O     O_R   0.718780 0.304180 0.577850 -0.516166
O22   O     O_3   0.500010 0.500010 0.500020 -0.231942
O23   O     O_R   0.186690 0.923650 0.086970 -0.449852
O24   O     O_R   0.957250 0.194250 0.084630 -0.497708
O25   O     O_R   0.934970 0.407490 0.085330 -0.446535
O26   O     O_R   0.203780 0.365190 0.067090 -0.408443

loop_
_geom_bond_atom_site_label_1
_geom_bond_atom_site_label_2
_ccdc_geom_bond_type
C25   C31   A    
Cr6   O2    S    
Cr1   O17   S    
C23   C45   A    
C40   O20   A    
C27   C29   A    
C65   H30   S    
C36   H38   S    
C35   C36   A    
C28   O18   A    
C60   H15   S    
C8    C56   A    
C6    F1    S    
C39   C41   A    
C62   H21   S    
C44   C64   S    
Cr1   O22   S    
C7    H12   S    
C28   C46   S    
C26   C27   A    
C37   C38   A    
C5    C58   S    
Cr5   O25   S    
C18   C24   A    
C43   H4    S    
C36   C37   A    
C61   H19   S    
C58   H9    S    
C21   C59   S    
Cr6   O10   S    
C42   C53   S    
C30   C31   A    
Cr4   O24   S    
C64   H28   S    
Cr6   O3    S    
C38   C52   S    
Cr1   O1    S    
C10   C17   A    
Cr4   O23   S    
Cr6   O11   S    
C52   O17   A    
C31   C40   S    
C18   C19   A    
C41   C42   A    
C14   F3    S    
C39   C62   S    
C53   O5    A    
C4    O15   A    
Cr5   O8    S    
C19   C20   A    
C19   H34   S    
C44   C46   A    
C16   C17   S    
C64   H29   S    
C59   H10   S    
C32   C38   A    
C29   C30   A    
C58   H7    S    
C62   H20   S    
C4    O14   A    
Cr1   O18   S    
C63   C66   S    
C21   C22   A    
Cr2   O14   S    
C65   H31   S    
C10   H23   S    
C59   H11   S    
C54   F9    S    
C29   H36   S    
C51   O8    A    
C27   C51   S    
C56   F10   S    
Cr3   O16   S    
Cr5   O7    S    
C22   H35   S    
C41   H3    S    
C12   C67   A    
C47   O25   A    
C52   O21   A    
Cr5   O26   S    
C67   C68   A    
C37   H2    S    
C7    C8    A    
C1    O4    A    
Cr3   O15   S    
C3    C8    S    
C13   C47   S    
C51   O9    A    
C18   F5    S    
C64   H27   S    
Cr4   O5    S    
C25   C26   A    
C40   O12   A    
C67   H6    S    
C26   F6    S    
C34   H1    S    
C63   H25   S    
C61   H17   S    
C43   C44   A    
C20   C49   S    
C32   F7    S    
C50   O7    A    
C30   H37   S    
C35   C50   S    
C49   O23   A    
C53   O10   A    
C25   C61   S    
C3    C9    A    
C34   C45   A    
C39   C46   A    
C12   C57   A    
Cr4   O6    S    
Cr1   O4    S    
C55   C57   A    
Cr2   O13   S    
C59   H13   S    
C65   H32   S    
C22   C24   A    
C50   O6    A    
C42   C43   A    
Cr3   O20   S    
C11   H33   S    
C2    F2    S    
Cr3   O21   S    
C33   F8    S    
C15   C17   A    
Cr6   O9    S    
C54   C55   A    
Cr2   O19   S    
C23   C48   S    
Cr2   O22   S    
C16   O1    A    
C16   O16   A    
C57   C65   S    
C12   C45   S    
C60   H16   S    
C48   O2    A    
C6    C7    A    
C62   H22   S    
C49   O3    A    
C60   H14   S    
C32   C33   A    
C63   H26   S    
C61   H18   S    
C4    C9    S    
C55   H5    S    
C1    O13   A    
C5    C66   A    
C11   C13   A    
Cr4   O11   S    
C5    C6    A    
C56   C66   A    
C48   O26   A    
C33   C35   A    
C9    C34   A    
C2    C3    A    
C47   O24   A    
C10   C11   A    
C15   F4    S    
C54   C68   A    
C20   C21   A    
C60   C68   S    
C1    C24   S    
Cr5   O11   S    
C2    C23   A    
Cr2   O12   S    
C14   C15   A    
C28   O19   A    
C63   H24   S    
C13   C14   A    
C58   H8    S    
Cr3   O22   S    
