data_mof_unit_35342.cif
_audit_creation_date              2013-03-05T15:58:21-0500
_audit_creation_method            fapswitch 2.2
_symmetry_space_group_name_H-M    P1
_symmetry_Int_Tables_number       1
_space_group_crystal_system       triclinic
_cell_length_a                    15.017109
_cell_length_b                    13.739258
_cell_length_c                    15.86738
_cell_angle_alpha                 89.937525
_cell_angle_beta                  89.205206
_cell_angle_gamma                 90.424178
_cell_volume                      3273.41326152

loop_
_atom_site_label
_atom_site_type_symbol
_atom_site_description
_atom_site_fract_x
_atom_site_fract_y
_atom_site_fract_z
_atom_type_partial_charge
O1    O     O_R   0.370250 0.582280 0.500020 -0.579558
O2    O     O_R   0.370250 0.417720 0.500020 -0.585309
C1    C     C_R   0.328888 0.499608 0.500008 0.792713
O3    O     O_R   0.499990 0.582310 0.379440 -0.568054
O4    O     O_R   0.499990 0.417690 0.379440 -0.582428
C2    C     C_R   0.499766 0.500052 0.340199 0.812379
Cu1   Cu    Cu3+1 0.499990 0.597420 0.500010 0.939388
Cu2   Cu    Cu3+1 0.499990 0.402580 0.500010 0.927796
O5    O     O_R   0.629730 0.582260 0.499990 -0.587366
O6    O     O_R   0.629730 0.417740 0.499990 -0.587488
O7    O     O_R   0.499980 0.582240 0.620570 -0.578883
O8    O     O_R   0.499980 0.417760 0.620570 -0.576526
C3    C     C_R   0.671030 0.500390 0.497323 0.809161
C4    C     C_R   0.499782 0.499946 0.659841 0.828019
C5    C     C_3   0.525191 0.603756 0.047789 0.350796
C6    C     C_3   0.404874 0.467119 0.049630 0.336081
C7    C     C_3   0.404811 0.474771 0.951825 -0.425329
C8    C     C_3   0.525407 0.603878 0.949142 -0.478378
H1    H     H_    0.482083 0.659499 0.920744 0.165263
H2    H     H_    0.356368 0.530140 0.930867 0.183012
H3    H     H_    0.397109 0.387959 0.064978 0.065199
H4    H     H_    0.596702 0.612274 0.064266 0.101640
H5    H     H_    0.382426 0.404028 0.924916 0.132955
H6    H     H_    0.593689 0.622233 0.925499 0.148276
C9    C     C_1   0.499553 0.499857 0.749429 -0.201420
C10   C     C_3   0.497255 0.501174 0.083012 0.178924
C11   C     C_3   0.499032 0.501197 0.917060 0.225888
C12   C     C_3   0.566455 0.426100 0.950968 -0.399978
C13   C     C_3   0.566832 0.427231 0.048720 -0.576644
C14   C     C_1   0.499364 0.500131 0.824954 -0.061683
C15   C     C_1   0.498245 0.500498 0.175170 -0.019426
C16   C     C_1   0.499060 0.500205 0.250658 -0.180807
H7    H     H_    0.634708 0.446626 0.070869 0.189213
H8    H     H_    0.551761 0.352809 0.073104 0.188561
H9    H     H_    0.634559 0.443068 0.926278 0.180366
H10   H     H_    0.548458 0.351831 0.928642 0.180249
C17   C     C_R   0.813460 0.455111 0.424264 0.105466
C18   C     C_R   0.767570 0.501583 0.491009 -0.075345
C19   C     C_R   0.812684 0.551148 0.553617 -0.247300
C20   C     C_R   0.905378 0.553541 0.554958 0.053785
C21   C     C_R   0.953184 0.498623 0.493884 -0.088271
C22   C     C_R   0.907944 0.447225 0.428395 0.041048
C23   C     C_R   0.950862 0.609108 0.616655 0.087150
C24   C     C_R   0.044445 0.606523 0.619106 0.412729
C25   C     C_R   0.092110 0.552881 0.558362 -0.009966
C26   C     C_R   0.046684 0.497486 0.497085 0.000865
C27   C     C_R   0.095564 0.442153 0.438097 0.098192
C28   C     C_R   0.052066 0.389622 0.376048 -0.334036
C29   C     C_R   0.958898 0.390185 0.370120 0.443460
C30   C     C_R   0.185271 0.554377 0.557457 -0.224349
C31   C     C_R   0.232639 0.498431 0.499400 -0.074026
C32   C     C_R   0.188304 0.441334 0.440706 -0.218899
H11   H     H_    0.773563 0.587471 0.601838 0.158031
H12   H     H_    0.221569 0.597386 0.602824 0.163150
H13   H     H_    0.226334 0.398601 0.395572 0.133351
H14   H     H_    0.091708 0.350173 0.330297 0.140067
C33   C     C_R   0.434846 0.795890 0.541880 0.333670
C34   C     C_R   0.433411 0.203153 0.540213 0.329192
N1    N     N_R   0.499930 0.743810 0.499960 -0.191152
N2    N     N_R   0.499930 0.256190 0.499960 -0.190659
C35   C     C_R   0.564992 0.793118 0.455667 0.022037
C36   C     C_R   0.566221 0.207709 0.457642 0.009978
C37   C     C_R   0.567067 0.896580 0.452958 -0.129976
C38   C     C_R   0.568139 0.104313 0.455259 -0.121370
C39   C     C_R   0.494025 0.948194 0.486413 -0.060473
C40   C     C_R   0.493997 0.051581 0.486408 -0.060267
C41   C     C_R   0.422129 0.896272 0.522834 -0.006935
C42   C     C_R   0.421434 0.102280 0.521562 -0.007737
C43   C     C_R   0.639647 0.949215 0.417441 0.350871
C44   C     C_R   0.642323 0.052741 0.423401 0.336630
C45   C     C_R   0.340380 0.050189 0.536886 0.164181
C46   C     C_R   0.340865 0.946484 0.538286 0.146087
H15   H     H_    0.617409 0.751840 0.425385 0.173615
H16   H     H_    0.619369 0.249523 0.428073 0.172418
O9    O     O_3   0.090006 0.660938 0.678265 -0.614893
C47   C     C_3   0.102839 0.602781 0.750551 0.025502
H17   H     H_    0.137963 0.533953 0.734148 0.134242
H18   H     H_    0.037610 0.584462 0.781152 0.154908
C48   C     C_3   0.159754 0.659390 0.813083 -0.315709
H19   H     H_    0.226196 0.674956 0.784083 0.214074
H20   H     H_    0.127268 0.729829 0.828164 0.226284
C49   C     C_3   0.171900 0.602086 0.894491 -0.954246
H21   H     H_    0.106482 0.589541 0.926354 0.257744
H22   H     H_    0.215406 0.643794 0.937704 0.261511
H23   H     H_    0.203242 0.530747 0.880842 0.251514
O10   O     O_3   0.917940 0.342720 0.303483 -0.622135
C50   C     C_3   0.946760 0.245410 0.294495 0.031109
H24   H     H_    0.953836 0.208770 0.356770 0.140517
H25   H     H_    0.011260 0.243614 0.259388 0.156031
C51   C     C_3   0.878340 0.189269 0.242841 -0.311928
H26   H     H_    0.813241 0.188491 0.276815 0.248419
H27   H     H_    0.869404 0.226449 0.181303 0.221484
C52   C     C_3   0.907641 0.084743 0.226732 -0.935341
H28   H     H_    0.971495 0.083970 0.190564 0.255308
H29   H     H_    0.856227 0.046215 0.189489 0.249908
H30   H     H_    0.916230 0.045477 0.287221 0.253613
C53   C     C_3   0.395574 0.756107 0.623291 -0.804280
H31   H     H_    0.450287 0.737413 0.666349 0.235017
H32   H     H_    0.356612 0.811127 0.658729 0.202733
H33   H     H_    0.352023 0.692503 0.613101 0.241040
C54   C     C_3   0.390500 0.243025 0.619741 -0.801945
H34   H     H_    0.442994 0.265677 0.663994 0.236388
H35   H     H_    0.344484 0.303390 0.607272 0.244719
H36   H     H_    0.352725 0.186547 0.655428 0.200246
O11   O     O_3   0.712578 0.899006 0.385970 -0.622070
C55   C     C_3   0.719028 0.910329 0.297356 0.065931
H37   H     H_    0.790130 0.901228 0.279057 0.171643
H38   H     H_    0.699579 0.984019 0.274919 0.164472
C56   C     C_3   0.664155 0.831894 0.252601 -0.370708
H39   H     H_    0.685859 0.758684 0.273569 0.228155
H40   H     H_    0.592487 0.840307 0.269165 0.222236
C57   C     C_3   0.675559 0.839384 0.157101 -0.905613
H41   H     H_    0.651947 0.911129 0.134488 0.250478
H42   H     H_    0.635918 0.781326 0.126414 0.285107
H43   H     H_    0.746633 0.830306 0.138640 0.248144
O12   O     O_3   0.718155 0.103565 0.398521 -0.645612
C58   C     C_3   0.785563 0.093235 0.459589 0.089679
H44   H     H_    0.846479 0.066644 0.426845 0.170217
H45   H     H_    0.769697 0.039855 0.510994 0.142439
C59   C     C_3   0.805605 0.192338 0.499111 -0.378298
H46   H     H_    0.820469 0.245819 0.448558 0.239442
H47   H     H_    0.746341 0.217597 0.535379 0.225316
C60   C     C_3   0.885265 0.187990 0.557555 -0.922428
H48   H     H_    0.871761 0.136103 0.609996 0.258521
H49   H     H_    0.897874 0.261335 0.584454 0.261709
H50   H     H_    0.945775 0.164852 0.522075 0.250197
C61   C     C_3   0.252054 0.103359 0.541796 -0.879833
H51   H     H_    0.206571 0.076338 0.492482 0.232534
H52   H     H_    0.220443 0.092379 0.604780 0.236355
H53   H     H_    0.258586 0.182340 0.528990 0.239537
C62   C     C_3   0.253153 0.891025 0.546412 -0.836715
H54   H     H_    0.206312 0.914875 0.497287 0.233005
H55   H     H_    0.260106 0.811763 0.535963 0.244659
H56   H     H_    0.222795 0.903474 0.609641 0.239954
O13   O     O_3   0.484049 0.683403 0.090702 -0.615385
C63   C     C_3   0.403396 0.717878 0.057059 0.158527
H57   H     H_    0.353780 0.721570 0.109530 0.178945
H58   H     H_    0.373426 0.670681 0.008612 0.165319
C64   C     C_3   0.417687 0.820751 0.022203 -0.402362
H59   H     H_    0.437507 0.870122 0.074261 0.231452
H60   H     H_    0.472316 0.820777 0.974280 0.220572
C65   C     C_3   0.333199 0.859231 0.981929 -0.937921
H61   H     H_    0.313906 0.812517 0.927947 0.255790
H62   H     H_    0.345274 0.934379 0.958400 0.260892
H63   H     H_    0.277705 0.860680 0.028927 0.259467
O14   O     O_3   0.334897 0.524067 0.084570 -0.629168
C66   C     C_3   0.277199 0.469371 0.137986 0.054635
H64   H     H_    0.243556 0.521361 0.181286 0.172860
H65   H     H_    0.313705 0.417531 0.178852 0.124202
C67   C     C_3   0.206021 0.416748 0.086386 -0.363645
H66   H     H_    0.171166 0.470401 0.046387 0.235195
H67   H     H_    0.237854 0.361998 0.044480 0.203669
C68   C     C_3   0.137782 0.365560 0.143455 -0.925430
H68   H     H_    0.171102 0.311722 0.184448 0.244119
H69   H     H_    0.088130 0.326716 0.104374 0.259227
H70   H     H_    0.102255 0.419591 0.183343 0.268435
C69   C     C_3   0.761572 0.422082 0.347598 -0.769133
H71   H     H_    0.758248 0.341622 0.344380 0.244522
H72   H     H_    0.692212 0.448753 0.347066 0.191887
H73   H     H_    0.792747 0.452616 0.289402 0.253743
C70   C     C_3   0.900376 0.672969 0.678557 -0.853527
H74   H     H_    0.858005 0.724790 0.643702 0.235686
H75   H     H_    0.858058 0.626978 0.720752 0.210875
H76   H     H_    0.944561 0.717362 0.718911 0.264448

loop_
_geom_bond_atom_site_label_1
_geom_bond_atom_site_label_2
_geom_bond_distance
_ccdc_geom_bond_type
C5    C8    1.565232 S    
C40   C42   1.406762 A    
C50   H24   1.115243 S    
C37   C39   1.408546 A    
C52   H28   1.110791 S    
C21   C22   1.433210 A    
C2    C16   1.420980 S    
C66   H64   1.111001 S    
C47   C48   1.528163 S    
O9    C47   1.413371 S    
C62   H56   1.110173 S    
C70   H76   1.108571 S    
C57   H42   1.108879 S    
C53   H31   1.107321 S    
C60   H48   1.110684 S    
C62   H55   1.107198 S    
C25   C26   1.415036 A    
C59   H46   1.106575 S    
Cu1   O7    1.924079 S    
C19   H11   1.082738 S    
C7    H5    1.113574 S    
C46   C62   1.520655 S    
C8    H6    1.114032 S    
C6    O14   1.421553 S    
C12   C13   1.551254 S    
C66   H65   1.114873 S    
C47   H18   1.114226 S    
C41   C46   1.424712 A    
C58   H45   1.118337 S    
O4    C2    1.291039 A    
O7    C4    1.290375 A    
C33   N1    1.379511 A    
C5    O13   1.429265 S    
C55   H37   1.110637 S    
C34   N2    1.381053 A    
C13   H7    1.113378 S    
C7    H2    1.110357 S    
O12   C58   1.418738 S    
N2    C36   1.370335 A    
C8    H1    1.106810 S    
C17   C69   1.521590 S    
C17   C22   1.426218 A    
C35   C37   1.422188 A    
O5    C3    1.288948 A    
C36   C38   1.421631 A    
C70   H75   1.110285 S    
C5    H4    1.114121 S    
C37   C43   1.413833 A    
C12   H9    1.113082 S    
C6    C7    1.555364 S    
C39   C41   1.406755 A    
C67   C68   1.525427 S    
C21   C26   1.405924 A    
C38   C44   1.412617 A    
C68   H69   1.110395 S    
C59   C60   1.525217 S    
C10   C15   1.462603 S    
C69   H72   1.106861 S    
C11   C14   1.461499 S    
C69   H71   1.107484 S    
C65   H63   1.110873 S    
C45   C61   1.520096 S    
C33   C41   1.426381 A    
O3    Cu1   1.924584 S    
Cu1   N1    2.011296 S    
C57   H41   1.110890 S    
C53   H32   1.108287 S    
C59   H47   1.111068 S    
C70   H74   1.110528 S    
C20   C23   1.421356 A    
C6    C10   1.560573 S    
N1    C35   1.370263 A    
C31   C32   1.391801 A    
C7    C11   1.551915 S    
C54   H34   1.106138 S    
O13   C63   1.414982 S    
C66   C67   1.532879 S    
C47   H17   1.115494 S    
C63   H58   1.104687 S    
Cu1   Cu2   2.676956 S    
C56   C57   1.525902 S    
C19   C20   1.392600 A    
C48   H20   1.111814 S    
C43   O11   1.386176 S    
O10   C50   1.415060 S    
C5    C10   1.567741 S    
C44   O12   1.383987 S    
C13   H8    1.113424 S    
O1    C1    1.290552 A    
C63   C64   1.529757 S    
C24   O9    1.385643 S    
C23   C24   1.407123 A    
C61   H52   1.110107 S    
C17   C18   1.411354 A    
C48   C49   1.525827 S    
C51   H27   1.111740 S    
C27   C28   1.389024 A    
Cu2   O8    1.924531 S    
C33   C53   1.512548 S    
C30   C31   1.391729 A    
C34   C54   1.513908 S    
C30   H12   1.082374 S    
C68   H70   1.110769 S    
C3    C18   1.451797 S    
C23   C70   1.516723 S    
Cu2   O6    1.957885 S    
C20   C21   1.419209 A    
O8    C4    1.290298 A    
C52   H30   1.110055 S    
C39   C40   1.420461 A    
C54   H36   1.108227 S    
C49   H22   1.110451 S    
C50   H25   1.111097 S    
C67   H67   1.110899 S    
C58   C59   1.529327 S    
O3    C2    1.290928 A    
C62   H54   1.108093 S    
C53   H33   1.101042 S    
C24   C25   1.405264 A    
C51   C52   1.525903 S    
O14   C66   1.415080 S    
C54   H35   1.102927 S    
C34   C42   1.428062 A    
C9    C14   1.198372 T    
C28   H14   1.081109 S    
C26   C27   1.408398 A    
C28   C29   1.403648 A    
C1    C31   1.445511 S    
O1    Cu1   1.957857 S    
C29   O10   1.391116 S    
C15   C16   1.198025 T    
O2    Cu2   1.960919 S    
C8    C11   1.550865 S    
C63   H57   1.111012 S    
C60   H50   1.110951 S    
O6    C3    1.290222 A    
O4    Cu2   1.924134 S    
C64   H59   1.111790 S    
C32   H13   1.085477 S    
C6    H3    1.119171 S    
C27   C32   1.394005 A    
C69   H73   1.110004 S    
C49   H23   1.110666 S    
O11   C55   1.416382 S    
C35   H15   1.081117 S    
C56   H40   1.111214 S    
O2    C1    1.289182 A    
C61   H53   1.107173 S    
C45   C46   1.425054 A    
C58   H44   1.110136 S    
Cu2   N2    2.011285 S    
C64   H60   1.110821 S    
C51   H26   1.109797 S    
C18   C19   1.386698 A    
C55   H38   1.115154 S    
C25   C30   1.398880 A    
C42   C45   1.425283 A    
C64   C65   1.526224 S    
C65   H62   1.110315 S    
C4    C9    1.421468 S    
C43   C44   1.425930 A    
C60   H49   1.110785 S    
C22   C29   1.430216 A    
C48   H19   1.112160 S    
Cu1   O5    1.960952 S    
C12   H10   1.113154 S    
C10   C13   1.555956 S    
C52   H29   1.110343 S    
C49   H21   1.110819 S    
C50   C51   1.528202 S    
C11   C12   1.551961 S    
C65   H61   1.111243 S    
C67   H66   1.110896 S    
C36   H16   1.081391 S    
C68   H68   1.110888 S    
C56   H39   1.111657 S    
C57   H43   1.110825 S    
C61   H51   1.108294 S    
C38   C40   1.407427 A    
C55   C56   1.532776 S    
