data_mof_unit_65566.cif
_audit_creation_date              2012-12-10T16:57:09-0500
_audit_creation_method            fapswitch 2.2
_symmetry_space_group_name_H-M    P1
_symmetry_Int_Tables_number       1
_space_group_crystal_system       triclinic
_cell_length_a                    20.937378
_cell_length_b                    15.953125
_cell_length_c                    13.138312
_cell_angle_alpha                 89.995047
_cell_angle_beta                  91.409292
_cell_angle_gamma                 89.992869
_cell_volume                      4387.08693035

loop_
_atom_site_label
_atom_site_type_symbol
_atom_type_description
_atom_site_fract_x
_atom_site_fract_y
_atom_site_fract_z
_atom_type_partial_charge
C1    C     C_R   0.620709 0.839687 0.470113 0.510926
C2    C     C_2   0.993980 0.511060 0.946266 -0.126680
C3    C     C_R   0.379757 0.160116 0.530342 0.508986
C4    C     C_R   0.379756 0.839890 0.530343 0.506976
C5    C     C_R   0.879754 0.660115 0.530339 0.509555
C6    C     C_R   0.879754 0.339892 0.530339 0.507403
C7    C     C_R   0.530475 0.998489 0.772103 0.507605
C8    C     C_R   0.030448 0.500673 0.772192 0.509732
C9    C     C_R   0.468836 0.000190 0.228436 0.509822
C10   C     C_R   0.969050 0.499854 0.228319 0.508401
C11   C     C_2   0.331531 0.775277 0.540609 -0.080644
C12   C     C_R   0.620716 0.160301 0.470073 0.517567
C13   C     C_2   0.331531 0.224739 0.540595 -0.082695
C14   C     C_2   0.831530 0.275277 0.540600 -0.080580
C15   C     C_2   0.831525 0.724741 0.540592 -0.082437
C16   C     C_2   0.272006 0.788777 0.506162 -0.147424
C17   C     C_2   0.271966 0.211158 0.506411 -0.150545
C18   C     C_2   0.771996 0.288793 0.506204 -0.147868
C19   C     C_2   0.771914 0.711080 0.506672 -0.150741
C20   C     C_2   0.668068 0.227460 0.462133 -0.103334
C21   C     C_2   0.668040 0.772477 0.462327 -0.107515
C22   C     C_2   0.168074 0.727449 0.462111 -0.103778
C23   C     C_R   0.120714 0.339697 0.470090 0.511676
C24   C     C_2   0.168062 0.272519 0.462214 -0.107026
C25   C     C_2   0.724735 0.221309 0.510712 -0.149510
C26   C     C_2   0.724654 0.778579 0.511076 -0.155022
C27   C     C_2   0.224739 0.721303 0.510699 -0.149566
C28   C     C_2   0.224701 0.278646 0.510873 -0.154592
C29   C     C_2   0.457307 0.001639 0.119115 -0.100376
C30   C     C_2   0.957477 0.498601 0.118902 -0.107367
C31   C     C_3   0.625450 0.897591 0.907139 -0.013364
C32   C     C_3   0.692084 0.887171 0.954099 -0.361810
C33   C     C_3   0.132137 0.433712 0.929874 -0.011473
C34   C     C_R   0.120717 0.660299 0.470070 0.516313
C35   C     C_3   0.199657 0.441175 0.974264 -0.361484
C36   C     C_2   0.504194 0.981655 0.056922 -0.131643
C37   C     C_2   0.003528 0.521578 0.056510 -0.137053
C38   C     C_2   0.543312 0.989183 0.882236 0.267460
C39   C     C_2   0.043162 0.506632 0.882710 0.264103
C40   C     C_2   0.494551 0.991603 0.946631 -0.124950
H1    H     H_    0.736934 0.165198 0.554050 0.162210
H2    H     H_    0.656163 0.717106 0.417523 0.108190
H3    H     H_    0.156173 0.782820 0.417302 0.109293
H4    H     H_    0.156175 0.217148 0.417415 0.108392
H5    H     H_    0.346052 0.714198 0.569601 0.091579
H6    H     H_    0.346079 0.285892 0.569285 0.091834
H7    H     H_    0.846061 0.214180 0.569519 0.092653
H8    H     H_    0.846105 0.785966 0.569003 0.092683
H9    H     H_    0.446036 0.001508 0.917598 0.121353
H10   H     H_    0.945223 0.504241 0.916950 0.122705
H11   H     H_    0.550179 0.961105 0.088168 0.168998
H12   H     H_    0.736832 0.834685 0.554421 0.159355
H13   H     H_    0.049135 0.543813 0.087405 0.176640
H14   H     H_    0.412623 0.027707 0.089538 0.095559
H15   H     H_    0.913721 0.470037 0.089237 0.097449
H16   H     H_    0.627315 0.880326 0.825163 0.148601
H17   H     H_    0.592765 0.853715 0.946517 0.117417
H18   H     H_    0.691666 0.902818 0.036461 0.159197
H19   H     H_    0.708182 0.821302 0.945237 0.099189
H20   H     H_    0.726144 0.929264 0.915563 0.168829
H21   H     H_    0.134629 0.401850 0.854632 0.144253
H22   H     H_    0.103750 0.394468 0.982494 0.125222
H23   H     H_    0.236930 0.665205 0.554068 0.161904
H24   H     H_    0.198701 0.471776 0.050155 0.159446
H25   H     H_    0.221159 0.377855 0.982883 0.098245
H26   H     H_    0.229539 0.479110 0.922904 0.167810
H27   H     H_    0.236883 0.334749 0.554221 0.159121
H28   H     H_    0.258908 0.848786 0.472240 0.130973
H29   H     H_    0.258839 0.151085 0.472712 0.130909
H30   H     H_    0.758887 0.348819 0.472338 0.130679
H31   H     H_    0.758751 0.650945 0.473178 0.130949
H32   H     H_    0.656159 0.282842 0.417349 0.109198
O1    O     O_3   0.500000 0.000000 0.500000 -0.440253
O2    O     O_R   0.880760 0.402800 0.590320 -0.532854
O3    O     O_R   0.577210 0.000000 0.711160 -0.523148
O4    O     O_R   0.077210 0.500000 0.711160 -0.521477
O5    O     O_R   0.475030 0.069050 0.275760 -0.530188
O6    O     O_R   0.475030 0.930950 0.275760 -0.534006
O7    O     O_R   0.975030 0.569050 0.275760 -0.530295
O8    O     O_R   0.975030 0.430950 0.275760 -0.534617
O9    O     O_R   0.632300 0.097230 0.527310 -0.538136
O10   O     O_R   0.632300 0.902770 0.527310 -0.546101
O11   O     O_R   0.132300 0.597230 0.527310 -0.538188
O12   O     O_3   0.000000 0.500000 0.500000 -0.440322
O13   O     O_R   0.132300 0.402770 0.527310 -0.545495
O14   O     O_R   0.419940 0.833680 0.459580 -0.535589
O15   O     O_R   0.419940 0.166320 0.459580 -0.535672
O16   O     O_R   0.919940 0.333680 0.459580 -0.535402
O17   O     O_R   0.919940 0.666320 0.459580 -0.534324
O18   O     O_R   0.472710 0.000000 0.737340 -0.571141
O19   O     O_R   0.972710 0.500000 0.737340 -0.570424
O20   O     O_3   0.605681 0.981583 0.919032 -0.551823
O21   O     O_3   0.105465 0.514609 0.919464 -0.554142
O22   O     O_R   0.566980 0.833700 0.422750 -0.538284
O23   O     O_R   0.566980 0.166300 0.422750 -0.535259
O24   O     O_R   0.066980 0.333700 0.422750 -0.537595
O25   O     O_R   0.066980 0.666300 0.422750 -0.536747
O26   O     O_R   0.380760 0.097200 0.590320 -0.531298
O27   O     O_R   0.380760 0.902800 0.590320 -0.532806
O28   O     O_R   0.880760 0.597200 0.590320 -0.531750
Zn1   Zn    Zn3+2 0.434690 0.000000 0.602700 0.931735
Zn2   Zn    Zn3+2 0.934690 0.500000 0.602700 0.933373
Zn3   Zn    Zn3+2 0.584000 0.000000 0.565300 0.938214
Zn4   Zn    Zn3+2 0.084000 0.500000 0.565300 0.939972
Zn5   Zn    Zn3+2 0.490640 0.098690 0.416020 0.948589
Zn6   Zn    Zn3+2 0.490640 0.901310 0.416020 0.939780
Zn7   Zn    Zn3+2 0.990640 0.598690 0.416020 0.947174
Zn8   Zn    Zn3+2 0.990640 0.401310 0.416020 0.940617

loop_
_geom_bond_atom_site_label_1
_geom_bond_atom_site_label_2
_ccdc_geom_bond_type
O4    Zn4   S    
C21   C26   D    
C17   H29   S    
O12   Zn2   S    
C14   C18   D    
C19   H31   S    
C3    O26   A    
C32   H18   S    
C34   O25   A    
C1    C21   S    
C29   C36   D    
C13   H6    S    
O16   Zn8   S    
C4    O14   A    
C20   C25   D    
C35   H25   S    
C40   H9    S    
C38   O20   S    
C8    O4    A    
O12   Zn7   S    
C6    O16   A    
C23   O24   A    
C19   C26   S    
C39   O21   S    
O23   Zn5   S    
O12   Zn8   S    
C2    C39   D    
C22   H3    S    
C1    O22   A    
O10   Zn3   S    
C12   O23   A    
C35   H24   S    
C16   H28   S    
C8    C39   S    
C31   H16   S    
C2    H10   S    
C3    C13   S    
C9    C29   S    
O2    Zn2   S    
C37   H13   S    
C16   C27   S    
O1    Zn1   S    
O24   Zn8   S    
O3    Zn3   S    
O17   Zn7   S    
O14   Zn6   S    
C18   C25   S    
C15   H8    S    
C6    O2    A    
C22   C34   S    
O11   Zn4   S    
C3    O15   A    
C36   C40   S    
C28   H27   S    
C25   H1    S    
C10   O8    A    
C33   H22   S    
C7    O3    A    
C35   H26   S    
C1    O10   A    
C7    O18   A    
C30   C37   D    
C15   C19   D    
O18   Zn1   S    
C26   H12   S    
C6    C14   S    
C11   C16   D    
C10   C30   S    
O1    Zn5   S    
C31   C32   S    
O15   Zn5   S    
C5    O28   A    
C23   C24   S    
C12   C20   S    
O28   Zn2   S    
O7    Zn7   S    
C8    O19   A    
C9    O5    A    
C4    C11   S    
C36   H11   S    
O13   Zn4   S    
C27   H23   S    
O27   Zn1   S    
C22   C27   D    
C23   O13   A    
O12   Zn4   S    
C11   H5    S    
C34   O11   A    
C32   H20   S    
O19   Zn2   S    
O9    Zn3   S    
O22   Zn6   S    
C17   C28   S    
C24   C28   D    
C33   O21   S    
C10   O7    A    
C14   H7    S    
O26   Zn1   S    
C30   H15   S    
O8    Zn8   S    
C18   H30   S    
C13   C17   D    
O6    Zn6   S    
C31   H17   S    
O5    Zn5   S    
C38   C40   D    
C2    C37   S    
O1    Zn6   S    
C24   H4    S    
C33   C35   S    
C7    C38   S    
C12   O9    A    
C9    O6    A    
C5    C15   S    
C21   H2    S    
O25   Zn7   S    
O1    Zn3   S    
C33   H21   S    
C31   O20   S    
C29   H14   S    
C4    O27   A    
C20   H32   S    
C32   H19   S    
C5    O17   A    
