data_mof_unit_56556.cif
_audit_creation_date              2012-12-10T17:10:22-0500
_audit_creation_method            fapswitch 2.2
_symmetry_space_group_name_H-M    P1
_symmetry_Int_Tables_number       1
_space_group_crystal_system       triclinic
_cell_length_a                    15.714232
_cell_length_b                    10.642156
_cell_length_c                    10.030177
_cell_angle_alpha                 88.727965
_cell_angle_beta                  88.511433
_cell_angle_gamma                 90.667565
_cell_volume                      1676.27491275

loop_
_atom_site_label
_atom_site_type_symbol
_atom_type_description
_atom_site_fract_x
_atom_site_fract_y
_atom_site_fract_z
_atom_type_partial_charge
C1    C     C_R   0.501493 0.262066 0.501256 0.828684
C2    C     C_2   0.470143 0.865825 0.496542 -0.367662
C3    C     C_2   0.461719 0.071053 0.406337 -0.395639
C4    C     C_R   0.338090 0.500399 0.501450 0.872524
C5    C     C_2   0.506010 0.128252 0.500859 0.294950
C6    C     C_2   0.548668 0.573429 0.921694 -0.105431
C7    C     C_2   0.558752 0.558269 0.072766 0.546722
C8    C     C_R   0.494344 0.737265 0.498622 0.948329
C9    C     C_R   0.661947 0.500223 0.498490 0.907444
C10   C     C_3   0.969590 0.416927 0.585334 0.231509
C11   C     C_3   0.028686 0.391152 0.465218 0.170484
C12   C     C_3   0.083713 0.504802 0.503761 -0.031763
C13   C     C_1   0.249444 0.502757 0.504418 -0.188578
C14   C     C_1   0.750700 0.501383 0.495223 -0.166626
C15   C     C_3   0.025029 0.529917 0.626860 -0.277244
C16   C     C_3   0.005148 0.174871 0.392080 -0.781999
C17   C     C_3   0.557715 0.070110 0.708139 0.069677
C18   C     C_3   0.631742 0.139779 0.771270 -0.301873
C19   C     C_3   0.623267 0.135735 0.923312 -0.924363
C20   C     C_3   0.393986 0.355957 0.877223 0.182059
C21   C     C_3   0.323379 0.449184 0.914701 -0.394593
C22   C     C_3   0.236561 0.402362 0.870146 -0.952626
C23   C     C_3   0.972347 0.616438 0.535463 0.119606
C24   C     C_3   0.662307 0.716894 0.087390 0.100710
C25   C     C_3   0.742004 0.703070 0.997674 -0.376634
C26   C     C_3   0.768505 0.828198 0.930886 -0.974264
C27   C     C_3   0.991905 0.256262 0.758682 -0.789363
C28   C     C_3   0.011860 0.439383 0.140322 -0.781743
C29   C     C_3   0.013135 0.760677 0.266076 0.077228
C30   C     C_3   0.058822 0.839836 0.156494 -0.336067
C31   C     C_3   0.996945 0.923854 0.082166 -0.986887
C32   C     C_3   0.998979 0.823732 0.626378 -0.806125
C33   C     C_3   0.456500 0.946516 0.152964 0.064937
C34   C     C_3   0.916608 0.503725 0.496106 -0.097094
C35   C     C_3   0.362583 0.905481 0.148496 -0.362733
C36   C     C_3   0.320578 0.958035 0.024008 -0.982143
C37   C     C_3   0.031406 0.593233 0.413998 0.456259
C38   C     C_3   0.977064 0.478860 0.375554 0.070796
C39   C     C_1   0.174307 0.504338 0.505295 0.015841
C40   C     C_1   0.825893 0.502556 0.494438 -0.030091
C41   C     C_2   0.471561 0.937477 0.385214 0.573423
H1    H     H_    0.584494 0.646352 0.867329 0.102385
H2    H     H_    0.557114 0.971405 0.746825 0.147978
H3    H     H_    0.495727 0.110997 0.741158 0.122689
H4    H     H_    0.692749 0.095557 0.740736 0.218195
H5    H     H_    0.633675 0.239315 0.735611 0.253302
H6    H     H_    0.562568 0.178828 0.956612 0.289569
H7    H     H_    0.676938 0.188867 0.965999 0.275716
H8    H     H_    0.624858 0.037119 0.961672 0.244875
H9    H     H_    0.378780 0.265609 0.930481 0.105722
H10   H     H_    0.392364 0.333485 0.771172 0.191387
H11   H     H_    0.318829 0.459476 0.024320 0.204550
H12   H     H_    0.441728 0.492249 0.109331 0.154038
H13   H     H_    0.337093 0.542977 0.867758 0.237194
H14   H     H_    0.237652 0.386247 0.761288 0.272984
H15   H     H_    0.187384 0.473355 0.893232 0.263649
H16   H     H_    0.218776 0.312956 0.923617 0.257555
H17   H     H_    0.680497 0.771198 0.175828 0.188310
H18   H     H_    0.612836 0.774257 0.037797 0.104094
H19   H     H_    0.795118 0.667811 0.058766 0.221974
H20   H     H_    0.730133 0.633491 0.919173 0.232619
H21   H     H_    0.717812 0.861784 0.864163 0.269595
H22   H     H_    0.827687 0.815763 0.869945 0.268029
H23   H     H_    0.046703 0.550388 0.728676 0.162367
H24   H     H_    0.780595 0.899855 0.007235 0.273529
H25   H     H_    0.885827 0.269036 0.638192 0.224936
H26   H     H_    0.956489 0.196673 0.834106 0.238071
H27   H     H_    0.033623 0.322219 0.812074 0.246257
H28   H     H_    0.031662 0.194741 0.695137 0.257621
H29   H     H_    0.895959 0.503619 0.215717 0.227390
H30   H     H_    0.982416 0.404325 0.048647 0.240113
H31   H     H_    0.061426 0.372045 0.170693 0.250767
H32   H     H_    0.042080 0.532229 0.116817 0.251904
H33   H     H_    0.984377 0.825267 0.339569 0.177489
H34   H     H_    0.449186 0.903844 0.591497 0.101234
H35   H     H_    0.961565 0.705176 0.220347 0.139159
H36   H     H_    0.108455 0.899578 0.201613 0.227170
H37   H     H_    0.090591 0.776778 0.084156 0.224413
H38   H     H_    0.948780 0.865503 0.032128 0.274267
H39   H     H_    0.032394 0.981547 0.005065 0.268108
H40   H     H_    0.964181 0.987800 0.152345 0.270849
H41   H     H_    0.883513 0.727001 0.633943 0.241780
H42   H     H_    0.968951 0.916997 0.637384 0.240376
H43   H     H_    0.055119 0.834851 0.557348 0.267128
H44   H     H_    0.020170 0.790363 0.725753 0.240255
H45   H     H_    0.417171 0.122942 0.345542 0.120320
H46   H     H_    0.489075 0.913743 0.060747 0.146863
H47   H     H_    0.464367 0.050440 0.149625 0.149158
H48   H     H_    0.358397 0.801103 0.148627 0.232509
H49   H     H_    0.327173 0.938950 0.237949 0.208097
H50   H     H_    0.321690 0.062363 0.024172 0.258727
H51   H     H_    0.253269 0.925188 0.022718 0.269843
H52   H     H_    0.354200 0.925292 0.932589 0.257564
H53   H     H_    0.117733 0.278637 0.368608 0.223201
H54   H     H_    0.039277 0.085110 0.378324 0.233972
H55   H     H_    0.975470 0.201878 0.296635 0.263986
H56   H     H_    0.954837 0.158784 0.470155 0.247032
N1    N     N_2   0.500900 0.501330 0.852150 0.063122
N2    N     N_2   0.500930 0.501360 0.147810 -0.192652
N3    N     N_2   0.064806 0.270863 0.431229 -0.301407
N4    N     N_2   0.932161 0.324815 0.678467 -0.289244
N5    N     N_2   0.946914 0.450115 0.244184 -0.292978
N6    N     N_2   0.937812 0.736126 0.574446 -0.311284
O1    O     O_R   0.499990 0.319060 0.613040 -0.642322
O2    O     O_3   0.476274 0.393190 0.916492 -0.607432
O3    O     O_3   0.632838 0.597177 0.133814 -0.613145
O4    O     O_3   0.073094 0.682418 0.327892 -0.643491
O5    O     O_3   0.497408 0.889265 0.262338 -0.625687
O6    O     O_R   0.500010 0.319100 0.386900 -0.613847
O7    O     O_R   0.376760 0.499970 0.613050 -0.639264
O8    O     O_R   0.376790 0.500010 0.386910 -0.627202
O9    O     O_R   0.499990 0.680900 0.613100 -0.646200
O10   O     O_R   0.500010 0.680940 0.386960 -0.553837
O11   O     O_R   0.623210 0.499990 0.613090 -0.621255
O12   O     O_R   0.623240 0.500030 0.386950 -0.548185
O13   O     O_3   0.570858 0.067158 0.567790 -0.638877
Zn1   Zn    Zn3+2 0.499980 0.499970 0.650990 0.945751
Zn2   Zn    Zn3+2 0.500020 0.500030 0.349010 0.996931

loop_
_geom_bond_atom_site_label_1
_geom_bond_atom_site_label_2
_ccdc_geom_bond_type
C41   O5    S    
C35   C36   S    
C9    C14   S    
C22   H16   S    
C31   H39   S    
C29   H35   S    
H12   N2    S    
C29   C30   S    
N1    O2    S    
C7    N2    D    
O8    Zn2   S    
C1    C5    S    
C9    O11   A    
C6    N1    D    
C33   H47   S    
C37   O4    S    
C20   H10   S    
C10   C15   S    
C8    O9    A    
C30   C31   S    
C19   H6    S    
C16   H56   S    
C2    C41   D    
C4    C13   S    
C18   C19   S    
C12   C37   S    
C20   H9    S    
C27   H27   S    
C1    O6    A    
C30   H36   S    
C36   H52   S    
C23   N6    S    
C16   H54   S    
C15   H23   S    
C25   H19   S    
C27   H28   S    
C36   H51   S    
C15   C23   S    
C21   C22   S    
C3    H45   S    
H25   N4    S    
C28   H31   S    
C33   O5    S    
C28   H32   S    
C18   H5    S    
O7    Zn1   S    
O6    Zn2   S    
C32   H43   S    
C32   N6    S    
C16   H55   S    
C9    O12   A    
C24   C25   S    
C19   H7    S    
C16   N3    S    
C22   H15   S    
C29   H33   S    
C25   C26   S    
C23   C37   S    
C27   N4    S    
C11   N3    S    
C11   C38   S    
C26   H22   S    
C17   H2    S    
C37   C38   S    
C19   H8    S    
C12   C15   S    
H53   N3    S    
H41   N6    S    
O12   Zn2   S    
C17   C18   S    
C7    O3    S    
C10   C34   S    
C25   H20   S    
C1    O1    A    
C6    C7    S    
C8    O10   A    
C35   H48   S    
C36   H50   S    
C4    O8    A    
C5    O13   S    
C34   C40   S    
C28   H30   S    
C24   O3    S    
C18   H4    S    
N1    Zn1   S    
C20   O2    S    
C32   H42   S    
C4    O7    A    
C3    C41   S    
C23   C34   S    
C34   C38   S    
C26   H24   S    
C10   N4    S    
C2    C8    S    
C3    C5    D    
C11   C12   S    
H29   N5    S    
C31   H38   S    
C22   H14   S    
O1    Zn1   S    
C31   H40   S    
C21   H13   S    
C12   C39   S    
C33   H46   S    
C17   H3    S    
C38   N5    S    
N2    Zn2   S    
O9    Zn1   S    
C24   H18   S    
C32   H44   S    
C33   C35   S    
C26   H21   S    
C13   C39   T    
O11   Zn1   S    
C27   H26   S    
C10   C11   S    
C14   C40   T    
O10   Zn2   S    
C30   H37   S    
C35   H49   S    
C28   N5    S    
C20   C21   S    
C24   H17   S    
C6    H1    S    
C29   O4    S    
C21   H11   S    
C2    H34   S    
C17   O13   S    
