data_mof_unit_27543.cif
_audit_creation_date              2012-10-26T19:46:06-0400
_audit_creation_method            fapswitch 2.2
_symmetry_space_group_name_H-M    P1
_symmetry_Int_Tables_number       1
_space_group_crystal_system       triclinic
_cell_length_a                    10.827374
_cell_length_b                    9.520705
_cell_length_c                    15.88677
_cell_angle_alpha                 90.32123
_cell_angle_beta                  90.596703
_cell_angle_gamma                 89.890823
_cell_volume                      1637.55817096

loop_
_atom_site_label
_atom_site_type_symbol
_atom_type_description
_atom_site_fract_x
_atom_site_fract_y
_atom_site_fract_z
_atom_type_partial_charge
C1    C     C_R   0.262075 0.500071 0.499535 0.548126
C2    C     C_R   0.935915 0.627588 0.500368 -0.145772
C3    C     C_R   0.871762 0.499897 0.499004 0.017124
C4    C     C_R   0.128221 0.500082 0.498818 0.017988
C5    C     C_R   0.425769 0.074078 0.445583 0.005356
C6    C     C_R   0.425761 0.925256 0.445593 0.006101
C7    C     C_R   0.499267 0.499621 0.340309 0.536628
C8    C     C_R   0.574575 0.925932 0.554232 0.009688
C9    C     C_R   0.574592 0.074739 0.554222 0.010177
C10   C     C_R   0.737924 0.499918 0.499713 0.545997
C11   C     C_R   0.501005 0.500405 0.659855 0.553023
C12   C     C_3   0.640108 0.500887 0.951383 -0.185916
C13   C     C_3   0.417979 0.629383 0.048517 0.152684
C14   C     C_3   0.459496 0.348048 0.046800 0.144325
C15   C     C_3   0.441308 0.369412 0.948829 -0.210916
C16   C     C_3   0.441130 0.635536 0.950457 -0.190111
C17   C     C_1   0.503723 0.501545 0.749488 -0.038278
C18   C     C_3   0.505028 0.500480 0.083507 0.187757
C19   C     C_3   0.506557 0.502435 0.917419 -0.012912
C20   C     C_3   0.273886 0.616800 0.069026 -0.235008
C21   C     C_3   0.176210 0.598504 0.997986 -0.322956
C22   C     C_3   0.048531 0.569455 0.033857 -0.467520
C23   C     C_3   0.646633 0.526366 0.050202 0.327879
C24   C     C_3   0.333421 0.282419 0.078670 -0.231665
C25   C     C_3   0.305399 0.268879 0.173886 -0.292142
C26   C     C_3   0.185414 0.188023 0.187100 -0.474020
C27   C     C_3   0.585985 0.173645 0.136142 -0.289158
C28   C     C_3   0.424226 0.812589 0.169114 -0.322477
C29   C     C_3   0.722106 0.732269 0.144392 -0.273276
C30   C     C_3   0.792663 0.428939 0.167574 -0.294010
C31   C     C_1   0.505812 0.502451 0.825010 -0.083698
C32   C     C_1   0.502068 0.498964 0.175430 -0.039644
C33   C     C_1   0.499964 0.498784 0.251005 -0.105418
C34   C     C_R   0.064067 0.372399 0.496840 -0.144756
C35   C     C_R   0.063649 0.627677 0.500259 -0.145636
C36   C     C_R   0.936325 0.372310 0.496968 -0.146191
Cu1   Cu    Cu3+1 0.500020 0.640660 0.500000 0.923814
Cu2   Cu    Cu3+1 0.500020 0.359340 0.500000 0.924296
H1    H     H_    0.357487 0.657098 0.912402 0.105012
H2    H     H_    0.111537 0.727476 0.501582 0.126320
H3    H     H_    0.888432 0.272516 0.495611 0.125352
H4    H     H_    0.887709 0.727367 0.501783 0.125404
H5    H     H_    0.366226 0.129871 0.401998 0.101873
H6    H     H_    0.366200 0.868933 0.402020 0.101381
H7    H     H_    0.049366 0.468827 0.068827 0.145439
H8    H     H_    0.020169 0.655927 0.076741 0.146783
H9    H     H_    0.979668 0.561482 0.981758 0.139467
H10   H     H_    0.169438 0.697050 0.960949 0.152021
H11   H     H_    0.198116 0.511967 0.954563 0.153121
H12   H     H_    0.343545 0.373521 0.928944 0.090839
H13   H     H_    0.259315 0.539942 0.118874 0.129404
H14   H     H_    0.240998 0.715035 0.098976 0.153270
H15   H     H_    0.106512 0.244214 0.157203 0.144656
H16   H     H_    0.192092 0.080763 0.159731 0.140162
H17   H     H_    0.167374 0.178731 0.255547 0.137732
H18   H     H_    0.378617 0.213720 0.209217 0.164376
H19   H     H_    0.292645 0.372220 0.204258 0.153401
H20   H     H_    0.253235 0.336229 0.049839 0.127760
H21   H     H_    0.328510 0.174490 0.051493 0.140457
H22   H     H_    0.565000 0.167501 0.008753 0.230160
H23   H     H_    0.634393 0.870132 0.597610 0.105853
H24   H     H_    0.680103 0.127552 0.133301 0.133558
H25   H     H_    0.521192 0.085995 0.146629 0.121126
H26   H     H_    0.585090 0.248106 0.189475 0.171858
H27   H     H_    0.467547 0.848583 0.044836 0.243244
H28   H     H_    0.504903 0.856030 0.203672 0.140292
H29   H     H_    0.383124 0.728637 0.207448 0.150742
H30   H     H_    0.354610 0.897863 0.163315 0.109234
H31   H     H_    0.754542 0.706022 0.019019 0.225302
H32   H     H_    0.706495 0.847381 0.141696 0.131017
H33   H     H_    0.821383 0.717504 0.159428 0.111154
H34   H     H_    0.634445 0.131070 0.597586 0.106495
H35   H     H_    0.665259 0.690194 0.195338 0.170963
H36   H     H_    0.805525 0.394293 0.041192 0.229969
H37   H     H_    0.822120 0.321251 0.185190 0.124489
H38   H     H_    0.728508 0.465579 0.215934 0.153393
H39   H     H_    0.876950 0.494570 0.168738 0.124761
H40   H     H_    0.475233 0.277531 0.912142 0.105269
H41   H     H_    0.502095 0.725324 0.934462 0.117979
H42   H     H_    0.695901 0.578467 0.916133 0.085739
H43   H     H_    0.680788 0.397463 0.933599 0.114387
H44   H     H_    0.112288 0.272630 0.495357 0.125863
N1    N     N_R   0.500030 0.852070 0.500020 -0.221810
N2    N     N_R   0.500030 0.147930 0.500020 -0.221905
N3    N     N_2   0.557769 0.240626 0.056595 -0.486114
N4    N     N_2   0.460504 0.764775 0.085389 -0.491217
N5    N     N_2   0.691826 0.671711 0.062750 -0.479217
N6    N     N_2   0.738855 0.425008 0.083481 -0.471578
O1    O     O_R   0.319660 0.618740 0.500000 -0.506907
O2    O     O_R   0.319660 0.381260 0.500000 -0.506299
O3    O     O_R   0.500020 0.618840 0.379440 -0.501027
O4    O     O_R   0.500020 0.381160 0.379440 -0.501278
O5    O     O_R   0.680370 0.618830 0.500010 -0.508806
O6    O     O_R   0.680370 0.381170 0.500010 -0.508691
O7    O     O_R   0.500010 0.618730 0.620560 -0.495941
O8    O     O_R   0.500010 0.381270 0.620560 -0.495773

loop_
_geom_bond_atom_site_label_1
_geom_bond_atom_site_label_2
_ccdc_geom_bond_type
C11   O8    A    
C2    C35   A    
C1    O2    A    
C8    N1    A    
C14   C18   S    
C25   H18   S    
C19   C31   S    
C26   H17   S    
C21   H11   S    
H27   N4    S    
C15   C19   S    
C12   C23   S    
C13   C18   S    
C28   H30   S    
C20   H13   S    
C16   C19   S    
C5    C6    A    
C15   H40   S    
C29   H35   S    
C10   O6    A    
Cu2   O4    S    
Cu1   O7    S    
C15   H12   S    
C14   C24   S    
C27   N3    S    
C30   H39   S    
C8    C9    A    
C13   N4    S    
C9    H34   S    
H31   N5    S    
C8    H23   S    
C21   H10   S    
C22   H9    S    
C5    H5    S    
C4    C35   A    
C23   N5    S    
C21   C22   S    
C7    C33   S    
C36   H3    S    
C25   H19   S    
C26   H16   S    
C4    C34   A    
Cu1   O3    S    
C18   C23   S    
C28   H29   S    
C24   C25   S    
C5    N2    A    
C16   H1    S    
C10   O5    A    
C25   C26   S    
C28   H28   S    
Cu1   Cu2   S    
C27   H24   S    
C30   H38   S    
C7    O3    A    
Cu2   O6    S    
Cu1   O5    S    
C27   H25   S    
C22   H8    S    
C23   N6    S    
C28   N4    S    
C17   C31   T    
C18   C32   S    
C30   N6    S    
C26   H15   S    
C29   H32   S    
C11   O7    A    
C11   C17   S    
C1    O1    A    
C6    N1    A    
C13   C20   S    
Cu2   N2    S    
C14   N3    S    
H22   N3    S    
Cu2   O2    S    
Cu1   O1    S    
C1    C4    S    
C32   C33   T    
C16   H41   S    
C2    C3    A    
C20   H14   S    
C3    C10   S    
C30   H37   S    
C3    C36   A    
C2    H4    S    
C24   H21   S    
C7    O4    A    
C12   H42   S    
C12   C19   S    
C12   H43   S    
C35   H2    S    
C34   C36   A    
C29   N5    S    
C27   H26   S    
C9    N2    A    
C22   H7    S    
C20   C21   S    
C24   H20   S    
C13   C16   S    
Cu2   O8    S    
C14   C15   S    
Cu1   N1    S    
C6    H6    S    
C34   H44   S    
H36   N6    S    
C29   H33   S    
