data_mof_unit_55620.cif
_audit_creation_date              2013-03-05T15:45:31-0500
_audit_creation_method            fapswitch 2.2
_symmetry_space_group_name_H-M    P1
_symmetry_Int_Tables_number       1
_space_group_crystal_system       triclinic
_cell_length_a                    10.895997
_cell_length_b                    11.128781
_cell_length_c                    18.727366
_cell_angle_alpha                 89.797064
_cell_angle_beta                  89.497055
_cell_angle_gamma                 59.696643
_cell_volume                      1960.51082118

loop_
_atom_site_label
_atom_site_type_symbol
_atom_site_description
_atom_site_fract_x
_atom_site_fract_y
_atom_site_fract_z
_atom_type_partial_charge
O1    O     O_R   0.507430 0.255570 0.581420 -0.491796
O2    O     O_R   0.280190 0.527390 0.578910 -0.451778
C1    C     C_R   0.227605 0.649501 0.606443 0.566061
O3    O     O_R   0.260310 0.739740 0.584580 -0.494845
O4    O     O_R   0.532250 0.695150 0.573830 -0.439352
C2    C     C_R   0.623944 0.588019 0.609326 0.593547
O5    O     O_R   0.744930 0.503430 0.576380 -0.520169
O6    O     O_R   0.699250 0.276390 0.571950 -0.513401
C3    C     C_R   0.634240 0.218901 0.599357 0.557794
O7    O     O_R   0.499020 0.256400 0.419850 -0.490386
O8    O     O_R   0.272400 0.528160 0.429140 -0.454256
C4    C     C_R   0.224997 0.648408 0.400849 0.564206
O9    O     O_R   0.251910 0.740570 0.423020 -0.517412
O10   O     O_R   0.524460 0.695920 0.424060 -0.518534
C5    C     C_R   0.617012 0.591583 0.385556 0.565516
O11   O     O_R   0.736530 0.504260 0.414810 -0.474797
O12   O     O_R   0.691460 0.277160 0.422180 -0.462987
C6    C     C_R   0.618534 0.224860 0.395920 0.574239
Cr1   Cr    Cr6+3 0.392930 0.397900 0.502230 1.099470
Cr2   Cr    Cr6+3 0.398240 0.708600 0.501260 1.064678
Cr3   Cr    Cr6+3 0.708800 0.393470 0.496460 1.070159
O13   O     O_3   0.499990 0.499990 0.499980 -0.314750
C7    C     C_3   0.540848 0.802551 0.786701 -0.006169
H1    H     H_    0.571214 0.879202 0.770851 0.100025
C8    C     C_3   0.495836 0.753714 0.719366 0.164980
H2    H     H_    0.427998 0.716978 0.743107 0.221895
H3    H     H_    0.828534 0.733774 0.773696 0.120572
H4    H     H_    0.740201 0.742486 0.662484 0.137674
C9    C     C_3   0.802979 0.649277 0.767232 -0.333337
C10   C     C_3   0.668096 0.539507 0.815848 0.159460
C11   C     C_3   0.679879 0.671986 0.817064 0.048671
H5    H     H_    0.768378 0.454103 0.837495 0.083517
C12   C     C_3   0.633023 0.622743 0.685843 0.009358
C13   C     C_3   0.763220 0.645051 0.690109 -0.284889
C14   C     C_3   0.658588 0.500519 0.736620 -0.076613
H6    H     H_    0.758574 0.406228 0.720103 0.108738
H7    H     H_    0.899138 0.548322 0.780167 0.147812
H8    H     H_    0.858367 0.560262 0.663422 0.197574
C15   C     C_R   0.808086 0.123245 0.701285 -0.105125
H9    H     H_    0.886187 0.138041 0.672588 0.138015
C16   C     C_R   0.824068 0.095402 0.775238 0.255631
C17   C     C_R   0.720121 0.079878 0.812676 0.035832
C18   C     C_R   0.602162 0.094867 0.776020 -0.171852
H10   H     H_    0.515043 0.092620 0.802881 0.172774
C19   C     C_R   0.587327 0.121938 0.704679 -0.152833
H11   H     H_    0.486099 0.150238 0.682289 0.170791
C20   C     C_R   0.685718 0.141446 0.666433 -0.004099
C21   C     C_R   0.144831 0.571955 0.714669 0.083640
C22   C     C_R   0.126590 0.585130 0.788631 -0.107688
H12   H     H_    0.115403 0.507460 0.818224 0.157115
C23   C     C_R   0.124734 0.696655 0.824242 0.018116
C24   C     C_R   0.145538 0.790647 0.786127 -0.081163
H13   H     H_    0.157343 0.867947 0.813109 0.234250
C25   C     C_R   0.146674 0.789667 0.713228 -0.138136
H14   H     H_    0.154008 0.872421 0.686729 0.201040
C26   C     C_R   0.159045 0.674851 0.676419 0.030780
C27   C     C_R   0.700645 0.504715 0.262367 0.271350
C28   C     C_R   0.696119 0.527491 0.188730 0.092906
C29   C     C_R   0.638261 0.664079 0.162905 -0.018511
C30   C     C_R   0.561491 0.776581 0.209377 -0.190045
H15   H     H_    0.513819 0.882331 0.190282 0.152391
C31   C     C_R   0.554131 0.753832 0.281917 -0.219015
H16   H     H_    0.495891 0.842805 0.316781 0.177019
C32   C     C_R   0.625672 0.617906 0.309284 -0.006186
C33   C     C_R   0.541224 0.144651 0.290156 0.063771
C34   C     C_R   0.562924 0.103379 0.220127 -0.129047
H17   H     H_    0.474533 0.110846 0.190423 0.163176
C35   C     C_R   0.692609 0.060817 0.187116 -0.018206
C36   C     C_R   0.809343 0.041109 0.227605 -0.104848
H18   H     H_    0.913975 0.996936 0.203550 0.170378
C37   C     C_R   0.790486 0.082152 0.299006 0.069513
C38   C     C_R   0.652993 0.146749 0.328899 0.052243
C39   C     C_R   0.260063 0.700753 0.280608 -0.153046
H19   H     H_    0.332486 0.731636 0.300258 0.156771
C40   C     C_R   0.239557 0.703674 0.208566 -0.139102
H20   H     H_    0.292986 0.740510 0.173278 0.154696
C41   C     C_R   0.143366 0.667800 0.182892 -0.008218
C42   C     C_R   0.072193 0.622419 0.228852 -0.104768
H21   H     H_    0.993765 0.598841 0.208665 0.136056
C43   C     C_R   0.091806 0.620970 0.302077 0.272801
C44   C     C_R   0.186249 0.660880 0.327423 0.066992
O14   O     O_R   0.089490 0.825610 0.930610 -0.474793
O15   O     O_R   0.818370 0.054540 0.929880 -0.469181
C45   C     C_R   0.728282 0.043678 0.888614 0.542373
O16   O     O_R   0.605870 0.077310 0.915530 -0.509649
O17   O     O_R   0.646440 0.806700 0.917570 -0.484228
C46   C     C_R   0.720594 0.689271 0.889120 0.573641
O18   O     O_R   0.837200 0.593290 0.915250 -0.547607
O19   O     O_R   0.065330 0.635370 0.931590 -0.507188
C47   C     C_R   0.074832 0.731068 0.897525 0.550667
O20   O     O_R   0.068300 0.828790 0.091860 -0.521991
O21   O     O_R   0.798730 0.057480 0.079370 -0.465487
C48   C     C_R   0.703981 0.037326 0.110551 0.568138
O22   O     O_R   0.584680 0.080480 0.076790 -0.502198
O23   O     O_R   0.626790 0.809640 0.067050 -0.513862
C49   C     C_R   0.691139 0.688474 0.095532 0.554219
O24   O     O_R   0.816010 0.596460 0.076500 -0.491163
O25   O     O_R   0.045680 0.638310 0.081070 -0.496171
C50   C     C_R   0.091715 0.709229 0.112264 0.539383
Cr4   Cr    Cr6+3 0.937620 0.938540 0.007640 1.061222
Cr5   Cr    Cr6+3 0.625150 0.937450 0.994520 1.046039
Cr6   Cr    Cr6+3 0.937990 0.625080 0.001190 1.025718
O26   O     O_3   0.833590 0.833690 0.001120 -0.328827
O27   O     O_3   0.948688 0.064579 0.808254 -0.594823
C51   C     C_3   0.947511 0.185685 0.828969 -0.093793
H22   H     H_    0.049754 0.155475 0.855176 0.176750
H23   H     H_    0.863973 0.241807 0.869883 0.129829
H24   H     H_    0.940617 0.249758 0.782115 0.109416
I1    I     I_    0.163952 0.386797 0.670237 -0.433497
I2    I     I_    0.363090 0.917734 0.859076 -0.344823
O28   O     O_3   0.784432 0.371822 0.288756 -0.538430
C52   C     C_3   0.928687 0.338066 0.287543 -0.016648
H25   H     H_    0.948808 0.420105 0.265725 0.133591
H26   H     H_    0.991659 0.242996 0.254811 0.171618
H27   H     H_    0.970504 0.315277 0.342733 0.205300
I3    I     I_    0.780061 0.352285 0.118751 -0.323251
I4    I     I_    0.328174 0.205614 0.323983 -0.358457
I5    I     I_    0.973450 0.032975 0.359668 -0.385338
O29   O     O_3   0.017053 0.583861 0.348290 -0.556971
C53   C     C_3   0.889877 0.705802 0.367636 -0.111687
H28   H     H_    0.911048 0.783178 0.393752 0.129769
H29   H     H_    0.831913 0.678237 0.407160 0.182952
H30   H     H_    0.819868 0.753255 0.320540 0.113773
O30   O     O_3   0.397556 0.854448 0.671078 -0.556772
C54   C     C_3   0.417724 0.966745 0.658336 -0.081613
H31   H     H_    0.530220 0.932151 0.645818 0.108255
H32   H     H_    0.374220 0.039250 0.704323 0.144756
H33   H     H_    0.354729 0.023774 0.610909 0.172835
O31   O     O_3   0.546650 0.566193 0.857379 -0.537902
C55   C     C_3   0.582912 0.470383 0.913937 -0.059940
H34   H     H_    0.664434 0.470817 0.949095 0.139418
H35   H     H_    0.619457 0.364285 0.892976 0.147637
H36   H     H_    0.486445 0.501469 0.946968 0.176487
I6    I     I_    0.493948 0.449353 0.729821 -0.354129

loop_
_geom_bond_atom_site_label_1
_geom_bond_atom_site_label_2
_geom_bond_distance
_ccdc_geom_bond_type
C34   C35   1.383669 A    
C46   O18   1.277632 A    
C48   O22   1.304771 A    
O19   Cr6   1.940287 S    
H3    C9    1.114488 S    
C39   H19   1.075145 S    
O28   C52   1.419776 S    
C18   H10   1.081764 S    
C52   H26   1.109302 S    
C15   C16   1.411086 A    
O4    Cr2   1.953036 S    
C27   O28   1.380274 S    
C19   H11   1.071536 S    
C53   H28   1.113247 S    
C51   H23   1.105956 S    
O8    Cr1   1.948339 S    
O11   Cr3   2.074625 S    
C10   C14   1.566225 S    
C23   C47   1.451291 S    
O4    C2    1.290545 A    
C42   C43   1.388499 A    
C5    O11   1.293079 A    
O25   C50   1.274248 A    
C30   C31   1.390026 A    
C16   C17   1.409564 A    
C36   C37   1.394132 A    
C52   H25   1.116403 S    
C31   C32   1.403606 A    
O23   C49   1.281306 A    
O22   Cr5   2.097378 S    
C53   H29   1.107507 S    
O6    C3    1.274027 A    
C22   C23   1.402101 A    
C54   H33   1.109010 S    
C5    C32   1.468851 S    
C41   C50   1.423256 S    
O20   Cr4   2.068236 S    
O24   Cr6   2.061104 S    
O9    Cr2   2.068931 S    
C53   H30   1.113847 S    
C21   I1    2.134861 S    
C43   O29   1.381141 S    
H4    C13   1.109123 S    
C29   C30   1.400966 A    
Cr5   O26   1.965752 S    
C13   H8    1.105438 S    
Cr3   O13   1.965257 S    
C28   I3    2.133820 S    
C39   C40   1.367053 A    
Cr6   O26   2.004658 S    
C14   I6    2.143347 S    
C39   C44   1.399084 A    
O27   C51   1.397610 S    
C24   C25   1.365197 A    
O6    Cr3   1.956618 S    
C19   C20   1.389162 A    
C6    C38   1.463575 S    
C51   H24   1.107556 S    
C25   C26   1.398856 A    
O1    Cr1   2.070356 S    
C11   C46   1.467382 S    
C23   C24   1.373378 A    
O10   Cr2   1.942223 S    
Cr1   O13   1.997405 S    
O1    C3    1.275412 A    
C45   O16   1.287989 A    
C15   H9    1.082989 S    
C42   H21   1.083828 S    
C35   C36   1.405391 A    
C28   C29   1.405348 A    
C41   C42   1.406311 A    
C9    C13   1.519188 S    
Cr4   O26   1.999871 S    
O12   Cr3   1.977466 S    
C30   H15   1.079856 S    
C14   H6    1.107438 S    
C7    C11   1.586644 S    
C55   H35   1.110346 S    
C40   H20   1.084380 S    
C31   H16   1.082867 S    
O25   Cr6   1.960378 S    
C18   C19   1.361481 A    
C1    C26   1.458680 S    
O15   C45   1.307323 A    
O7    Cr1   2.084470 S    
C7    H1    1.098419 S    
C49   O24   1.270788 A    
O12   C6    1.299076 A    
C17   C45   1.467873 S    
C40   C41   1.386197 A    
C21   C22   1.395272 A    
Cr2   O13   2.005477 S    
C3    C20   1.467086 S    
O15   Cr4   1.950032 S    
C54   H31   1.106807 S    
C22   H12   1.082074 S    
C55   H36   1.109183 S    
C29   C49   1.462965 S    
C1    O3    1.287947 A    
C10   O31   1.425179 S    
O16   Cr5   2.077057 S    
C24   H13   1.061981 S    
O21   Cr4   1.949919 S    
C27   C32   1.408160 A    
C15   C20   1.409456 A    
O31   C55   1.410350 S    
C21   C26   1.421120 A    
C7    I2    2.166175 S    
C25   H14   1.082196 S    
C37   I5    2.121027 S    
O2    Cr1   1.960883 S    
O17   C46   1.255522 A    
O14   Cr4   2.066635 S    
C43   C44   1.397440 A    
O18   Cr6   2.085340 S    
O29   C53   1.410676 S    
C2    C12   1.502489 S    
C2    O5    1.319919 A    
C33   C38   1.433335 A    
C51   H22   1.106996 S    
C35   C48   1.451363 S    
O14   C47   1.300900 A    
C16   O27   1.373661 S    
C55   H34   1.112276 S    
C8    H2    1.099575 S    
C37   C38   1.405650 A    
C9    C11   1.539962 S    
O5    Cr3   2.098103 S    
C34   H17   1.082708 S    
C10   H5    1.103913 S    
C27   C28   1.398018 A    
C10   C11   1.543357 S    
O7    C6    1.244757 A    
O21   C48   1.295867 A    
C12   C14   1.563690 S    
C12   C13   1.561428 S    
C4    C44   1.427608 S    
O2    C1    1.286431 A    
C7    C8    1.552668 S    
C36   H18   1.082284 S    
C8    O30   1.421131 S    
O3    Cr2   2.061691 S    
C4    O9    1.272412 A    
C33   C34   1.369679 A    
C17   C18   1.396194 A    
C9    H7    1.110547 S    
C54   H32   1.108701 S    
C33   I4    2.153671 S    
O10   C5    1.302561 A    
O20   C50   1.279466 A    
O19   C47   1.287337 A    
O17   Cr5   1.978919 S    
C52   H27   1.109044 S    
O23   Cr5   1.956915 S    
O8    C4    1.280841 A    
C8    C12   1.595084 S    
O30   C54   1.393254 S    
