data_mof_unit_30964.cif
_audit_creation_date              2012-12-11T18:13:24-0500
_audit_creation_method            fapswitch 2.2
_symmetry_space_group_name_H-M    P1
_symmetry_Int_Tables_number       1
_space_group_crystal_system       triclinic
_cell_length_a                    8.170394
_cell_length_b                    12.6538
_cell_length_c                    18.703906
_cell_angle_alpha                 99.430344
_cell_angle_beta                  91.134288
_cell_angle_gamma                 98.576463
_cell_volume                      1884.32721107

loop_
_atom_site_label
_atom_site_type_symbol
_atom_type_description
_atom_site_fract_x
_atom_site_fract_y
_atom_site_fract_z
_atom_type_partial_charge
Ba1   Ba    Ba6+2 0.852780 0.548340 0.465070 1.635288
Ba2   Ba    Ba6+2 0.337060 0.451750 0.534940 1.634192
C1    C     C_3   0.580268 0.900178 0.252024 -0.417255
C2    C     C_R   0.892109 0.394018 0.095274 0.033311
C3    C     C_R   0.729120 0.347007 0.072179 -0.084881
C4    C     C_3   0.129319 0.761546 0.264893 0.367410
C5    C     C_R   0.667495 0.352439 0.002818 -0.089608
C6    C     C_R   0.768519 0.403418 0.954644 0.032409
C7    C     C_R   0.932060 0.451478 0.977131 0.013768
C8    C     C_R   0.708818 0.405247 0.884136 -0.110251
C9    C     C_R   0.811580 0.451566 0.833988 -0.043480
C10   C     C_R   0.974855 0.502948 0.856916 -0.005234
C11   C     C_R   0.034012 0.502954 0.928874 -0.008186
C12   C     C_3   0.632414 0.820709 0.297552 0.343371
C13   C     C_R   0.757543 0.445877 0.761044 -0.005602
C14   C     C_R   0.866490 0.486962 0.711897 -0.297769
C15   C     C_R   0.024100 0.543750 0.733976 0.045606
C16   C     C_3   0.109494 0.786224 0.188570 -0.366822
C17   C     C_R   0.079319 0.553677 0.808077 -0.044485
C18   C     C_R   0.156219 0.496357 0.071152 -0.008040
C19   C     C_R   0.215695 0.495866 0.142995 -0.005463
C20   C     C_R   0.111066 0.445403 0.191876 -0.044020
C21   C     C_R   0.953436 0.389516 0.165279 -0.041679
C22   C     C_R   0.236520 0.610151 0.834811 -0.042278
C23   C     C_3   0.460334 0.275372 0.313878 0.311297
C24   C     C_R   0.297819 0.605743 0.904855 0.033947
C25   C     C_R   0.196615 0.551915 0.952115 0.007014
C26   C     C_R   0.258103 0.547927 0.022918 0.013759
C27   C     C_R   0.460718 0.652905 0.928002 -0.084426
C28   C     C_3   0.235509 0.787478 0.619490 0.279093
C29   C     C_R   0.522561 0.647106 0.997262 -0.089609
C30   C     C_R   0.421745 0.595790 0.045353 0.032376
C31   C     C_R   0.379377 0.546555 0.165780 -0.044615
C32   C     C_R   0.481868 0.593243 0.115683 -0.109888
C33   C     C_R   0.434203 0.551011 0.238505 -0.001726
C34   C     C_3   0.434584 0.238030 0.232403 -0.402665
C35   C     C_R   0.326053 0.508771 0.287514 -0.298563
C36   C     C_R   0.166807 0.454606 0.265828 0.043633
C37   C     C_R   0.764946 0.182589 0.528751 -0.277980
C38   C     C_R   0.428470 0.807180 0.469435 -0.286438
C39   C     C_R   0.402230 0.984376 0.444134 -0.105864
C40   C     C_3   0.252266 0.910157 0.635632 -0.350152
C41   C     C_R   0.337640 0.875810 0.440142 -0.012668
C42   C     C_R   0.577920 0.848041 0.508889 0.069085
C43   C     C_R   0.642657 0.960209 0.516563 -0.059444
C44   C     C_R   0.554116 0.028354 0.482307 -0.062376
C45   C     C_3   0.061697 0.238611 0.735451 0.369069
C46   C     C_R   0.617842 0.139435 0.488634 0.045536
C47   C     C_R   0.856778 0.116283 0.559566 -0.013641
C48   C     C_R   0.793726 0.006434 0.555969 -0.094349
C49   C     C_3   0.960557 0.212085 0.380734 0.277911
C50   C     C_3   0.946137 0.089526 0.364237 -0.350596
C51   C     C_3   0.729408 0.707682 0.682944 0.315591
C52   C     C_3   0.751869 0.746316 0.764440 -0.406871
C53   C     C_3   0.081296 0.214759 0.812006 -0.366392
C54   C     C_3   0.558451 0.178205 0.702139 0.347118
C55   C     C_3   0.612857 0.100484 0.748528 -0.418596
C56   C     C_R   0.993459 0.447640 0.047969 0.007084
H1    H     H_    0.723252 0.865081 0.341150 0.076695
H2    H     H_    0.846214 0.683412 0.662171 0.012693
H3    H     H_    0.628374 0.637241 0.672435 0.066301
H4    H     H_    0.525589 0.964482 0.286901 0.104902
H5    H     H_    0.859097 0.812633 0.776585 0.127563
H6    H     H_    0.774306 0.678848 0.792511 0.057867
H7    H     H_    0.638450 0.776890 0.785380 0.117982
H8    H     H_    0.520807 0.786080 0.323715 -0.050764
H9    H     H_    0.486859 0.856768 0.209234 0.113661
H10   H     H_    0.343284 0.298984 0.335518 0.018320
H11   H     H_    0.560346 0.346556 0.323920 0.059811
H12   H     H_    0.341931 0.941973 0.682054 0.113568
H13   H     H_    0.329824 0.169938 0.220675 0.128749
H14   H     H_    0.406201 0.305706 0.205724 0.056783
H15   H     H_    0.548692 0.210429 0.209854 0.117914
H16   H     H_    0.688842 0.937955 0.225415 0.130189
H17   H     H_    0.149302 0.721152 0.148607 0.070879
H18   H     H_    0.142258 0.316188 0.731936 0.094141
H19   H     H_    0.930693 0.247338 0.725338 -0.076199
H20   H     H_    0.039590 0.279492 0.851609 0.070541
H21   H     H_    0.005555 0.135889 0.816683 0.110806
H22   H     H_    0.213160 0.211123 0.825251 0.150033
H23   H     H_    0.297035 0.945335 0.587927 0.082587
H24   H     H_    0.669176 0.213102 0.675457 -0.053500
H25   H     H_    0.468273 0.132272 0.658800 0.078527
H26   H     H_    0.705719 0.145411 0.791074 0.113730
H27   H     H_    0.668802 0.036228 0.714193 0.095600
H28   H     H_    0.047555 0.684391 0.268294 0.094384
H29   H     H_    0.505115 0.062444 0.775507 0.129893
H30   H     H_    0.648576 0.306673 0.107996 0.061404
H31   H     H_    0.541019 0.315666 0.986574 0.070590
H32   H     H_    0.824824 0.478996 0.655740 0.070180
H33   H     H_    0.582536 0.368169 0.868727 0.107397
H34   H     H_    0.130275 0.934676 0.649420 0.142924
H35   H     H_    0.874379 0.344390 0.199025 0.096801
H36   H     H_    0.315494 0.655333 0.801070 0.096301
H37   H     H_    0.541103 0.693537 0.892280 0.061820
H38   H     H_    0.649068 0.683828 0.013488 0.070693
H39   H     H_    0.608482 0.629707 0.130911 0.108317
H40   H     H_    0.259945 0.751538 0.274503 -0.075655
H41   H     H_    0.368685 0.515061 0.343404 0.072761
H42   H     H_    0.328988 0.033526 0.418937 0.101659
H43   H     H_    0.866090 0.958751 0.582854 0.103918
H44   H     H_    0.813569 0.267749 0.532257 0.064650
H45   H     H_    0.840508 0.234891 0.397268 0.002906
H46   H     H_    0.377330 0.722348 0.465338 0.071633
H47   H     H_    0.977907 0.791235 0.175799 0.150152
H48   H     H_    0.186660 0.864629 0.183969 0.110580
H49   H     H_    0.356535 0.763915 0.604917 0.007590
H50   H     H_    0.143611 0.757634 0.573473 0.076394
H51   H     H_    0.055078 0.242567 0.425527 0.081897
H52   H     H_    0.852283 0.056957 0.319532 0.114806
H53   H     H_    0.908061 0.053949 0.412635 0.087084
H54   H     H_    0.067444 0.066245 0.347857 0.142376
O1    O     O_2   0.873090 0.425890 0.325140 -0.466794
O2    O     O_2   0.197568 0.121333 0.552484 -0.482174
O3    O     O_3   0.108001 0.153381 0.685901 -0.598128
O4    O     O_3   0.122420 0.434370 0.414380 -0.494680
O5    O     O_3   0.578370 0.633800 0.536380 -0.488761
O6    O     O_2   0.341510 0.231850 0.465510 -0.468032
O7    O     O_3   0.504228 0.189966 0.345552 -0.650830
O8    O     O_2   0.416057 0.452922 0.756823 -0.497239
O9    O     O_3   0.480548 0.255570 0.746150 -0.596068
O10   O     O_3   0.659500 0.627100 0.368810 -0.472047
O11   O     O_2   0.776249 0.546990 0.243645 -0.496261
O12   O     O_3   0.690031 0.793142 0.650497 -0.643036
O13   O     O_3   0.003417 0.253074 0.317662 -0.640357
O14   O     O_3   0.708191 0.743021 0.252842 -0.597946
O15   O     O_2   0.848200 0.768190 0.534530 -0.473061
O16   O     O_3   0.081160 0.685950 0.404810 -0.486797
O17   O     O_2   0.999572 0.879360 0.449524 -0.485175
O18   O     O_3   0.085217 0.846991 0.314984 -0.598997
O19   O     O_2   0.316610 0.574140 0.674900 -0.469153
O20   O     O_3   0.067290 0.565720 0.585630 -0.496132
O21   O     O_3   0.530210 0.372990 0.631200 -0.465246
O22   O     O_3   0.185940 0.747033 0.682065 -0.639426
O23   O     O_3   0.611340 0.366290 0.463630 -0.477233
O24   O     O_3   0.108550 0.314140 0.595200 -0.484365
P1    P     P_3+3 0.041040 0.394770 0.336330 0.971752
P2    P     P_3+3 0.672880 0.754030 0.556100 0.969756
P3    P     P_3+3 0.126513 0.823830 0.402835 0.949570
P4    P     P_3+3 0.148670 0.605320 0.663680 0.971275
P5    P     P_3+3 0.066662 0.175085 0.597712 0.951775
P6    P     P_3+3 0.644014 0.614564 0.274868 0.950329
P7    P     P_3+3 0.522300 0.230229 0.439776 0.933921
P8    P     P_3+3 0.546622 0.384310 0.724997 0.950774

loop_
_geom_bond_atom_site_label_1
_geom_bond_atom_site_label_2
_ccdc_geom_bond_type
O3    P5    S    
C14   H32   S    
C16   H17   S    
C28   H49   S    
O7    P7    S    
O5    P2    S    
O8    P8    D    
Ba1   O16   S    
C4    O18   S    
Ba1   O20   S    
Ba2   O6    S    
C5    C6    A    
C52   H7    S    
C43   C44   A    
C45   O3    S    
C12   H1    S    
C40   H23   S    
C24   C25   A    
C35   C36   A    
C37   H44   S    
C4    H40   S    
O12   P2    S    
C33   C35   A    
O16   P3    S    
C22   C24   A    
C45   H18   S    
C7    C56   A    
O22   P4    S    
C19   C31   A    
C52   H5    S    
C50   H54   S    
C49   H45   S    
C29   H38   S    
C20   C36   A    
C40   H12   S    
C32   H39   S    
C54   C55   S    
O11   P6    D    
Ba1   Ba2   S    
C1    H16   S    
C7    C11   A    
Ba1   O10   S    
O19   P4    D    
C31   C33   A    
C3    H30   S    
C9    C13   A    
C51   H2    S    
C38   C41   A    
C6    C7    A    
C28   O22   S    
C47   P5    S    
Ba2   O20   S    
C39   C44   A    
C41   P3    S    
O15   P2    D    
C40   H34   S    
C34   H13   S    
O23   P7    S    
C49   H51   S    
C19   C20   A    
C39   C41   A    
O9    P8    S    
C23   H10   S    
Ba1   O1    S    
O18   P3    S    
C23   O7    S    
Ba2   O5    S    
C33   P6    S    
Ba2   O19   S    
C4    C16   S    
C44   C46   A    
C39   H42   S    
Ba2   O21   S    
C13   C14   A    
C49   C50   S    
C49   O13   S    
O2    P5    D    
C26   C30   A    
O6    P7    D    
C8    C9    A    
C3    C5    A    
C53   H20   S    
C14   C15   A    
C18   C26   A    
C50   H53   S    
O13   P1    S    
C51   C52   S    
O14   P6    S    
Ba2   O24   S    
C55   H29   S    
C46   P7    S    
C30   C32   A    
C16   H48   S    
O24   P5    S    
C22   H36   S    
C38   H46   S    
C53   H21   S    
C29   C30   A    
O17   P3    D    
C50   H52   S    
C31   C32   A    
C12   H8    S    
C55   H26   S    
Ba1   O5    S    
C10   C11   A    
C1    C12   S    
C48   H43   S    
C37   C47   A    
C8    H33   S    
O1    P1    D    
C23   H11   S    
O10   P6    S    
C51   H3    S    
C35   H41   S    
Ba1   P1    S    
C42   C43   A    
C54   H25   S    
C45   C53   S    
O4    P1    S    
C1    H4    S    
C2    C21   A    
Ba1   O4    S    
O21   P8    S    
C42   P2    S    
C28   H50   S    
C28   C40   S    
C1    H9    S    
Ba1   O15   S    
C2    C3    A    
C51   O12   S    
C4    H28   S    
C9    C10   A    
C54   H24   S    
O20   P4    S    
Ba2   O23   S    
C12   O14   S    
Ba2   P4    S    
C54   O9    S    
C17   C22   A    
C16   H47   S    
C27   C29   A    
C53   H22   S    
C52   H6    S    
C43   C48   A    
C10   C17   A    
C15   C17   A    
C36   P1    S    
C55   H27   S    
C15   P4    S    
Ba2   O4    S    
C34   H15   S    
C23   C34   S    
C27   H37   S    
C13   P8    S    
C21   H35   S    
C38   C42   A    
C18   C19   A    
C24   C27   A    
C6    C8    A    
C47   C48   A    
C2    C56   A    
C25   C26   A    
C45   H19   S    
C20   C21   A    
C11   C25   A    
Ba1   O23   S    
C18   C56   A    
Ba1   P2    S    
C34   H14   S    
C37   C46   A    
C5    H31   S    
