data_mof_unit_62212.cif
_audit_creation_date              2012-12-10T19:46:52-0500
_audit_creation_method            fapswitch 2.2
_symmetry_space_group_name_H-M    P1
_symmetry_Int_Tables_number       1
_space_group_crystal_system       triclinic
_cell_length_a                    18.46321
_cell_length_b                    18.484368
_cell_length_c                    32.804979
_cell_angle_alpha                 90.04518
_cell_angle_beta                  89.952434
_cell_angle_gamma                 89.97829
_cell_volume                      11195.7002854

loop_
_atom_site_label
_atom_site_type_symbol
_atom_type_description
_atom_site_fract_x
_atom_site_fract_y
_atom_site_fract_z
_atom_type_partial_charge
C1    C     C_R   0.500025 0.000004 0.896010 0.807411
C2    C     C_1   0.499997 0.000047 0.768812 0.025315
C3    C     C_3   0.215376 0.274967 0.426562 0.699417
C4    C     C_3   0.628293 0.687334 0.482067 0.727021
C5    C     C_3   0.784170 0.273940 0.426440 0.686667
C6    C     C_3   0.273931 0.215728 0.426420 0.699363
C7    C     C_3   0.216774 0.725227 0.426406 0.693132
C8    C     C_1   0.499976 0.000068 0.149184 -0.145092
C9    C     C_1   0.999944 0.499972 0.149192 -0.148681
C10   C     C_1   0.000049 0.500046 0.649181 -0.145985
C11   C     C_1   0.499920 0.000044 0.649189 -0.144724
C12   C     C_1   0.499954 0.000073 0.186789 -0.001315
C13   C     C_1   0.499918 0.000029 0.268817 0.023774
C14   C     C_1   0.999967 0.499949 0.186795 -0.001874
C15   C     C_1   0.000059 0.500029 0.686786 -0.001608
C16   C     C_1   0.499921 0.000055 0.686791 -0.001264
C17   C     C_3   0.406332 0.705556 0.986267 -0.798570
C18   C     C_3   0.198932 0.314126 0.080724 -0.846848
C19   C     C_3   0.593676 0.294446 0.986406 -0.798528
C20   C     C_3   0.800273 0.685644 0.080704 -0.844245
C21   C     C_3   0.301267 0.188914 0.081986 -0.869691
C22   C     C_3   0.293284 0.591937 0.995641 -0.799507
C23   C     C_3   0.698278 0.811141 0.081989 -0.867067
C24   C     C_1   0.000065 0.499914 0.268815 0.023556
C25   C     C_3   0.706715 0.408067 0.995789 -0.799754
C26   C     C_3   0.813028 0.302070 0.580718 -0.842694
C27   C     C_3   0.794605 0.906029 0.485977 -0.782610
C28   C     C_3   0.185835 0.699227 0.580676 -0.843013
C29   C     C_3   0.301317 0.186581 0.580693 -0.844310
C30   C     C_3   0.908307 0.792897 0.495048 -0.783422
C31   C     C_3   0.688317 0.199173 0.581927 -0.868770
C32   C     C_3   0.198971 0.311781 0.581897 -0.871826
C33   C     C_3   0.311107 0.801439 0.581944 -0.869267
C34   C     C_3   0.059700 0.826076 0.007039 -0.954114
C35   C     C_1   0.000031 0.499939 0.813235 0.016640
C36   C     C_3   0.274713 0.160143 0.896815 -0.871691
C37   C     C_3   0.940299 0.173914 0.006804 -0.953934
C38   C     C_3   0.726325 0.840211 0.896920 -0.870729
C39   C     C_3   0.161643 0.274273 0.896525 -0.872342
C40   C     C_3   0.173443 0.940201 0.006620 -0.951188
C41   C     C_3   0.839207 0.725909 0.896634 -0.871236
C42   C     C_3   0.826556 0.059791 0.006373 -0.951351
C43   C     C_3   0.662133 0.223379 0.396510 -0.907712
C44   C     C_3   0.673780 0.560189 0.507675 -0.958169
C45   C     C_3   0.339320 0.775097 0.396699 -0.873376
C46   C     C_1   0.500043 0.000032 0.813230 0.016731
C47   C     C_3   0.223914 0.337865 0.396464 -0.906592
C48   C     C_3   0.559623 0.674031 0.507298 -0.955608
C49   C     C_3   0.775972 0.336706 0.396238 -0.874857
C50   C     C_3   0.336847 0.223550 0.396178 -0.906141
C51   C     C_3   0.225159 0.662121 0.396379 -0.908254
C52   C     C_1   0.499919 0.999992 0.313239 0.014934
C53   C     C_1   0.000098 0.499915 0.313233 0.014915
C54   C     C_1   0.000016 0.499936 0.850839 -0.123057
C55   C     C_1   0.500060 0.000018 0.850831 -0.122749
C56   C     C_1   0.499937 0.999966 0.350842 -0.129855
C57   C     C_R   0.000001 0.499976 0.896023 0.805591
C58   C     C_1   0.000091 0.499935 0.350834 -0.130470
C59   C     C_R   0.499998 0.000025 0.103998 0.778254
C60   C     C_R   0.999976 0.499995 0.104011 0.783969
C61   C     C_R   0.000024 0.500020 0.603997 0.774834
C62   C     C_R   0.499971 0.000020 0.604009 0.773103
C63   C     C_R   0.641413 0.860407 0.000665 0.884610
C64   C     C_R   0.141305 0.639622 0.999525 0.851707
C65   C     C_R   0.358620 0.139631 0.000671 0.884376
C66   C     C_R   0.858680 0.360364 0.999526 0.852427
C67   C     C_R   0.639465 0.141330 0.999191 0.840878
C68   C     C_R   0.000031 0.499974 0.396011 0.820378
C69   C     C_R   0.140135 0.358983 0.000494 0.889889
C70   C     C_R   0.360547 0.858686 0.999194 0.840154
C71   C     C_R   0.859827 0.640988 0.000503 0.889494
C72   C     C_R   0.141365 0.360362 0.500633 0.903108
C73   C     C_R   0.639684 0.141318 0.500652 0.888904
C74   C     C_R   0.860380 0.641301 0.499503 0.850168
C75   C     C_R   0.360334 0.858641 0.500667 0.896980
C76   C     C_R   0.141010 0.640169 0.500465 0.895563
C77   C     C_R   0.641339 0.860560 0.499201 0.838651
C78   C     C_R   0.858978 0.359884 0.500479 0.899248
C79   C     C_R   0.499974 0.999982 0.396024 0.820004
C80   C     C_R   0.359796 0.140947 0.500474 0.905538
C81   C     C_R   0.234943 0.818081 0.003151 -0.171987
C82   C     C_R   0.206526 0.259002 0.968876 -0.130779
C83   C     C_R   0.765058 0.181917 0.003081 -0.172092
C84   C     C_R   0.793727 0.741053 0.968933 -0.130484
C85   C     C_R   0.258969 0.206168 0.968963 -0.131789
C86   C     C_R   0.182279 0.765527 0.003246 -0.168884
C87   C     C_R   0.741363 0.793965 0.969012 -0.132080
C88   C     C_R   0.817720 0.234469 0.003180 -0.168938
C89   C     C_R   0.759591 0.292882 0.468706 -0.139226
C90   C     C_1   0.499930 0.000055 0.231213 0.018682
C91   C     C_R   0.681917 0.735145 0.503364 -0.170101
C92   C     C_R   0.240827 0.706716 0.468794 -0.139798
C93   C     C_R   0.292912 0.240240 0.468679 -0.146027
C94   C     C_R   0.734464 0.682458 0.503436 -0.167184
C95   C     C_R   0.706852 0.240360 0.468797 -0.140568
C96   C     C_R   0.240537 0.293151 0.468763 -0.147415
C97   C     C_R   0.293639 0.759161 0.468892 -0.139908
C98   C     C_R   0.307589 0.800605 0.997650 -0.023916
C99   C     C_R   0.191697 0.299302 0.003730 -0.061876
C100  C     C_R   0.692417 0.199401 0.997649 -0.024206
C101  C     C_1   0.000021 0.499926 0.231214 0.018482
C102  C     C_R   0.808207 0.700642 0.003747 -0.061640
C103  C     C_R   0.297973 0.189867 0.004063 -0.056474
C104  C     C_R   0.199557 0.692721 0.998969 -0.037394
C105  C     C_R   0.702108 0.810252 0.004073 -0.056679
C106  C     C_R   0.800436 0.307272 0.998975 -0.037611
C107  C     C_R   0.799314 0.308282 0.503661 -0.058110
C108  C     C_R   0.699444 0.807615 0.497679 -0.022416
C109  C     C_R   0.200653 0.691790 0.503678 -0.059150
C110  C     C_R   0.308061 0.200488 0.503644 -0.056838
C111  C     C_R   0.807308 0.699553 0.498902 -0.035631
C112  C     C_1   0.000058 0.499994 0.731208 0.019771
C113  C     C_R   0.690061 0.201822 0.503989 -0.052573
C114  C     C_R   0.201929 0.310055 0.503961 -0.052915
C115  C     C_R   0.310036 0.798092 0.504026 -0.054234
C116  C     C_R   0.328307 0.726512 0.994982 0.154622
C117  C     C_R   0.221985 0.276612 0.041607 0.155452
C118  C     C_R   0.671695 0.273492 0.995053 0.154503
C119  C     C_R   0.777646 0.723300 0.041608 0.154297
C120  C     C_R   0.273915 0.219125 0.041894 0.169899
C121  C     C_R   0.273819 0.671829 0.997280 0.142150
C122  C     C_R   0.725839 0.780897 0.041898 0.169098
C123  C     C_1   0.499956 0.000055 0.731210 0.019934
C124  C     C_R   0.726177 0.328172 0.997355 0.142340
C125  C     C_R   0.776163 0.278385 0.541558 0.156608
C126  C     C_R   0.773613 0.828177 0.494797 0.148059
C127  C     C_R   0.223356 0.722152 0.541557 0.157148
C128  C     C_R   0.278028 0.223648 0.541537 0.158915
C129  C     C_R   0.828310 0.773663 0.497004 0.136617
C130  C     C_R   0.718836 0.226291 0.541832 0.171624
C131  C     C_R   0.226146 0.281169 0.541806 0.173845
C132  C     C_R   0.280836 0.774063 0.541850 0.171275
C133  C     C_3   0.128313 0.812466 0.981790 0.727754
C134  C     C_1   0.000048 0.499964 0.768813 0.025127
C135  C     C_3   0.283576 0.223604 0.926554 0.677252
C136  C     C_3   0.871689 0.187535 0.981630 0.727725
C137  C     C_3   0.717099 0.776684 0.926531 0.677075
C138  C     C_3   0.224936 0.282765 0.926408 0.677205
C139  C     C_3   0.187172 0.871412 0.981607 0.727586
C140  C     C_3   0.775650 0.717433 0.926391 0.676964
C141  C     C_3   0.812830 0.128591 0.981442 0.727671
C142  C     C_3   0.725153 0.215199 0.426594 0.692822
C143  C     C_3   0.687241 0.628434 0.482227 0.727119
C144  C     C_3   0.275927 0.783829 0.426555 0.686252
F1    F     F_    0.112662 0.787186 0.942984 -0.579779
F2    F     F_    0.712217 0.612364 0.443391 -0.582111
F3    F     F_    0.247646 0.853322 0.426141 -0.584238
F4    F     F_    0.145746 0.246890 0.426468 -0.580618
F5    F     F_    0.612596 0.711765 0.443110 -0.582126
F6    F     F_    0.853573 0.245261 0.426159 -0.583666
F7    F     F_    0.244916 0.146545 0.426180 -0.580284
F8    F     F_    0.147441 0.754069 0.425868 -0.602599
F9    F     F_    0.353169 0.251759 0.925980 -0.610743
F10   F     F_    0.887346 0.212826 0.942834 -0.579772
F11   F     F_    0.647469 0.748640 0.925779 -0.610489
F12   F     F_    0.253842 0.351983 0.925682 -0.610457
F13   F     F_    0.211988 0.886801 0.942665 -0.579711
F14   F     F_    0.746644 0.648262 0.925492 -0.610179
F15   F     F_    0.788017 0.113215 0.942505 -0.579736
F16   F     F_    0.753602 0.145768 0.426496 -0.603020
H1    H     H_    0.442087 0.751869 0.979196 0.245390
H2    H     H_    0.780810 0.628873 0.080371 0.263870
H3    H     H_    0.860217 0.686380 0.083463 0.220764
H4    H     H_    0.778305 0.710264 0.108818 0.241579
H5    H     H_    0.332947 0.138453 0.078655 0.234651
H6    H     H_    0.335207 0.229836 0.097747 0.256570
H7    H     H_    0.254639 0.173746 0.101571 0.233502
H8    H     H_    0.277906 0.565573 0.024749 0.254213
H9    H     H_    0.264244 0.565493 0.970016 0.244754
H10   H     H_    0.351584 0.580616 0.991492 0.243262
H11   H     H_    0.666863 0.861757 0.078672 0.234302
H12   H     H_    0.429295 0.676214 0.012795 0.244010
H13   H     H_    0.664023 0.770338 0.097626 0.257362
H14   H     H_    0.744803 0.826069 0.101681 0.233460
H15   H     H_    0.722079 0.434445 0.024906 0.254248
H16   H     H_    0.735773 0.434496 0.970160 0.244700
H17   H     H_    0.648417 0.419391 0.991691 0.243238
H18   H     H_    0.869937 0.282809 0.580867 0.268796
H19   H     H_    0.812035 0.362006 0.583047 0.216526
H20   H     H_    0.787889 0.280797 0.608833 0.241931
H21   H     H_    0.748207 0.941858 0.479138 0.244147
H22   H     H_    0.824415 0.928968 0.512366 0.247051
H23   H     H_    0.408703 0.670752 0.958704 0.249420
H24   H     H_    0.829055 0.908211 0.458253 0.252489
H25   H     H_    0.128961 0.718588 0.580498 0.265778
H26   H     H_    0.186698 0.639341 0.583308 0.218711
H27   H     H_    0.210532 0.721005 0.608784 0.241688
H28   H     H_    0.281950 0.129775 0.580710 0.269222
H29   H     H_    0.361300 0.187431 0.583155 0.216064
H30   H     H_    0.279761 0.211579 0.608803 0.241325
H31   H     H_    0.934982 0.777806 0.524108 0.254182
H32   H     H_    0.934466 0.763517 0.469420 0.244265
H33   H     H_    0.919683 0.851052 0.490679 0.248381
H34   H     H_    0.218381 0.370904 0.080553 0.263723
H35   H     H_    0.638147 0.167051 0.578577 0.233655
H36   H     H_    0.729391 0.165792 0.597937 0.259945
H37   H     H_    0.672483 0.245847 0.601296 0.232027
H38   H     H_    0.167195 0.362160 0.578530 0.231476
H39   H     H_    0.165161 0.270986 0.597850 0.260929
H40   H     H_    0.245691 0.327199 0.601325 0.231670
H41   H     H_    0.361614 0.833043 0.578613 0.231863
H42   H     H_    0.270152 0.835393 0.597724 0.260245
H43   H     H_    0.326312 0.754901 0.601510 0.232655
H44   H     H_    0.072697 0.837901 0.039409 0.207948
H45   H     H_    0.138959 0.313369 0.083334 0.220854
H46   H     H_    0.028924 0.872077 0.993908 0.256651
H47   H     H_    0.024691 0.777270 0.006177 0.264627
H48   H     H_    0.222380 0.131679 0.901433 0.223101
H49   H     H_    0.277924 0.180101 0.864964 0.244615
H50   H     H_    0.319169 0.120597 0.901482 0.279203
H51   H     H_    0.927297 0.162077 0.039174 0.207918
H52   H     H_    0.971077 0.127918 0.993599 0.256699
H53   H     H_    0.975307 0.222721 0.005960 0.264667
H54   H     H_    0.778660 0.868579 0.901687 0.222947
H55   H     H_    0.723370 0.820345 0.865029 0.244977
H56   H     H_    0.220589 0.289398 0.108841 0.240858
H57   H     H_    0.681890 0.879815 0.901568 0.279360
H58   H     H_    0.132688 0.222247 0.901105 0.223256
H59   H     H_    0.122354 0.319006 0.901102 0.278183
H60   H     H_    0.181970 0.277182 0.864718 0.245097
H61   H     H_    0.162000 0.927566 0.039079 0.207743
H62   H     H_    0.222116 0.975407 0.005461 0.265492
H63   H     H_    0.127101 0.970541 0.993515 0.256269
H64   H     H_    0.868226 0.777859 0.901372 0.223200
H65   H     H_    0.878369 0.681080 0.901179 0.278385
H66   H     H_    0.819142 0.723162 0.864787 0.245321
H67   H     H_    0.557925 0.248129 0.979325 0.245484
H68   H     H_    0.837997 0.072414 0.038834 0.207707
H69   H     H_    0.777883 0.024586 0.005223 0.265515
H70   H     H_    0.872899 0.029455 0.993195 0.256301
H71   H     H_    0.633406 0.275661 0.400694 0.212849
H72   H     H_    0.682694 0.219659 0.364778 0.249731
H73   H     H_    0.622590 0.178968 0.401245 0.276937
H74   H     H_    0.662207 0.573526 0.540043 0.208648
H75   H     H_    0.627607 0.529379 0.494733 0.255376
H76   H     H_    0.722620 0.525152 0.506772 0.263896
H77   H     H_    0.367896 0.722821 0.401167 0.218688
H78   H     H_    0.570692 0.323806 0.012972 0.243866
H79   H     H_    0.319177 0.778403 0.364888 0.246157
H80   H     H_    0.378887 0.819499 0.401392 0.280538
H81   H     H_    0.276380 0.366287 0.400629 0.209955
H82   H     H_    0.220156 0.317337 0.364733 0.250264
H83   H     H_    0.179622 0.377599 0.401210 0.278409
H84   H     H_    0.572533 0.662886 0.539746 0.208479
H85   H     H_    0.524448 0.722723 0.506129 0.264801
H86   H     H_    0.529066 0.627691 0.494374 0.254909
H87   H     H_    0.723686 0.365502 0.400421 0.218685
H88   H     H_    0.820498 0.376174 0.400878 0.279268
H89   H     H_    0.591330 0.329236 0.958867 0.249498
H90   H     H_    0.779575 0.315973 0.364542 0.246810
H91   H     H_    0.365895 0.275643 0.400313 0.210025
H92   H     H_    0.376162 0.178881 0.400821 0.277721
H93   H     H_    0.316112 0.219998 0.364492 0.250605
H94   H     H_    0.277330 0.633247 0.400766 0.212839
H95   H     H_    0.180483 0.622810 0.400990 0.276271
H96   H     H_    0.221962 0.682532 0.364623 0.250196
O1    O     O_3   0.500000 0.000000 0.000010 -0.482024
O2    O     O_R   0.500000 0.939250 0.416010 -0.612191
O3    O     O_R   0.060750 0.500000 0.416010 -0.633364
O4    O     O_R   0.500000 0.060750 0.416010 -0.633390
O5    O     O_R   0.500000 0.939250 0.084010 -0.627963
O6    O     O_R   0.060750 0.500000 0.084010 -0.629547
O7    O     O_R   0.500000 0.060750 0.084010 -0.628833
O8    O     O_R   0.939250 0.500000 0.084010 -0.629108
O9    O     O_R   0.000000 0.439250 0.584010 -0.635750
O10   O     O_R   0.560750 0.000000 0.584010 -0.627281
O11   O     O_R   0.000000 0.560750 0.584010 -0.628768
O12   O     O_3   0.000000 0.500000 0.000010 -0.478158
O13   O     O_R   0.439250 0.000000 0.584010 -0.636297
O14   O     O_R   0.646150 0.914530 0.977990 -0.647987
O15   O     O_R   0.085470 0.646150 0.977990 -0.591695
O16   O     O_R   0.353850 0.085470 0.977990 -0.647731
O17   O     O_R   0.914530 0.353850 0.977990 -0.591782
O18   O     O_R   0.646150 0.085470 0.977990 -0.594189
O19   O     O_R   0.085470 0.353850 0.977990 -0.645924
O20   O     O_R   0.353850 0.914530 0.977990 -0.594044
O21   O     O_R   0.914530 0.646150 0.977990 -0.645665
O22   O     O_R   0.146150 0.414530 0.477990 -0.655352
O23   O     O_3   0.000000 0.500000 0.500010 -0.476590
O24   O     O_R   0.585470 0.146150 0.477990 -0.653700
O25   O     O_R   0.853850 0.585470 0.477990 -0.592966
O26   O     O_R   0.414530 0.853850 0.477990 -0.650547
O27   O     O_R   0.146150 0.585470 0.477990 -0.652124
O28   O     O_R   0.585470 0.853850 0.477990 -0.595104
O29   O     O_R   0.853850 0.414530 0.477990 -0.649239
O30   O     O_R   0.414530 0.146150 0.477990 -0.653504
O31   O     O_R   0.414550 0.146120 0.022030 -0.635269
O32   O     O_R   0.853880 0.414550 0.022030 -0.657160
O33   O     O_R   0.585450 0.853880 0.022030 -0.634981
O34   O     O_3   0.500000 0.000000 0.500010 -0.478485
O35   O     O_R   0.146120 0.585450 0.022030 -0.657181
O36   O     O_R   0.414550 0.853880 0.022030 -0.649370
O37   O     O_R   0.853880 0.585450 0.022030 -0.643097
O38   O     O_R   0.585450 0.146120 0.022030 -0.649599
O39   O     O_R   0.146120 0.414550 0.022030 -0.642743
O40   O     O_R   0.914550 0.646120 0.522030 -0.656799
O41   O     O_R   0.353880 0.914550 0.522030 -0.622833
O42   O     O_R   0.085450 0.353880 0.522030 -0.621300
O43   O     O_R   0.646120 0.085450 0.522030 -0.632963
O44   O     O_R   0.914550 0.353880 0.522030 -0.628619
O45   O     O_R   0.439250 0.000000 0.916010 -0.616359
O46   O     O_R   0.353880 0.085450 0.522030 -0.628249
O47   O     O_R   0.085450 0.646120 0.522030 -0.641030
O48   O     O_R   0.646120 0.914550 0.522030 -0.649185
O49   O     O_R   0.000000 0.439250 0.916010 -0.616178
O50   O     O_R   0.560750 0.000000 0.916010 -0.616340
O51   O     O_R   0.000000 0.560750 0.916010 -0.616021
O52   O     O_R   0.939250 0.500000 0.416010 -0.611901
Zn1   Zn    Zn3+2 0.500000 0.913220 0.031480 0.978546
Zn2   Zn    Zn3+2 1.000000 0.586740 0.968550 1.023736
Zn3   Zn    Zn3+2 0.413260 0.000000 0.968550 1.020493
Zn4   Zn    Zn3+2 0.000000 0.413260 0.968550 1.023829
Zn5   Zn    Zn3+2 0.086740 0.500000 0.468550 0.988244
Zn6   Zn    Zn3+2 0.500000 0.086740 0.468550 0.987022
Zn7   Zn    Zn3+2 0.913260 0.500000 0.468550 1.032166
Zn8   Zn    Zn3+2 0.500000 0.913260 0.468550 1.029827
Zn9   Zn    Zn3+2 0.086780 0.500000 0.031480 0.968912
Zn10  Zn    Zn3+2 0.500000 0.086780 0.031480 0.977954
Zn11  Zn    Zn3+2 0.913220 0.500000 0.031480 0.969402
Zn12  Zn    Zn3+2 0.000000 0.413220 0.531480 1.001889
Zn13  Zn    Zn3+2 0.586780 0.000000 0.531480 0.979900
Zn14  Zn    Zn3+2 0.000000 0.586780 0.531480 0.969352
Zn15  Zn    Zn3+2 0.413220 0.000000 0.531480 1.000742
Zn16  Zn    Zn3+2 0.586740 0.000000 0.968550 1.020588

loop_
_geom_bond_atom_site_label_1
_geom_bond_atom_site_label_2
_ccdc_geom_bond_type
C39   H58   S    
C11   C62   S    
O22   Zn5   S    
C2    C123  T    
C56   C79   S    
C64   O35   A    
O5    Zn1   S    
C63   O14   A    
C87   C137  S    
C31   C130  S    
C44   H76   S    
O2    Zn8   S    
C92   C109  A    
C94   C111  A    
C81   C139  S    
C114  C131  A    
C57   O51   A    
C61   O11   A    
C48   H86   S    
C109  C127  A    
O29   Zn7   S    
C46   C55   T    
C97   C115  A    
C78   O29   A    
C81   C86   A    
C85   C103  A    
O11   Zn14  S    
C93   C110  A    
C22   H8    S    
C26   H18   S    
C83   C88   A    
C96   C114  A    
C38   H54   S    
O20   Zn3   S    
O39   Zn9   S    
C51   H96   S    
C35   C134  S    
C23   C122  S    
C137  C140  S    
C116  C121  A    
C28   H27   S    
O12   Zn11  S    
C43   H72   S    
C126  C129  A    
C20   H3    S    
C33   H43   S    
C21   H6    S    
C70   O36   A    
C136  C141  S    
O43   Zn13  S    
C42   H70   S    
C118  C124  A    
C22   H10   S    
C67   C100  S    
C49   H90   S    
C71   C102  S    
C133  C139  S    
C83   C100  A    
C29   H29   S    
C10   C61   S    
C133  F1    S    
C30   C129  S    
C36   C135  S    
C50   H92   S    
O13   Zn15  S    
C41   H66   S    
C18   H56   S    
O32   Zn11  S    
C112  C134  T    
O34   Zn15  S    
C53   C58   T    
C42   H68   S    
C34   H47   S    
C82   C85   A    
C80   O30   A    
C29   H28   S    
C40   H61   S    
C65   O31   A    
C66   O32   A    
O46   Zn15  S    
C82   C138  S    
C50   H93   S    
C91   C94   A    
C31   H35   S    
C7    C92   S    
O30   Zn6   S    
C43   H71   S    
C77   O28   A    
C45   H77   S    
C49   H88   S    
C7    F8    S    
C42   H69   S    
C23   H11   S    
C139  F13   S    
C95   C142  S    
O24   Zn6   S    
C106  C124  A    
C66   O17   A    
C108  C126  A    
C51   H94   S    
O50   Zn16  S    
C5    C89   S    
C102  C119  A    
C110  C128  A    
C18   H34   S    
C84   C102  A    
C3    C6    S    
C86   C104  A    
C45   H79   S    
C21   H5    S    
O41   Zn15  S    
C23   H14   S    
C26   H19   S    
O23   Zn14  S    
C39   H59   S    
C32   H39   S    
C8    C59   S    
C27   C126  S    
C30   H33   S    
C137  F11   S    
C24   C101  T    
C36   H48   S    
C19   H67   S    
C41   C140  S    
C140  F14   S    
C141  F15   S    
C37   H51   S    
C19   C118  S    
C34   H44   S    
C76   C109  S    
C45   C144  S    
C30   H32   S    
O48   Zn13  S    
C72   O22   A    
C28   C127  S    
C4    C91   S    
C78   O44   A    
C39   C138  S    
O31   Zn10  S    
C144  F3    S    
O34   Zn13  S    
O37   Zn11  S    
C92   C97   A    
C115  C132  A    
O33   Zn1   S    
C69   O19   A    
C70   O20   A    
C113  C130  A    
C40   H63   S    
O15   Zn2   S    
C60   O6    A    
C107  C125  A    
C83   C141  S    
C27   H21   S    
O7    Zn10  S    
O52   Zn7   S    
C28   H26   S    
C99   C117  A    
C25   H15   S    
C87   C105  A    
C8    C12   T    
C20   H2    S    
C42   C141  S    
C6    C50   S    
C17   H1    S    
C33   C132  S    
O23   Zn12  S    
C63   C105  S    
C65   C103  S    
C128  C131  A    
C84   C140  S    
O10   Zn13  S    
C64   C104  S    
C15   C112  S    
C59   O5    A    
C77   C108  S    
C43   C142  S    
C47   H82   S    
O51   Zn2   S    
C67   O18   A    
C1    C55   S    
O16   Zn3   S    
C62   O10   A    
C5    C142  S    
C44   C143  S    
C67   O38   A    
C3    C47   S    
C105  C122  A    
C76   O47   A    
C41   H64   S    
O8    Zn11  S    
O4    Zn6   S    
C32   C131  S    
O38   Zn10  S    
C54   C57   S    
C143  F2    S    
C13   C90   T    
O9    Zn12  S    
C82   C99   A    
C60   O8    A    
C103  C120  A    
C38   H55   S    
C48   H84   S    
C51   H95   S    
C17   H12   S    
C80   O46   A    
O44   Zn12  S    
O23   Zn7   S    
C75   O26   A    
C71   O21   A    
C18   H45   S    
O6    Zn9   S    
C25   H17   S    
C73   O43   A    
C81   C98   A    
C20   H4    S    
C72   C114  S    
C33   H42   S    
O1    Zn16  S    
C73   C113  S    
C65   O16   A    
C32   H38   S    
O36   Zn1   S    
C111  C129  A    
C36   H49   S    
C35   C54   T    
O34   Zn8   S    
C38   H57   S    
C37   H53   S    
C68   O52   A    
C77   O48   A    
C19   H78   S    
C41   H65   S    
C88   C136  S    
O27   Zn5   S    
C117  C120  A    
C74   C111  S    
C19   H89   S    
C14   C101  S    
C24   C53   S    
C34   H46   S    
C5    F6    S    
C40   H62   S    
C78   C107  S    
C26   C125  S    
C75   O41   A    
C9    C14   T    
C37   H52   S    
C48   H85   S    
C13   C52   S    
C136  F10   S    
C11   C16   T    
C17   H23   S    
C86   C133  S    
C6    C93   S    
C89   C107  A    
C37   C136  S    
C18   C117  S    
C49   H87   S    
C69   C99   S    
C58   C68   S    
C43   H73   S    
C44   H75   S    
C100  C118  A    
C79   O4    A    
O42   Zn12  S    
C31   H37   S    
C22   C121  S    
C59   O7    A    
O23   Zn5   S    
C91   C108  A    
O49   Zn4   S    
C72   O42   A    
C68   O3    A    
C23   H13   S    
C26   H20   S    
C21   H7    S    
C9    C60   S    
C7    C51   S    
C32   H40   S    
C47   H83   S    
C31   H36   S    
C38   C137  S    
C5    C49   S    
C22   H9    S    
C62   O13   A    
O34   Zn6   S    
C29   H30   S    
C20   C119  S    
C50   H91   S    
O19   Zn4   S    
C135  C138  S    
C89   C95   A    
C76   O27   A    
C84   C87   A    
O1    Zn10  S    
C4    C143  S    
C2    C46   S    
C4    F5    S    
C94   C143  S    
C16   C123  S    
C95   C113  A    
C21   C120  S    
C10   C15   T    
C71   O37   A    
O21   Zn2   S    
O18   Zn16  S    
C40   C139  S    
O1    Zn1   S    
C27   H24   S    
C127  C132  A    
C125  C130  A    
C69   O39   A    
C3    C96   S    
O47   Zn14  S    
C3    F4    S    
O40   Zn14  S    
C1    O45   A    
C66   C106  S    
C7    C144  S    
O28   Zn8   S    
C73   O24   A    
C39   H60   S    
C74   O25   A    
C47   H81   S    
C104  C121  A    
C34   C133  S    
C64   O15   A    
C44   H74   S    
C88   C106  A    
C98   C116  A    
O35   Zn9   S    
O12   Zn4   S    
C30   H31   S    
C57   O49   A    
O17   Zn4   S    
C61   O9    A    
C85   C135  S    
C45   H80   S    
C93   C96   A    
C6    F7    S    
O3    Zn5   S    
C4    C48   S    
C119  C122  A    
C138  F12   S    
C79   O2    A    
C142  F16   S    
C12   C90   S    
C1    O50   A    
C135  F9    S    
C74   O40   A    
O1    Zn3   S    
C27   H22   S    
C28   H25   S    
O12   Zn9   S    
C25   H16   S    
C97   C144  S    
C33   H41   S    
C25   C124  S    
C70   C98   S    
C75   C115  S    
O45   Zn3   S    
C29   C128  S    
C80   C110  S    
C63   O33   A    
O14   Zn16  S    
O25   Zn7   S    
O26   Zn8   S    
O12   Zn2   S    
C52   C56   T    
C17   C116  S    
C36   H50   S    
