data_mof_unit_54083.cif
_audit_creation_date              2012-12-11T18:13:14-0500
_audit_creation_method            fapswitch 2.2
_symmetry_space_group_name_H-M    P1
_symmetry_Int_Tables_number       1
_space_group_crystal_system       triclinic
_cell_length_a                    8.181965
_cell_length_b                    12.675923
_cell_length_c                    18.704795
_cell_angle_alpha                 99.685642
_cell_angle_beta                  91.135623
_cell_angle_gamma                 98.728647
_cell_volume                      1888.09909488

loop_
_atom_site_label
_atom_site_type_symbol
_atom_type_description
_atom_site_fract_x
_atom_site_fract_y
_atom_site_fract_z
_atom_type_partial_charge
Ba1   Ba    Ba6+2 0.852780 0.548340 0.465070 1.652084
Ba2   Ba    Ba6+2 0.337060 0.451750 0.534940 1.666268
C1    C     C_3   0.577053 0.896900 0.251596 -0.410659
C2    C     C_3   0.630361 0.818393 0.297161 0.340137
C3    C     C_3   0.407114 0.226836 0.311730 0.271897
C4    C     C_3   0.416566 0.184025 0.230753 -0.260866
C5    C     C_3   0.049070 0.240720 0.737501 0.478572
C6    C     C_3   0.034614 0.208934 0.812662 0.229174
C7    C     C_3   0.550679 0.178631 0.701498 0.316727
C8    C     C_3   0.598059 0.098058 0.746768 -0.307197
C9    C     C_R   0.992174 0.448164 0.048023 0.024227
C10   C     C_R   0.890385 0.395042 0.095241 0.025298
C11   C     C_R   0.727128 0.348778 0.072125 -0.073842
C12   C     C_3   0.128959 0.761812 0.265479 0.357599
C13   C     C_R   0.665275 0.355021 0.002970 -0.057807
C14   C     C_R   0.766650 0.405721 0.954905 0.014699
C15   C     C_R   0.930839 0.452423 0.977268 0.029003
C16   C     C_R   0.706859 0.408365 0.884553 -0.116003
C17   C     C_R   0.810282 0.453732 0.834348 -0.054341
C18   C     C_R   0.974358 0.503592 0.857122 0.007416
C19   C     C_R   0.033574 0.502897 0.928964 0.017935
C20   C     C_R   0.756429 0.447887 0.761369 -0.010683
C21   C     C_R   0.865599 0.488372 0.712205 -0.287885
C22   C     C_R   0.023924 0.544249 0.734164 0.028022
C23   C     C_3   0.110125 0.786901 0.189307 -0.358269
C24   C     C_R   0.079573 0.553455 0.808242 -0.053380
C25   C     C_R   0.155481 0.495687 0.071139 0.013118
C26   C     C_R   0.214853 0.495108 0.142951 0.043907
C27   C     C_R   0.109725 0.445377 0.191822 -0.015766
C28   C     C_R   0.951696 0.390114 0.165150 -0.023911
C29   C     C_R   0.238080 0.607893 0.834861 -0.023887
C30   C     C_R   0.299738 0.601809 0.904510 0.038705
C31   C     C_R   0.197129 0.549902 0.951989 0.029388
C32   C     C_R   0.258447 0.545588 0.022728 0.026430
C33   C     C_R   0.464489 0.645013 0.926971 -0.061984
C34   C     C_3   0.233937 0.787260 0.619485 0.297856
C35   C     C_R   0.525887 0.639346 0.996227 -0.089949
C36   C     C_R   0.423215 0.591154 0.044840 0.029168
C37   C     C_R   0.379515 0.544041 0.165513 -0.023307
C38   C     C_R   0.483023 0.588846 0.115194 -0.108827
C39   C     C_R   0.434782 0.548014 0.238097 0.008953
C40   C     C_R   0.326929 0.505661 0.286977 -0.283664
C41   C     C_R   0.166634 0.453190 0.265510 0.016055
C42   C     C_R   0.764106 0.184036 0.533666 -0.275508
C43   C     C_R   0.429895 0.807678 0.469824 -0.289850
C44   C     C_R   0.402279 0.985410 0.447139 -0.102877
C45   C     C_3   0.244499 0.909454 0.635187 -0.327512
C46   C     C_R   0.338625 0.876435 0.441535 -0.012379
C47   C     C_R   0.579021 0.848497 0.509609 0.067623
C48   C     C_R   0.643065 0.961002 0.518877 -0.059225
C49   C     C_R   0.553731 0.029605 0.485966 -0.062671
C50   C     C_R   0.616690 0.141091 0.493705 0.047642
C51   C     C_R   0.857168 0.117241 0.563001 -0.008368
C52   C     C_R   0.794555 0.007060 0.558225 -0.100296
C53   C     C_3   0.957804 0.214830 0.383060 0.272314
C54   C     C_3   0.917409 0.092092 0.365709 -0.390929
C55   C     C_3   0.731528 0.710880 0.683813 0.359439
C56   C     C_3   0.783249 0.756399 0.763190 0.206095
H1    H     H_    0.721027 0.863498 0.340776 0.077425
H2    H     H_    0.331621 0.943355 0.682179 0.136403
H3    H     H_    0.289243 0.944829 0.587689 0.072340
H4    H     H_    0.120747 0.931278 0.648052 0.131622
H5    H     H_    0.850485 0.248644 0.406469 0.029935
H6    H     H_    0.063683 0.237269 0.423124 0.078523
H7    H     H_    0.801636 0.068399 0.331377 0.125312
H8    H     H_    0.900682 0.057895 0.416148 0.092738
H9    H     H_    0.019605 0.058193 0.336377 0.143838
H10   H     H_    0.835280 0.675500 0.657384 -0.079639
H11   H     H_    0.621756 0.647003 0.681176 0.045222
H12   H     H_    0.516494 0.958482 0.286133 0.095829
H13   H     H_    0.906614 0.807982 0.766577 0.084264
H14   H     H_    0.791227 0.689372 0.793678 -0.033966
H15   H     H_    0.519243 0.783438 0.323393 -0.053115
H16   H     H_    0.488114 0.852189 0.207242 0.116859
H17   H     H_    0.281431 0.198370 0.328730 0.021699
H18   H     H_    0.434173 0.316841 0.321918 -0.001739
H19   H     H_    0.398382 0.094035 0.221549 0.079000
H20   H     H_    0.541540 0.213387 0.212775 0.117610
H21   H     H_    0.686128 0.938007 0.227124 0.136538
H22   H     H_    0.147531 0.721177 0.149018 0.061678
H23   H     H_    0.132014 0.319538 0.741352 0.088019
H24   H     H_    0.923755 0.251045 0.719193 -0.263292
H25   H     H_    0.951832 0.257898 0.845109 0.012532
H26   H     H_    0.980943 0.121971 0.807662 0.088938
H27   H     H_    0.663176 0.211634 0.675489 -0.041484
H28   H     H_    0.458800 0.135693 0.657793 0.074463
H29   H     H_    0.690891 0.140184 0.790107 0.107706
H30   H     H_    0.650767 0.032805 0.711891 0.102252
H31   H     H_    0.044879 0.685547 0.268666 0.093478
H32   H     H_    0.488041 0.062104 0.773196 0.192920
H33   H     H_    0.646739 0.308460 0.107862 0.118141
H34   H     H_    0.538423 0.319030 0.986788 0.155399
H35   H     H_    0.823868 0.480147 0.656018 0.069509
H36   H     H_    0.580065 0.372515 0.869242 0.157797
H37   H     H_    0.872591 0.344938 0.198724 0.092966
H38   H     H_    0.317921 0.652426 0.801230 0.137915
H39   H     H_    0.547055 0.681773 0.890609 0.137628
H40   H     H_    0.653738 0.673353 0.011918 0.082449
H41   H     H_    0.610546 0.623459 0.130141 0.104884
H42   H     H_    0.258570 0.749999 0.274856 -0.078697
H43   H     H_    0.370079 0.511460 0.342766 0.076484
H44   H     H_    0.328274 0.034566 0.422718 0.097480
H45   H     H_    0.867879 0.958878 0.583777 0.103516
H46   H     H_    0.812271 0.269304 0.537738 0.061895
H47   H     H_    0.379260 0.722641 0.464727 0.068393
H48   H     H_    0.979305 0.793623 0.176781 0.153021
H49   H     H_    0.189591 0.864545 0.184936 0.113307
H50   H     H_    0.356610 0.766510 0.605379 0.005700
H51   H     H_    0.143221 0.755192 0.573193 0.066375
O1    O     O_2   0.873090 0.425890 0.325140 -0.448010
O2    O     O_3   0.693550 0.795220 0.650252 -0.617347
O3    O     O_3   0.088035 0.847989 0.315988 -0.601250
O4    O     O_2   0.316610 0.574140 0.674900 -0.464793
O5    O     O_3   0.067290 0.565720 0.585630 -0.498004
O6    O     O_3   0.530210 0.372990 0.631200 -0.476386
O7    O     O_3   0.186653 0.746924 0.682262 -0.623664
O8    O     O_3   0.611340 0.366290 0.463630 -0.460655
O9    O     O_3   0.108550 0.314140 0.595200 -0.478552
O10   O     O_2   0.198724 0.121925 0.554974 -0.490770
O11   O     O_3   0.111242 0.159874 0.689484 -0.596583
O12   O     O_3   0.122420 0.434370 0.414380 -0.496910
O13   O     O_3   0.578370 0.633800 0.536380 -0.489875
O14   O     O_2   0.341510 0.231850 0.465510 -0.484999
O15   O     O_3   0.524545 0.184024 0.348820 -0.652022
O16   O     O_2   0.415572 0.454139 0.756216 -0.483166
O17   O     O_3   0.478616 0.257635 0.746609 -0.533976
O18   O     O_3   0.659500 0.627100 0.368810 -0.471143
O19   O     O_2   0.777187 0.546344 0.243866 -0.498584
O20   O     O_3   0.995568 0.253331 0.318700 -0.653094
O21   O     O_3   0.706537 0.741034 0.252391 -0.600901
O22   O     O_2   0.848200 0.768190 0.534530 -0.474064
O23   O     O_3   0.081160 0.685950 0.404810 -0.488683
O24   O     O_2   0.000732 0.879652 0.450200 -0.485206
P1    P     P_3+3 0.041040 0.394770 0.336330 0.965388
P2    P     P_3+3 0.672880 0.754030 0.556100 0.983296
P3    P     P_3+3 0.127767 0.824050 0.403695 0.947598
P4    P     P_3+3 0.148670 0.605320 0.663680 0.985119
P5    P     P_3+3 0.068295 0.176192 0.600105 0.968736
P6    P     P_3+3 0.643937 0.612910 0.274741 0.957952
P7    P     P_3+3 0.524237 0.229846 0.442534 0.944440
P8    P     P_3+3 0.546084 0.385508 0.724998 0.986916
Cl1   Cl    Cl    0.638128 0.836768 0.804720 -0.704721
C57   C     C_2   0.285840 0.217737 0.186343 0.411415
H52   H     H_    0.156371 0.197896 0.197655 0.034144
O25   O     O_2   0.323659 0.265451 0.136155 -0.574950
Cl2   Cl    Cl    0.229759 0.232589 0.861152 -0.658673

loop_
_geom_bond_atom_site_label_1
_geom_bond_atom_site_label_2
_ccdc_geom_bond_type
C53   C54   S    
O6    P8    S    
C34   H50   S    
C6    H25   S    
C39   C40   A    
C17   C18   A    
Ba1   O23   S    
C1    H21   S    
C45   H4    S    
Ba2   O9    S    
C5    C6    S    
C37   C39   A    
Ba2   O14   S    
C12   O3    S    
C44   H44   S    
C3    O15   S    
C8    H30   S    
C27   C28   A    
C26   C27   A    
C33   C35   A    
O19   P6    D    
C22   C24   A    
C16   C17   A    
O22   P2    D    
C3    C4    S    
C7    H28   S    
Ba2   O4    S    
C56   H13   S    
C4    H20   S    
C19   C31   A    
C29   H38   S    
C23   H22   S    
C2    H1    S    
C34   C45   S    
Ba1   Ba2   S    
O5    P4    S    
C1    H16   S    
O15   P7    S    
Ba1   O13   S    
C7    H27   S    
C13   H34   S    
C42   C51   A    
O2    P2    S    
O16   P8    D    
C14   C15   A    
C53   O20   S    
C53   H5    S    
O24   P3    D    
C21   C22   A    
C9    C25   A    
O12   P1    S    
C7    C8    S    
O9    P5    S    
C42   C50   A    
C47   P2    S    
C24   C29   A    
C6    H26   S    
C11   H33   S    
O10   P5    D    
O18   P6    S    
C35   C36   A    
O3    P3    S    
O21   P6    S    
C38   H41   S    
C35   H40   S    
Ba2   O8    S    
C43   H47   S    
C23   H48   S    
C48   C49   A    
Ba2   O13   S    
C25   C32   A    
C42   H46   S    
C44   C46   A    
C8    H29   S    
C51   P5    S    
C30   C33   A    
C52   H45   S    
C17   C20   A    
C37   C38   A    
C4    H19   S    
C2    O21   S    
C26   C37   A    
C51   C52   A    
O14   P7    D    
C15   C19   A    
C21   H35   S    
C3    H17   S    
C41   P1    S    
C12   H31   S    
C28   H37   S    
Ba1   O1    S    
Ba2   O12   S    
Ba2   O6    S    
C56   Cl1   S    
C29   C30   A    
C43   C47   A    
O23   P3    S    
C53   H6    S    
C1    H12   S    
C31   C32   A    
Ba1   O8    S    
C10   C11   A    
C2    H15   S    
C5    H23   S    
C11   C13   A    
C16   H36   S    
O4    P4    D    
O1    P1    D    
O8    P7    S    
O11   P5    S    
C40   C41   A    
C55   H10   S    
C1    C2    S    
C34   O7    S    
C40   H43   S    
Ba1   P1    S    
C45   H2    S    
C23   H49   S    
O7    P4    S    
C43   C46   A    
C57   O25   D    
C9    C15   A    
C10   C28   A    
C32   C36   A    
Ba2   P4    S    
C5    O11   S    
C46   P3    S    
C6    Cl2   S    
Ba1   O18   S    
Ba1   O22   S    
C45   H3    S    
C9    C10   A    
C12   H42   S    
C54   H7    S    
C22   P4    S    
C54   H9    S    
O17   P8    S    
C7    O17   S    
C30   C31   A    
C3    H18   S    
C57   H52   S    
C49   C50   A    
C48   C52   A    
Ba1   P2    S    
C36   C38   A    
Ba2   O5    S    
C56   H14   S    
C55   C56   S    
C55   O2    S    
C18   C24   A    
C54   H8    S    
C44   C49   A    
C20   P8    S    
C50   P7    S    
C12   C23   S    
Ba1   O12   S    
O13   P2    S    
C39   P6    S    
O20   P1    S    
C5    H24   S    
C18   C19   A    
C8    H32   S    
C14   C16   A    
C47   C48   A    
Ba1   O5    S    
C34   H51   S    
C20   C21   A    
C55   H11   S    
C4    C57   S    
C33   H39   S    
C27   C41   A    
C13   C14   A    
C25   C26   A    
