data_mof_unit_60906.cif
_audit_creation_date              2012-12-10T20:04:45-0500
_audit_creation_method            fapswitch 2.2
_symmetry_space_group_name_H-M    P1
_symmetry_Int_Tables_number       1
_space_group_crystal_system       triclinic
_cell_length_a                    38.523717
_cell_length_b                    32.080418
_cell_length_c                    21.405773
_cell_angle_alpha                 89.716069
_cell_angle_beta                  123.603754
_cell_angle_gamma                 90.16428
_cell_volume                      22033.2626258

loop_
_atom_site_label
_atom_site_type_symbol
_atom_type_description
_atom_site_fract_x
_atom_site_fract_y
_atom_site_fract_z
_atom_type_partial_charge
C1    C     C_R   0.919315 0.000003 0.419231 0.945777
C2    C     C_R   0.080685 0.000010 0.580651 0.954679
C3    C     C_R   0.419315 0.500003 0.419231 0.945779
C4    C     C_R   0.580685 0.500010 0.580651 0.954679
C5    C     C_3   0.000084 0.999710 0.688675 -0.050440
C6    C     C_3   0.001648 0.000799 0.312995 -0.048905
C7    C     C_3   0.500084 0.499710 0.688675 -0.050442
C8    C     C_3   0.501649 0.500799 0.312995 -0.048903
C9    C     C_R   0.727597 0.001738 0.168482 -0.143046
C10   C     C_R   0.272377 0.006209 0.830862 -0.138857
C11   C     C_R   0.227597 0.501785 0.168484 -0.143049
C12   C     C_R   0.772377 0.506231 0.830858 -0.138857
C13   C     C_R   0.706483 0.000044 0.204524 0.111654
C14   C     C_R   0.293507 0.000141 0.795571 0.112875
C15   C     C_R   0.206483 0.500045 0.204525 0.111653
C16   C     C_R   0.793507 0.500141 0.795571 0.112876
C17   C     C_R   0.728462 0.998386 0.282608 -0.179440
C18   C     C_R   0.271539 0.994151 0.718214 -0.175148
C19   C     C_R   0.228463 0.498341 0.282606 -0.179434
C20   C     C_R   0.771539 0.494130 0.718218 -0.175146
C21   C     C_R   0.771791 0.998411 0.325058 -0.148777
C22   C     C_R   0.228214 0.994218 0.675735 -0.146160
C23   C     C_R   0.271791 0.498367 0.325056 -0.148776
C24   C     C_R   0.728213 0.494197 0.675740 -0.146163
C25   C     C_R   0.793273 0.000090 0.289598 0.063367
C26   C     C_R   0.206716 0.000271 0.710433 0.066628
C27   C     C_R   0.293273 0.500092 0.289598 0.063371
C28   C     C_R   0.706716 0.500272 0.710433 0.066630
C29   C     C_R   0.771323 0.001787 0.210533 -0.013973
C30   C     C_R   0.228646 0.006362 0.788762 -0.031805
C31   C     C_R   0.271322 0.501835 0.210535 -0.013971
C32   C     C_R   0.728646 0.506385 0.788758 -0.031812
C33   C     C_1   0.662056 0.000012 0.161078 -0.047160
C34   C     C_1   0.337937 0.000066 0.839009 -0.047050
C35   C     C_1   0.162056 0.500013 0.161078 -0.047160
C36   C     C_1   0.837936 0.500066 0.839009 -0.047051
C37   C     C_1   0.837803 0.000033 0.335722 -0.079350
C38   C     C_1   0.162189 0.000115 0.664278 -0.078039
C39   C     C_1   0.337803 0.500034 0.335722 -0.079348
C40   C     C_1   0.662188 0.500115 0.664278 -0.078045
C41   C     C_1   0.875093 0.000000 0.374146 -0.130424
C42   C     C_1   0.124900 0.000027 0.625793 -0.116410
C43   C     C_1   0.375094 0.500000 0.374146 -0.130422
C44   C     C_1   0.624900 0.500027 0.625793 -0.116413
C45   C     C_R   0.000232 0.999909 0.621842 0.986782
C46   C     C_R   0.000863 0.000178 0.379233 0.941370
C47   C     C_R   0.500232 0.499909 0.621842 0.986783
C48   C     C_R   0.500863 0.500178 0.379233 0.941371
C49   C     C_1   0.624748 0.999996 0.124332 -0.162682
C50   C     C_1   0.375246 0.000020 0.875703 -0.161685
C51   C     C_1   0.124748 0.499996 0.124332 -0.162681
C52   C     C_1   0.875246 0.500020 0.875703 -0.161686
C53   C     C_R   0.999996 0.919345 0.999839 0.961184
C54   C     C_R   0.499996 0.419345 0.999839 0.961193
C55   C     C_R   0.000110 0.999263 0.878399 0.977765
C56   C     C_R   0.999976 0.001253 0.121639 0.988506
C57   C     C_R   0.500110 0.499263 0.878399 0.977770
C58   C     C_R   0.499976 0.501253 0.121639 0.988504
C59   C     C_R   0.000002 0.080762 0.000103 0.963931
C60   C     C_R   0.500002 0.580762 0.000103 0.963928
C61   C     C_R   0.499998 0.919544 0.000135 0.899532
C62   C     C_R   0.999998 0.419544 0.000135 0.899531
C63   C     C_R   0.580496 0.999993 0.080362 0.898687
C64   C     C_R   0.419502 0.999993 0.919641 0.898926
C65   C     C_R   0.080496 0.499993 0.080362 0.898688
C66   C     C_R   0.919502 0.499993 0.919641 0.898925
C67   C     C_R   0.499997 0.080567 0.999860 0.900713
C68   C     C_R   0.999997 0.580567 0.999860 0.900713
C69   C     C_R   0.500263 0.228043 0.056537 -0.176715
C70   C     C_R   0.499561 0.228472 0.942361 -0.171912
C71   C     C_R   0.000012 0.728043 0.056288 -0.176722
C72   C     C_R   0.999811 0.728472 0.942607 -0.171897
C73   C     C_R   0.499920 0.206618 0.999432 0.162682
C74   C     C_R   0.999919 0.706618 0.999431 0.162676
C75   C     C_R   0.999807 0.771914 0.942655 -0.172982
C76   C     C_R   0.000008 0.771483 0.056337 -0.162771
C77   C     C_R   0.499557 0.271914 0.942408 -0.172959
C78   C     C_R   0.500260 0.271483 0.056585 -0.162798
C79   C     C_3   0.961570 0.007289 0.691075 -0.076567
C80   C     C_3   0.031672 0.976119 0.301333 -0.099362
C81   C     C_3   0.461570 0.507286 0.691074 -0.076569
C82   C     C_3   0.531673 0.476120 0.301334 -0.099356
C83   C     C_R   0.999914 0.793333 0.999527 0.157106
C84   C     C_R   0.499914 0.293333 0.999528 0.157101
C85   C     C_1   0.499948 0.162173 0.999435 -0.060114
C86   C     C_1   0.999947 0.662173 0.999434 -0.060111
C87   C     C_1   0.999946 0.837768 0.999620 -0.050077
C88   C     C_1   0.499946 0.337768 0.999620 -0.050081
C89   C     C_1   0.999977 0.875085 0.999718 -0.099129
C90   C     C_1   0.499977 0.375085 0.999718 -0.099127
C91   C     C_1   0.499973 0.124846 0.999555 -0.165207
C92   C     C_1   0.999973 0.624846 0.999555 -0.165205
C93   C     C_R   0.496283 0.772073 0.940273 -0.175245
C94   C     C_R   0.503597 0.771630 0.060508 -0.170757
C95   C     C_R   0.996304 0.272073 0.940291 -0.175248
C96   C     C_R   0.003576 0.271630 0.060491 -0.170761
C97   C     C_R   0.499942 0.793491 0.000424 0.160868
C98   C     C_R   0.999942 0.293492 0.000424 0.160870
C99   C     C_R   0.003581 0.228187 0.060428 -0.163662
C100  C     C_R   0.996309 0.228633 0.940228 -0.161783
C101  C     C_R   0.503602 0.728187 0.060446 -0.163660
C102  C     C_R   0.496287 0.728633 0.940209 -0.161781
C103  C     C_R   0.999952 0.206775 0.000300 0.154732
C104  C     C_R   0.499953 0.706775 0.000300 0.154729
C105  C     C_1   0.499963 0.837938 0.000477 -0.058909
C106  C     C_1   0.999963 0.337938 0.000477 -0.058913
C107  C     C_3   0.974317 0.969711 0.744532 -0.032946
C108  C     C_3   0.994260 0.962650 0.223938 -0.019579
C109  C     C_3   0.474319 0.469710 0.744535 -0.032926
C110  C     C_3   0.494261 0.462650 0.223940 -0.019589
C111  C     C_1   0.999978 0.162339 0.000245 -0.041321
C112  C     C_1   0.499978 0.662339 0.000245 -0.041318
C113  C     C_1   0.999998 0.125022 0.000189 -0.092682
C114  C     C_1   0.499998 0.625022 0.000189 -0.092682
C115  C     C_1   0.499981 0.875265 0.000400 -0.164657
C116  C     C_1   0.999981 0.375265 0.000400 -0.164661
C117  C     C_3   0.000376 0.999008 0.811505 -0.061390
C118  C     C_3   0.000119 0.001700 0.188891 -0.056311
C119  C     C_3   0.500377 0.499008 0.811505 -0.061389
C120  C     C_3   0.500119 0.501700 0.188891 -0.056309
C121  C     C_3   0.987726 0.036622 0.758274 -0.121106
C122  C     C_3   0.037536 0.015246 0.266131 -0.108964
C123  C     C_3   0.487723 0.536622 0.758271 -0.121111
C124  C     C_3   0.537535 0.515247 0.266131 -0.108962
C125  C     C_3   0.026283 0.028997 0.755289 -0.075711
C126  C     C_3   0.007612 0.039989 0.278411 -0.077220
C127  C     C_3   0.526281 0.528999 0.755286 -0.075712
C128  C     C_3   0.507611 0.539990 0.278410 -0.077221
C129  C     C_3   0.038840 0.991453 0.808495 -0.025726
C130  C     C_3   0.970275 0.026439 0.201157 -0.057715
C131  C     C_3   0.538841 0.491456 0.808496 -0.025726
C132  C     C_3   0.470274 0.526438 0.201156 -0.057723
C133  C     C_3   0.012884 0.961717 0.741382 -0.339424
C134  C     C_3   0.963887 0.987140 0.236009 -0.316906
C135  C     C_3   0.512887 0.461718 0.741385 -0.339426
C136  C     C_3   0.463887 0.487139 0.236009 -0.316904
H1    H     H_    0.000088 0.787995 0.100458 0.155840
H2    H     H_    0.999731 0.788761 0.898575 0.148051
H3    H     H_    0.500533 0.287996 0.100898 0.155786
H4    H     H_    0.499285 0.288761 0.898136 0.148116
H5    H     H_    0.993491 0.212126 0.893576 0.155683
H6    H     H_    0.006405 0.211335 0.107035 0.154557
H7    H     H_    0.493453 0.712126 0.893544 0.155686
H8    H     H_    0.506443 0.711334 0.107067 0.154562
H9    H     H_    0.493447 0.788920 0.893653 0.148210
H10   H     H_    0.506437 0.788132 0.107179 0.149193
H11   H     H_    0.993485 0.288920 0.893685 0.148210
H12   H     H_    0.006399 0.288132 0.107147 0.149190
O1    O     O_R   0.939010 0.034440 0.439030 -0.611760
O2    O     O_R   0.060990 0.034440 0.560970 -0.598383
O3    O     O_R   0.439010 0.534440 0.439030 -0.611764
O4    O     O_R   0.560990 0.534440 0.560970 -0.598383
O5    O     O_R   0.561000 0.000050 0.113470 -0.614275
O6    O     O_R   0.439000 0.000050 0.886530 -0.614241
O7    O     O_R   0.061000 0.500050 0.113470 -0.614271
O8    O     O_R   0.939000 0.500050 0.886530 -0.614236
O9    O     O_R   0.561000 0.999980 0.008430 -0.611304
O10   O     O_R   0.439000 0.999980 0.991570 -0.610923
O11   O     O_R   0.061000 0.499980 0.008430 -0.611308
O12   O     O_R   0.939000 0.499980 0.991570 -0.610928
O13   O     O_R   0.500000 0.061040 0.052440 -0.613079
O14   O     O_R   0.500000 0.061040 0.947560 -0.613559
O15   O     O_R   0.000000 0.561040 0.052440 -0.613079
O16   O     O_R   0.000000 0.561040 0.947560 -0.613556
O17   O     O_R   0.939030 0.965580 0.439000 -0.627960
O18   O     O_R   0.060970 0.965580 0.561000 -0.604646
O19   O     O_R   0.439030 0.465580 0.439000 -0.627958
O20   O     O_R   0.560970 0.465580 0.561000 -0.604646
O21   O     O_R   0.000010 0.034440 0.593030 -0.615706
O22   O     O_R   0.999990 0.034440 0.406970 -0.630475
O23   O     O_R   0.500010 0.534440 0.593030 -0.615707
O24   O     O_R   0.499990 0.534440 0.406970 -0.630474
O25   O     O_R   0.000020 0.965580 0.593000 -0.638633
O26   O     O_R   0.999980 0.965580 0.407000 -0.596890
O27   O     O_R   0.500020 0.465580 0.593000 -0.638634
O28   O     O_R   0.499980 0.465580 0.407000 -0.596892
O29   O     O_R   0.034440 0.939060 0.034360 -0.640398
O30   O     O_R   0.965560 0.939060 0.965640 -0.584851
O31   O     O_R   0.534440 0.439060 0.034360 -0.640401
O32   O     O_R   0.465560 0.439060 0.965640 -0.584852
O33   O     O_R   0.034440 0.000050 0.941370 -0.623131
O34   O     O_R   0.965560 0.000050 0.058630 -0.571667
O35   O     O_R   0.534440 0.500050 0.941370 -0.623133
O36   O     O_R   0.465560 0.500050 0.058630 -0.571666
O37   O     O_R   0.965570 0.000070 0.872530 -0.578911
O38   O     O_R   0.034430 0.000070 0.127470 -0.638877
O39   O     O_R   0.465570 0.500070 0.872530 -0.578909
O40   O     O_R   0.534430 0.500070 0.127470 -0.638880
O41   O     O_R   0.034450 0.061050 0.034440 -0.608398
O42   O     O_R   0.965550 0.061050 0.965560 -0.589499
O43   O     O_R   0.534450 0.561050 0.034440 -0.608398
O44   O     O_R   0.465550 0.561050 0.965560 -0.589496
O45   O     O_R   0.500030 0.939050 0.052570 -0.613043
O46   O     O_R   0.499970 0.939050 0.947430 -0.613125
O47   O     O_R   0.000030 0.439050 0.052570 -0.613044
O48   O     O_R   0.999970 0.439050 0.947430 -0.613126
Zn1   Zn    Zn3+2 0.000000 0.045990 0.500000 1.031192
Zn2   Zn    Zn3+2 0.500000 0.545990 0.500000 1.031195
Zn3   Zn    Zn3+2 0.000000 0.954030 0.500000 1.008598
Zn4   Zn    Zn3+2 0.500000 0.454030 0.500000 1.008594
Zn5   Zn    Zn3+2 0.045990 0.000050 0.045940 1.045805
Zn6   Zn    Zn3+2 0.954010 0.000050 0.954060 1.101320
Zn7   Zn    Zn3+2 0.545990 0.500050 0.045940 1.045799
Zn8   Zn    Zn3+2 0.454010 0.500050 0.954060 1.101321
Zn9   Zn    Zn3+2 0.500020 0.000060 0.070120 0.988864
Zn10  Zn    Zn3+2 0.499980 0.000060 0.929880 0.988054
Zn11  Zn    Zn3+2 0.000020 0.500060 0.070120 0.988862
Zn12  Zn    Zn3+2 0.999980 0.500060 0.929880 0.988055
C137  C     C_2   0.945390 0.935433 0.735657 0.375812
H13   H     H_    0.927529 0.918875 0.682859 0.078800
O49   O     O_2   0.941936 0.925725 0.787132 -0.566615
C138  C     C_2   0.986462 0.918838 0.195187 0.372799
H14   H     H_    0.982637 0.894312 0.225945 0.080298
O50   O     O_2   0.984424 0.910467 0.137726 -0.590856
C139  C     C_2   0.445395 0.435429 0.735662 0.375784
H15   H     H_    0.427535 0.418870 0.682866 0.078791
O51   O     O_2   0.441941 0.425722 0.787138 -0.566642
C140  C     C_2   0.486465 0.418838 0.195189 0.372798
H16   H     H_    0.482640 0.394311 0.225948 0.080306
O52   O     O_2   0.484428 0.410466 0.137729 -0.590840
H17   H     H_    0.788617 0.997117 0.385698 0.163521
H18   H     H_    0.211401 0.989549 0.615660 0.159569
H19   H     H_    0.288618 0.497038 0.385694 0.163513
H20   H     H_    0.711400 0.489512 0.615669 0.159569
H21   H     H_    0.500540 0.211201 0.100817 0.148222
H22   H     H_    0.499293 0.211964 0.898053 0.147090
H23   H     H_    0.000094 0.711202 0.100376 0.148240
H24   H     H_    0.999738 0.711965 0.898491 0.147084
C141  C     C_2   0.917883 0.016072 0.626398 0.347501
H25   H     H_    0.893608 0.020854 0.636690 0.088247
O53   O     O_2   0.909375 0.017869 0.562445 -0.581241
C142  C     C_2   0.066603 0.947879 0.355786 0.356851
H26   H     H_    0.083805 0.930808 0.337738 0.063738
O54   O     O_2   0.076070 0.944128 0.420138 -0.546623
C143  C     C_2   0.417882 0.516066 0.626397 0.347504
H27   H     H_    0.393606 0.520847 0.636688 0.088249
O55   O     O_2   0.409374 0.517863 0.562444 -0.581240
C144  C     C_2   0.566605 0.447881 0.355788 0.356841
H28   H     H_    0.583808 0.430810 0.337740 0.063725
O56   O     O_2   0.576072 0.444130 0.420140 -0.546628
C145  C     C_2   0.973664 0.078821 0.765550 0.358028
H29   H     H_    0.965091 0.102208 0.722594 0.072585
O57   O     O_2   0.971842 0.087144 0.819200 -0.573206
C146  C     C_2   0.078552 0.031295 0.283415 0.503268
H30   H     H_    0.106949 0.014037 0.321026 0.041893
O58   O     O_2   0.080091 0.063662 0.254865 -0.543893
C147  C     C_2   0.473658 0.578820 0.765544 0.358032
H31   H     H_    0.465084 0.602205 0.722586 0.072587
O59   O     O_2   0.471836 0.587143 0.819194 -0.573203
C148  C     C_2   0.578551 0.531297 0.283413 0.503266
H32   H     H_    0.606949 0.514040 0.321026 0.041893
O60   O     O_2   0.580090 0.563665 0.254862 -0.543893
C149  C     C_2   0.055483 0.061888 0.760502 0.485435
H33   H     H_    0.050558 0.094287 0.767741 0.052305
O61   O     O_2   0.084877 0.052327 0.756649 -0.568244
C150  C     C_2   0.015415 0.083508 0.308659 0.496692
H34   H     H_    0.992227 0.107594 0.278014 0.032117
O62   O     O_2   0.047637 0.091864 0.368250 -0.533818
C151  C     C_2   0.555478 0.561892 0.760498 0.485442
H35   H     H_    0.550551 0.594290 0.767736 0.052308
O63   O     O_2   0.584874 0.552333 0.756645 -0.568247
C152  C     C_2   0.515413 0.583509 0.308656 0.496693
H36   H     H_    0.492223 0.607593 0.278011 0.032120
O64   O     O_2   0.547635 0.591866 0.368247 -0.533814
C153  C     C_2   0.082184 0.981794 0.873307 0.492242
H37   H     H_    0.094221 0.950328 0.881433 0.039884
O65   O     O_2   0.103699 0.008952 0.918040 -0.521625
C154  C     C_2   0.935520 0.055252 0.148187 0.394325
H38   H     H_    0.914923 0.067354 0.163421 0.058789
O66   O     O_2   0.930421 0.065653 0.088773 -0.544253
C155  C     C_2   0.582185 0.481800 0.873308 0.492241
H39   H     H_    0.594225 0.450335 0.881437 0.039890
O67   O     O_2   0.603698 0.508959 0.918040 -0.521629
C156  C     C_2   0.435518 0.555250 0.148185 0.394332
H40   H     H_    0.414921 0.567351 0.163419 0.058798
O68   O     O_2   0.430419 0.565652 0.088772 -0.544245
H41   H     H_    0.023241 0.931046 0.733557 0.165463
H42   H     H_    0.933759 0.975545 0.224809 0.153007
H43   H     H_    0.523246 0.431047 0.733562 0.165463
H44   H     H_    0.433760 0.475543 0.224810 0.153007
C157  C     C_2   0.793489 0.003603 0.171672 0.403044
H45   H     H_    0.827272 0.003660 0.203488 0.058673
O69   O     O_2   0.774230 0.005068 0.103314 -0.555028
C158  C     C_2   0.206448 0.012849 0.826792 0.429330
H46   H     H_    0.172663 0.013046 0.794916 0.107476
O70   O     O_2   0.225684 0.018080 0.894518 -0.538775
C159  C     C_2   0.293489 0.503700 0.171676 0.403045
H47   H     H_    0.327272 0.503758 0.203492 0.058671
O71   O     O_2   0.274229 0.505205 0.103321 -0.555030
C160  C     C_2   0.706449 0.512895 0.826782 0.429323
H48   H     H_    0.672664 0.513093 0.794907 0.107495
O72   O     O_2   0.725685 0.518144 0.894504 -0.538770
H49   H     H_    0.709867 0.003014 0.107733 0.185911
H50   H     H_    0.290096 0.010801 0.891056 0.185541
H51   H     H_    0.209866 0.503096 0.107737 0.185909
H52   H     H_    0.790097 0.510839 0.891048 0.185538
H53   H     H_    0.712113 0.997076 0.310589 0.151569
H54   H     H_    0.287897 0.989442 0.690815 0.150958
H55   H     H_    0.212114 0.496995 0.310585 0.151570
H56   H     H_    0.787896 0.489404 0.690824 0.150957

loop_
_geom_bond_atom_site_label_1
_geom_bond_atom_site_label_2
_ccdc_geom_bond_type
C99   C103  A    
O36   Zn8   S    
C62   O48   A    
C52   C66   S    
C79   C121  S    
C21   H17   S    
C158  H46   S    
O7    Zn11  S    
C8    C136  S    
C28   C40   S    
C148  O60   D    
C155  H39   S    
C96   C99   A    
C133  H41   S    
C146  H30   S    
C156  H40   S    
C9    C13   A    
C11   C15   A    
C12   C16   A    
C61   C115  S    
O19   Zn4   S    
C46   O26   A    
C97   C105  S    
O13   Zn9   S    
C130  C134  S    
O43   Zn7   S    
C76   C83   A    
C82   C124  S    
C68   O16   A    
C25   C29   A    
C144  O56   D    
C27   C31   A    
C70   H22   S    
C28   C32   A    
C63   O5    A    
C26   C38   S    
C94   C97   A    
O39   Zn8   S    
C17   C21   A    
C4    O20   A    
O37   Zn6   S    
C19   C23   A    
C139  H15   S    
C13   C33   S    
C141  H25   S    
C45   O25   A    
C10   C30   A    
C6    C80   S    
C16   C20   A    
C142  O54   D    
O44   Zn8   S    
C111  C113  T    
C129  C133  S    
C1    C41   S    
C154  O66   D    
C87   C89   T    
C35   C51   T    
C8    C82   S    
C59   O41   A    
C55   C117  S    
O10   Zn9   S    
O33   Zn5   S    
C84   C88   S    
C151  O63   D    
C75   H2    S    
C53   O29   A    
C47   O23   A    
C119  C123  S    
C98   C106  S    
C67   O14   A    
C68   C92   S    
O8    Zn12  S    
C127  C131  S    
C57   O39   A    
C125  C129  S    
C138  H14   S    
C141  O53   D    
C126  C150  S    
C2    O2    A    
C109  C135  S    
C60   C114  S    
C77   H4    S    
C78   H3    S    
C9    H49   S    
C53   C89   S    
C3    O19   A    
C76   H1    S    
C11   H51   S    
O26   Zn3   S    
C81   C123  S    
C58   O36   A    
C54   C90   S    
C149  H33   S    
C145  H29   S    
C118  C122  S    
C79   C141  S    
C124  C148  S    
C140  O52   D    
C8    C128  S    
C150  O62   D    
C119  C131  S    
C81   C143  S    
O24   Zn2   S    
C5    C79   S    
C117  C129  S    
O2    Zn1   S    
C36   C52   T    
C60   O44   A    
C70   C77   A    
C80   C142  S    
C72   C75   A    
C108  C138  S    
C4    O4    A    
C17   H53   S    
O45   Zn9   S    
C95   H11   S    
O16   Zn12  S    
C104  C112  S    
O42   Zn6   S    
O29   Zn5   S    
C77   C84   A    
C46   O22   A    
O48   Zn12  S    
C125  C149  S    
C121  C125  S    
C123  C127  S    
C132  C136  S    
C159  O71   D    
C137  H13   S    
O47   Zn11  S    
C19   H55   S    
C1    O1    A    
C153  O65   D    
C73   C85   S    
O5    Zn9   S    
C7    C81   S    
C23   H19   S    
C26   C30   A    
C22   C26   A    
C127  C151  S    
C63   O9    A    
C93   C97   A    
O21   Zn1   S    
C21   C25   A    
C18   C22   A    
C105  C115  T    
C31   C159  S    
C24   C28   A    
O31   Zn7   S    
C45   O21   A    
C14   C34   S    
C152  H36   S    
C157  O69   D    
C81   C109  S    
C124  C128  S    
C158  O70   D    
C65   O7    A    
C16   C36   S    
C66   O8    A    
C2    C42   S    
C146  O58   D    
C156  O68   D    
C37   C41   T    
C7    C135  S    
C40   C44   T    
C5    C125  S    
C7    C127  S    
O22   Zn1   S    
C47   O27   A    
C10   C14   A    
C48   O28   A    
C94   H10   S    
C83   C87   S    
C61   O45   A    
O25   Zn3   S    
C80   C122  S    
C15   C19   A    
C22   H18   S    
C135  H43   S    
C136  H44   S    
O23   Zn2   S    
C100  H5    S    
C71   C76   A    
C101  H8    S    
C126  C130  S    
C33   C49   T    
C54   O31   A    
C103  C111  S    
C160  H48   S    
C51   C65   S    
O18   Zn3   S    
C110  C136  S    
C143  H27   S    
C69   C73   A    
C128  C152  S    
C2    O18   A    
C10   H50   S    
C130  C154  S    
O14   Zn10  S    
O3    Zn2   S    
C62   O47   A    
O28   Zn4   S    
C112  C114  T    
C147  O59   D    
C96   H12   S    
C134  H42   S    
C6    C126  S    
C72   C74   A    
C95   C100  A    
C122  C146  S    
C4    C44   S    
C148  H32   S    
C5    C45   S    
C100  C103  A    
O38   Zn5   S    
C106  C116  T    
C7    C47   S    
C5    C133  S    
C8    C48   S    
C108  C134  S    
C118  C130  S    
C67   O13   A    
C159  H47   S    
C70   C73   A    
C67   C91   S    
C79   C107  S    
C56   O38   A    
C101  C104  A    
C18   H54   S    
C129  C153  S    
C109  C119  S    
C121  C145  S    
C68   O15   A    
C80   C108  S    
C144  H28   S    
O20   Zn4   S    
O34   Zn6   S    
C56   C118  S    
O9    Zn10  S    
O32   Zn8   S    
C69   H21   S    
C93   C102  A    
C71   C74   A    
C107  C137  S    
C13   C17   A    
C139  O51   D    
C107  C133  S    
C75   C83   A    
O15   Zn11  S    
C142  H26   S    
C138  O50   D    
C131  C155  S    
C154  H38   S    
C29   C157  S    
C72   H24   S    
C59   O42   A    
C107  C117  S    
C32   C160  S    
C12   H52   S    
C49   C63   S    
C50   C64   S    
C14   C18   A    
C99   H6    S    
C65   O11   A    
C53   O30   A    
C66   O12   A    
C85   C91   T    
C95   C98   A    
O11   Zn12  S    
C20   H56   S    
C3    C43   S    
C82   C110  S    
C38   C42   T    
C131  C135  S    
O17   Zn3   S    
C64   O6    A    
C117  C121  S    
C25   C37   S    
C48   O24   A    
C20   C24   A    
C94   C101  A    
C27   C39   S    
C93   H9    S    
C23   C27   A    
C153  H37   S    
C59   C113  S    
C57   C119  S    
C11   C31   A    
C12   C32   A    
C143  O55   D    
C69   C78   A    
C128  C132  S    
C15   C35   S    
C24   H20   S    
C39   C43   T    
O46   Zn10  S    
C34   C50   T    
C58   O40   A    
C108  C118  S    
C110  C120  S    
C149  O61   D    
C152  O64   D    
O41   Zn5   S    
C157  H45   S    
C96   C98   A    
C145  O57   D    
C122  C126  S    
C62   C116  S    
C1    O17   A    
C132  C156  S    
C150  H34   S    
C30   C158  S    
C55   O33   A    
O4    Zn2   S    
C74   C86   S    
C102  C104  A    
O6    Zn10  S    
O30   Zn6   S    
C102  H7    S    
C64   O10   A    
C151  H35   S    
C57   O35   A    
C155  O67   D    
C6    C46   S    
C120  C132  S    
C71   H23   S    
C88   C90   T    
C109  C139  S    
C58   C120  S    
C147  H31   S    
C9    C29   A    
O40   Zn7   S    
C3    O3    A    
O35   Zn7   S    
C6    C134  S    
C86   C92   T    
O12   Zn11  S    
C123  C147  S    
C140  H16   S    
C56   O34   A    
C60   O43   A    
C82   C144  S    
C137  O49   D    
C54   O32   A    
C160  O72   D    
C55   O37   A    
C110  C140  S    
O27   Zn4   S    
C78   C84   A    
C61   O46   A    
C120  C124  S    
O1    Zn1   S    
