data_mof_unit_65951.cif
_audit_creation_date              2012-12-10T20:26:56-0500
_audit_creation_method            fapswitch 2.2
_symmetry_space_group_name_H-M    P1
_symmetry_Int_Tables_number       1
_space_group_crystal_system       triclinic
_cell_length_a                    41.245978
_cell_length_b                    35.536144
_cell_length_c                    21.687834
_cell_angle_alpha                 90.009165
_cell_angle_beta                  120.445032
_cell_angle_gamma                 89.983045
_cell_volume                      27405.2402336

loop_
_atom_site_label
_atom_site_type_symbol
_atom_type_description
_atom_site_fract_x
_atom_site_fract_y
_atom_site_fract_z
_atom_type_partial_charge
C1    C     C_R   0.073389 0.000002 0.074163 0.902861
C2    C     C_R   0.926607 0.000009 0.925775 0.902030
C3    C     C_R   0.573389 0.500002 0.074163 0.902859
C4    C     C_R   0.426607 0.500009 0.925775 0.902033
C5    C     C_R   0.001890 0.997989 0.315279 -0.163016
C6    C     C_R   0.998061 0.997798 0.684665 -0.166801
C7    C     C_R   0.501890 0.497989 0.315279 -0.162989
C8    C     C_R   0.498061 0.497798 0.684665 -0.166804
C9    C     C_R   0.027893 0.020951 0.308337 0.017199
C10   C     C_R   0.971974 0.020638 0.691611 0.016382
C11   C     C_R   0.527893 0.520952 0.308337 0.017197
C12   C     C_R   0.471973 0.520636 0.691610 0.016379
C13   C     C_R   0.028194 0.020562 0.244254 0.121482
C14   C     C_R   0.971776 0.020286 0.755795 0.120724
C15   C     C_R   0.528195 0.520561 0.244254 0.121443
C16   C     C_R   0.471775 0.520284 0.755795 0.120719
C17   C     C_R   0.000647 0.999187 0.186876 -0.156454
C18   C     C_R   0.999550 0.999140 0.813317 -0.154413
C19   C     C_R   0.500647 0.499186 0.186876 -0.156461
C20   C     C_R   0.499550 0.499140 0.813318 -0.154407
C21   C     C_R   0.975046 0.975853 0.194067 0.014654
C22   C     C_R   0.025272 0.975949 0.806145 0.000497
C23   C     C_R   0.475046 0.475852 0.194067 0.014653
C24   C     C_R   0.525273 0.475950 0.806146 0.000496
C25   C     C_R   0.088650 0.036231 0.420442 0.119183
C26   C     C_R   0.911065 0.035583 0.579563 0.118912
C27   C     C_R   0.588652 0.536243 0.420435 0.119179
C28   C     C_R   0.411059 0.535571 0.579566 0.118905
C29   C     C_R   0.111402 0.061298 0.476434 -0.011317
C30   C     C_R   0.888118 0.060517 0.523465 -0.011811
C31   C     C_R   0.611409 0.561320 0.476407 -0.011364
C32   C     C_R   0.388104 0.560504 0.523471 -0.011825
C33   C     C_R   0.099635 0.098776 0.475589 0.126910
C34   C     C_R   0.899675 0.098038 0.523969 0.126905
C35   C     C_R   0.599641 0.598800 0.475545 0.126911
C36   C     C_R   0.399655 0.598027 0.523969 0.126901
C37   C     C_R   0.065028 0.111638 0.417154 0.217178
C38   C     C_R   0.934276 0.111078 0.582160 0.217233
C39   C     C_R   0.565016 0.611649 0.417136 0.217215
C40   C     C_R   0.434259 0.611070 0.582147 0.217247
C41   C     C_R   0.040786 0.085767 0.363502 0.121209
C42   C     C_R   0.958684 0.085358 0.635976 0.121599
C43   C     C_R   0.540775 0.585771 0.363494 0.121218
C44   C     C_R   0.458673 0.585353 0.635962 0.121608
C45   C     C_R   0.999513 0.999897 0.119670 0.905884
C46   C     C_R   0.000696 0.999886 0.880531 0.910391
C47   C     C_R   0.499513 0.499897 0.119670 0.905889
C48   C     C_R   0.500696 0.499886 0.880532 0.910392
C49   C     C_R   0.052637 0.048060 0.365875 0.057002
C50   C     C_R   0.947032 0.047612 0.633962 0.058630
C51   C     C_R   0.552634 0.548066 0.365870 0.056994
C52   C     C_R   0.447026 0.547605 0.633957 0.058647
C53   C     C_R   0.326032 0.020878 0.288201 0.205070
C54   C     C_R   0.674156 0.022041 0.709624 0.205698
C55   C     C_R   0.826032 0.520878 0.288202 0.205069
C56   C     C_R   0.174156 0.522040 0.709626 0.205698
C57   C     C_R   0.365389 0.024544 0.330997 0.131943
C58   C     C_R   0.634683 0.025125 0.667950 0.131727
C59   C     C_R   0.865389 0.524544 0.330997 0.131943
C60   C     C_R   0.134683 0.525125 0.667951 0.131726
C61   C     C_R   0.385679 0.999001 0.388134 -0.105650
C62   C     C_R   0.614339 0.999180 0.611587 -0.105289
C63   C     C_R   0.885679 0.499001 0.388135 -0.105651
C64   C     C_R   0.114339 0.499180 0.611587 -0.105290
C65   C     C_R   0.366703 0.971726 0.406054 0.077426
C66   C     C_R   0.633301 0.971972 0.593456 0.078073
C67   C     C_R   0.866703 0.471727 0.406055 0.077427
C68   C     C_R   0.133300 0.471972 0.593457 0.078073
C69   C     C_R   0.327168 0.970854 0.367291 -0.019954
C70   C     C_R   0.672842 0.971623 0.631039 -0.020330
C71   C     C_R   0.827168 0.470855 0.367293 -0.019954
C72   C     C_R   0.172842 0.471622 0.631041 -0.020330
C73   C     C_R   0.307187 0.995139 0.308745 -0.008609
C74   C     C_R   0.692930 0.996378 0.688729 -0.008587
C75   C     C_R   0.807187 0.495140 0.308746 -0.008609
C76   C     C_R   0.192930 0.496376 0.688731 -0.008586
C77   C     C_1   0.266958 0.995435 0.272474 -0.002788
C78   C     C_1   0.733150 0.996932 0.724133 -0.002190
C79   C     C_1   0.766957 0.495436 0.272476 -0.002788
C80   C     C_1   0.233149 0.496930 0.724135 -0.002191
C81   C     C_1   0.233414 0.996825 0.241914 0.003505
C82   C     C_1   0.766694 0.998316 0.754355 0.003790
C83   C     C_1   0.733414 0.496826 0.241917 0.003504
C84   C     C_1   0.266694 0.498315 0.754357 0.003790
C85   C     C_R   0.175460 0.029021 0.154613 0.223750
C86   C     C_R   0.824670 0.029984 0.842591 0.223260
C87   C     C_R   0.675460 0.529022 0.154615 0.223749
C88   C     C_R   0.324670 0.529983 0.842591 0.223264
C89   C     C_R   0.920929 0.902163 0.049771 -0.009962
C90   C     C_R   0.080156 0.903162 0.951923 -0.009942
C91   C     C_R   0.420933 0.402160 0.049774 -0.009963
C92   C     C_R   0.580162 0.403167 0.951928 -0.009941
C93   C     C_R   0.136098 0.028003 0.108679 0.130297
C94   C     C_R   0.863831 0.028223 0.890118 0.133140
C95   C     C_R   0.636098 0.528003 0.108680 0.130297
C96   C     C_R   0.363831 0.528224 0.890116 0.133139
C97   C     C_R   0.114691 0.000080 0.119223 -0.128349
C98   C     C_R   0.885328 0.000182 0.880098 -0.127834
C99   C     C_R   0.614691 0.500080 0.119224 -0.128349
C100  C     C_R   0.385328 0.500182 0.880097 -0.127838
C101  C     C_R   0.132759 0.972834 0.174361 0.068454
C102  C     C_R   0.867396 0.973255 0.824282 0.064449
C103  C     C_R   0.632759 0.472834 0.174362 0.068457
C104  C     C_R   0.367395 0.473254 0.824283 0.064450
C105  C     C_R   0.172263 0.971654 0.214052 -0.040500
C106  C     C_R   0.827887 0.972633 0.783192 -0.038348
C107  C     C_R   0.672263 0.471655 0.214054 -0.040502
C108  C     C_R   0.327887 0.472631 0.783195 -0.038345
C109  C     C_R   0.193245 0.999470 0.203817 -0.005184
C110  C     C_R   0.806890 0.000729 0.792743 -0.003096
C111  C     C_R   0.693245 0.499470 0.203820 -0.005188
C112  C     C_R   0.306890 0.500728 0.792745 -0.003091
C113  C     C_R   0.999993 0.073422 0.499998 0.877722
C114  C     C_R   0.499993 0.573422 0.500000 0.877697
C115  C     C_R   0.000490 0.999756 0.380229 0.903180
C116  C     C_R   0.999501 0.999707 0.619763 0.902863
C117  C     C_R   0.500490 0.499757 0.380229 0.903192
C118  C     C_R   0.499501 0.499707 0.619763 0.902860
C119  C     C_R   0.000009 0.926818 0.499976 0.887844
C120  C     C_R   0.500009 0.426818 0.499976 0.887845
C121  C     C_R   0.499995 0.073008 0.500001 0.884771
C122  C     C_R   0.999995 0.573008 0.500001 0.884771
C123  C     C_R   0.426837 0.999778 0.427564 0.900579
C124  C     C_R   0.573168 0.999794 0.572415 0.900343
C125  C     C_R   0.926837 0.499778 0.427564 0.900577
C126  C     C_R   0.073168 0.499794 0.572415 0.900347
C127  C     C_R   0.949704 0.920070 0.111127 -0.077894
C128  C     C_R   0.051054 0.920950 0.890792 -0.078090
C129  C     C_R   0.449706 0.420068 0.111131 -0.077894
C130  C     C_R   0.551059 0.420953 0.890797 -0.078093
C131  C     C_R   0.499999 0.926714 0.499999 0.887957
C132  C     C_R   0.999999 0.426714 0.499999 0.887955
C133  C     C_R   0.525031 0.826199 0.562849 0.017040
C134  C     C_R   0.474799 0.826220 0.437171 0.017082
C135  C     C_R   0.025028 0.326197 0.562839 0.017043
C136  C     C_R   0.974796 0.326222 0.437161 0.017080
C137  C     C_R   0.525591 0.865776 0.563207 0.083872
C138  C     C_R   0.474304 0.865799 0.436806 0.083854
C139  C     C_R   0.025589 0.365774 0.563202 0.083871
C140  C     C_R   0.974301 0.365801 0.436801 0.083856
C141  C     C_R   0.499974 0.885470 0.499995 -0.091649
C142  C     C_R   0.999972 0.385470 0.499991 -0.091649
C143  C     C_R   0.499902 0.806891 0.500011 -0.050207
C144  C     C_R   0.999899 0.306890 0.499998 -0.050209
C145  C     C_1   0.499877 0.766677 0.500023 -0.008975
C146  C     C_1   0.999875 0.266677 0.500006 -0.008977
C147  C     C_1   0.999873 0.233162 0.500033 -0.021210
C148  C     C_1   0.499875 0.733162 0.500053 -0.021232
C149  C     C_R   0.028896 0.174151 0.557299 -0.225161
C150  C     C_R   0.970918 0.174139 0.442798 -0.225526
C151  C     C_R   0.528897 0.674150 0.557315 -0.225133
C152  C     C_R   0.470917 0.674141 0.442817 -0.225522
C153  C     C_R   0.029477 0.135007 0.557614 -0.027784
C154  C     C_R   0.970413 0.134995 0.442437 -0.027937
C155  C     C_R   0.529478 0.635006 0.557623 -0.027794
C156  C     C_R   0.470411 0.634997 0.442453 -0.027930
C157  C     C_R   0.999967 0.114816 0.500010 -0.119315
C158  C     C_R   0.499967 0.614816 0.500018 -0.119277
C159  C     C_R   0.943835 0.956238 0.130540 0.032107
C160  C     C_R   0.056878 0.956724 0.869688 0.036024
C161  C     C_R   0.443836 0.456236 0.130541 0.032112
C162  C     C_R   0.556881 0.456727 0.869691 0.036016
C163  C     C_R   0.999888 0.193359 0.500059 0.103819
C164  C     C_R   0.499888 0.693359 0.500078 0.103872
C165  C     C_R   0.529363 0.173392 0.498312 0.146415
C166  C     C_R   0.470583 0.173383 0.501812 0.146344
C167  C     C_R   0.029364 0.673392 0.498312 0.146415
C168  C     C_R   0.970584 0.673383 0.501812 0.146344
C169  C     C_R   0.529362 0.133769 0.498700 -0.032380
C170  C     C_R   0.470597 0.133760 0.501350 -0.032296
C171  C     C_R   0.029362 0.633769 0.498701 -0.032380
C172  C     C_R   0.970597 0.633760 0.501350 -0.032297
C173  C     C_R   0.499983 0.114185 0.500009 -0.214250
C174  C     C_R   0.999983 0.614185 0.500009 -0.214250
C175  C     C_R   0.499971 0.192772 0.500080 0.073623
C176  C     C_R   0.999971 0.692772 0.500080 0.073623
C177  C     C_1   0.499964 0.233094 0.500108 -0.009793
C178  C     C_1   0.999964 0.733094 0.500109 -0.009793
C179  C     C_1   0.999969 0.766728 0.500122 -0.001618
C180  C     C_1   0.499968 0.266728 0.500121 -0.001618
C181  C     C_R   0.018367 0.826341 0.469650 0.177970
C182  C     C_R   0.981675 0.826419 0.530624 0.177910
C183  C     C_R   0.518367 0.326341 0.469650 0.177969
C184  C     C_R   0.481674 0.326419 0.530623 0.177909
C185  C     C_R   0.017534 0.866063 0.467659 0.131230
C186  C     C_R   0.982596 0.866139 0.532650 0.131254
C187  C     C_R   0.517534 0.366063 0.467660 0.131227
C188  C     C_R   0.482596 0.366140 0.532650 0.131257
C189  C     C_R   0.000040 0.885714 0.500080 -0.129629
C190  C     C_R   0.500040 0.385714 0.500080 -0.129630
C191  C     C_R   0.908143 0.973597 0.091354 0.109906
C192  C     C_R   0.093166 0.973216 0.906126 0.107001
C193  C     C_R   0.408144 0.473594 0.091353 0.109905
C194  C     C_R   0.593168 0.473220 0.906126 0.107001
C195  C     C_R   0.999996 0.807093 0.500120 0.012024
C196  C     C_R   0.499995 0.307093 0.500119 0.012025
C197  C     C_R   0.878854 0.954920 0.031158 0.023427
C198  C     C_R   0.122620 0.954623 0.966018 0.015386
C199  C     C_R   0.378856 0.454916 0.031156 0.023424
C200  C     C_R   0.622623 0.454628 0.966019 0.015387
C201  C     C_R   0.885332 0.919573 0.009248 0.116264
C202  C     C_R   0.116099 0.920070 0.990232 0.116708
C203  C     C_R   0.385335 0.419569 0.009249 0.116267
C204  C     C_R   0.616103 0.420076 0.990234 0.116705
C205  C     C_R   0.977043 0.973618 0.260102 0.125497
C206  C     C_R   0.023061 0.973556 0.739932 0.127707
C207  C     C_R   0.477043 0.473617 0.260102 0.125494
C208  C     C_R   0.523062 0.473557 0.739933 0.127711
H1    H     H_    0.051218 0.189754 0.601430 0.157188
H2    H     H_    0.948571 0.189730 0.398678 0.157231
H3    H     H_    0.551219 0.689751 0.601447 0.157178
H4    H     H_    0.448569 0.689734 0.398701 0.157223
O1    O     O_R   0.055440 0.968710 0.055440 -0.614879
O2    O     O_R   0.944560 0.968710 0.944560 -0.614331
O3    O     O_R   0.555440 0.468710 0.055440 -0.614880
O4    O     O_R   0.444560 0.468710 0.944560 -0.614331
O5    O     O_R   0.444560 0.999900 0.496290 -0.608477
O6    O     O_R   0.555440 0.999900 0.503710 -0.608205
O7    O     O_R   0.944560 0.499900 0.496290 -0.608477
O8    O     O_R   0.055440 0.499900 0.503710 -0.608205
O9    O     O_R   0.444560 0.999880 0.392840 -0.617173
O10   O     O_R   0.555440 0.999880 0.607160 -0.617282
O11   O     O_R   0.944560 0.499880 0.392840 -0.617174
O12   O     O_R   0.055440 0.499880 0.607160 -0.617281
O13   O     O_R   0.500000 0.944470 0.551750 -0.618874
O14   O     O_R   0.500000 0.944470 0.448250 -0.618849
O15   O     O_R   0.000000 0.444470 0.551750 -0.618874
O16   O     O_R   0.000000 0.444470 0.448250 -0.618847
O17   O     O_R   0.055440 0.031290 0.055450 -0.620028
O18   O     O_R   0.944560 0.031290 0.944550 -0.619379
O19   O     O_R   0.555440 0.531290 0.055450 -0.620027
O20   O     O_R   0.444560 0.531290 0.944550 -0.619381
O21   O     O_R   0.000000 0.968710 0.091620 -0.622590
O22   O     O_R   0.000000 0.968710 0.908380 -0.624031
O23   O     O_R   0.500000 0.468710 0.091620 -0.622590
O24   O     O_R   0.500000 0.468710 0.908380 -0.624032
O25   O     O_R   0.000000 0.031290 0.091630 -0.621946
O26   O     O_R   0.000000 0.031290 0.908370 -0.620007
O27   O     O_R   0.500000 0.531290 0.091630 -0.621945
O28   O     O_R   0.500000 0.531290 0.908370 -0.620007
O29   O     O_R   0.968720 0.055450 0.468730 -0.608900
O30   O     O_R   0.031280 0.055450 0.531270 -0.608851
O31   O     O_R   0.468720 0.555450 0.468730 -0.608897
O32   O     O_R   0.531280 0.555450 0.531270 -0.608850
O33   O     O_R   0.968700 0.000020 0.377090 -0.610018
O34   O     O_R   0.031300 0.000020 0.622910 -0.608442
O35   O     O_R   0.468700 0.500020 0.377090 -0.610019
O36   O     O_R   0.531300 0.500020 0.622910 -0.608442
O37   O     O_R   0.031300 0.000000 0.439680 -0.630703
O38   O     O_R   0.968700 0.000000 0.560320 -0.630541
O39   O     O_R   0.531300 0.500000 0.439680 -0.630709
O40   O     O_R   0.468700 0.500000 0.560320 -0.630539
O41   O     O_R   0.968690 0.944590 0.468690 -0.615908
O42   O     O_R   0.031310 0.944590 0.531310 -0.617028
O43   O     O_R   0.468690 0.444590 0.468690 -0.615908
O44   O     O_R   0.531310 0.444590 0.531310 -0.617029
O45   O     O_R   0.500000 0.055330 0.551710 -0.610246
O46   O     O_R   0.500000 0.055330 0.448290 -0.610066
O47   O     O_R   0.000000 0.555330 0.551710 -0.610246
O48   O     O_R   0.000000 0.555330 0.448290 -0.610066
Zn1   Zn    Zn3+2 0.000000 0.958210 0.000000 0.973264
Zn2   Zn    Zn3+2 0.500000 0.458210 0.000000 0.973264
Zn3   Zn    Zn3+2 1.000000 0.041790 0.000000 0.940051
Zn4   Zn    Zn3+2 0.500000 0.541790 0.000000 0.940053
Zn5   Zn    Zn3+2 0.958200 0.000020 0.458210 0.975612
Zn6   Zn    Zn3+2 0.041800 0.000020 0.541790 0.975812
Zn7   Zn    Zn3+2 0.458200 0.500020 0.458210 0.975614
Zn8   Zn    Zn3+2 0.541800 0.500020 0.541790 0.975813
Zn9   Zn    Zn3+2 0.500000 0.999910 0.569080 0.967090
Zn10  Zn    Zn3+2 0.500000 0.999910 0.430920 0.967121
Zn11  Zn    Zn3+2 0.000000 0.499910 0.569080 0.967090
Zn12  Zn    Zn3+2 0.000000 0.499910 0.430920 0.967121
C209  C     C_3   0.853614 0.900719 0.943440 -0.862643
H5    H     H_    0.861714 0.873776 0.929282 0.247398
H6    H     H_    0.829866 0.894867 0.952376 0.244567
H7    H     H_    0.843647 0.919657 0.896641 0.246929
C210  C     C_3   0.148160 0.901411 0.055773 -0.861526
H8    H     H_    0.139998 0.875190 0.072025 0.247627
H9    H     H_    0.171115 0.894344 0.045173 0.243941
H10   H     H_    0.159260 0.920999 0.101838 0.245953
C211  C     C_3   0.353619 0.400713 0.943442 -0.862647
H11   H     H_    0.361719 0.373771 0.929286 0.247398
H12   H     H_    0.329870 0.394862 0.952376 0.244568
H13   H     H_    0.343652 0.419651 0.896641 0.246929
C212  C     C_3   0.648166 0.401417 0.055775 -0.861526
H14   H     H_    0.640006 0.375197 0.072030 0.247627
H15   H     H_    0.671121 0.394351 0.045174 0.243941
H16   H     H_    0.659267 0.421006 0.101839 0.245952
C213  C     C_3   0.125031 0.124519 0.537520 -0.860975
H17   H     H_    0.152320 0.128033 0.539605 0.242245
H18   H     H_    0.113485 0.152920 0.534987 0.245633
H19   H     H_    0.130250 0.111760 0.588498 0.250143
C214  C     C_3   0.874077 0.123623 0.461910 -0.860798
H20   H     H_    0.846794 0.126990 0.459911 0.242210
H21   H     H_    0.885427 0.152091 0.464218 0.245605
H22   H     H_    0.868888 0.110817 0.410981 0.250102
C215  C     C_3   0.625056 0.624559 0.537434 -0.860976
H23   H     H_    0.652349 0.628029 0.539520 0.242237
H24   H     H_    0.613538 0.652980 0.534846 0.245621
H25   H     H_    0.630264 0.611837 0.588432 0.250142
C216  C     C_3   0.374045 0.623611 0.461918 -0.860798
H26   H     H_    0.346765 0.626967 0.459931 0.242209
H27   H     H_    0.385385 0.652084 0.464226 0.245603
H28   H     H_    0.368854 0.610810 0.410983 0.250104
C217  C     C_3   0.054932 0.153071 0.412034 -0.879063
H29   H     H_    0.028977 0.161244 0.362414 0.247447
H30   H     H_    0.051023 0.160999 0.457154 0.253805
H31   H     H_    0.077870 0.170258 0.413820 0.241876
C218  C     C_3   0.944203 0.152536 0.586825 -0.878967
H32   H     H_    0.970211 0.160846 0.636214 0.247501
H33   H     H_    0.947923 0.160377 0.541446 0.253661
H34   H     H_    0.921266 0.169688 0.585159 0.241817
C219  C     C_3   0.554898 0.653077 0.412038 -0.879114
H35   H     H_    0.528893 0.661231 0.362509 0.247472
H36   H     H_    0.551071 0.661008 0.457249 0.253787
H37   H     H_    0.577786 0.670277 0.413669 0.241865
C220  C     C_3   0.444184 0.652527 0.586797 -0.878975
H38   H     H_    0.470202 0.660838 0.636164 0.247508
H39   H     H_    0.447884 0.660369 0.541396 0.253652
H40   H     H_    0.421255 0.669680 0.585163 0.241813
C221  C     C_3   0.002660 0.098688 0.303338 -0.883845
H41   H     H_    0.984478 0.075725 0.268519 0.243855
H42   H     H_    0.986811 0.112282 0.325967 0.245825
H43   H     H_    0.006539 0.118947 0.268647 0.245154
C222  C     C_3   0.996790 0.098474 0.695892 -0.884031
H44   H     H_    0.015077 0.075627 0.730945 0.241432
H45   H     H_    0.012541 0.111993 0.672998 0.245705
H46   H     H_    0.992885 0.118843 0.730409 0.245573
C223  C     C_3   0.502645 0.598686 0.303328 -0.883831
H47   H     H_    0.484480 0.575725 0.268461 0.243854
H48   H     H_    0.486779 0.612238 0.325961 0.245788
H49   H     H_    0.506518 0.618978 0.268676 0.245174
C224  C     C_3   0.496780 0.598473 0.695868 -0.884053
H50   H     H_    0.515068 0.575629 0.730930 0.241433
H51   H     H_    0.512528 0.611985 0.672964 0.245694
H52   H     H_    0.492876 0.618847 0.730378 0.245582
C225  C     C_3   0.304417 0.045157 0.221910 -0.889993
H53   H     H_    0.276057 0.033907 0.184204 0.249628
H54   H     H_    0.301472 0.074128 0.237589 0.240783
H55   H     H_    0.319296 0.046160 0.191291 0.249508
C226  C     C_3   0.695941 0.046871 0.775049 -0.889568
H56   H     H_    0.724642 0.036198 0.812128 0.249317
H57   H     H_    0.698098 0.075820 0.758251 0.241026
H58   H     H_    0.681661 0.047773 0.806771 0.249215
C227  C     C_3   0.804416 0.545157 0.221911 -0.889990
H59   H     H_    0.776057 0.533907 0.184206 0.249628
H60   H     H_    0.801472 0.574128 0.237589 0.240783
H61   H     H_    0.819295 0.546159 0.191291 0.249508
C228  C     C_3   0.195941 0.546869 0.775052 -0.889569
H62   H     H_    0.224641 0.536195 0.812131 0.249318
H63   H     H_    0.198099 0.575818 0.758254 0.241025
H64   H     H_    0.181660 0.547771 0.806773 0.249214
C229  C     C_3   0.385099 0.056465 0.316341 -0.838700
H65   H     H_    0.413361 0.062799 0.362403 0.235337
H66   H     H_    0.387775 0.049493 0.269227 0.244902
H67   H     H_    0.368978 0.083027 0.305945 0.240602
C230  C     C_3   0.614914 0.056892 0.682894 -0.839755
H68   H     H_    0.586316 0.062744 0.637494 0.235856
H69   H     H_    0.613009 0.050099 0.730909 0.244754
H70   H     H_    0.630546 0.083669 0.691962 0.240722
C231  C     C_3   0.885099 0.556465 0.316339 -0.838701
H71   H     H_    0.913361 0.562799 0.362402 0.235338
H72   H     H_    0.887775 0.549492 0.269226 0.244902
H73   H     H_    0.868978 0.583027 0.305943 0.240603
C232  C     C_3   0.114914 0.556891 0.682895 -0.839756
H74   H     H_    0.086316 0.562744 0.637494 0.235856
H75   H     H_    0.113009 0.550098 0.730908 0.244755
H76   H     H_    0.130547 0.583668 0.691964 0.240722
C233  C     C_3   0.388785 0.943902 0.466510 -0.824896
H77   H     H_    0.371609 0.920142 0.467260 0.237374
H78   H     H_    0.411777 0.931053 0.461297 0.221238
H79   H     H_    0.400911 0.958601 0.518726 0.258140
C234  C     C_3   0.611197 0.943709 0.533871 -0.824937
H80   H     H_    0.628433 0.919844 0.533678 0.237389
H81   H     H_    0.588347 0.931026 0.539710 0.220648
H82   H     H_    0.598874 0.957986 0.481221 0.258064
C235  C     C_3   0.888785 0.443902 0.466512 -0.824896
H83   H     H_    0.871609 0.420143 0.467262 0.237374
H84   H     H_    0.911777 0.431053 0.461299 0.221239
H85   H     H_    0.900910 0.458602 0.518728 0.258139
C236  C     C_3   0.111197 0.443708 0.533872 -0.824938
H86   H     H_    0.128432 0.419843 0.533678 0.237390
H87   H     H_    0.088347 0.431025 0.539711 0.220648
H88   H     H_    0.098874 0.457985 0.481222 0.258064
C237  C     C_1   0.306849 0.945462 0.388174 0.195865
N1    N     N_1   0.290836 0.925194 0.405198 -0.179986
C238  C     C_1   0.693044 0.946298 0.609736 0.195895
N2    N     N_1   0.708962 0.926084 0.592383 -0.179793
C239  C     C_1   0.806849 0.445463 0.388177 0.195866
N3    N     N_1   0.790836 0.425196 0.405202 -0.179986
C240  C     C_1   0.193043 0.446297 0.609737 0.195896
N4    N     N_1   0.208962 0.426082 0.592385 -0.179793
C241  C     C_3   0.198242 0.061611 0.150909 -0.895134
H89   H     H_    0.183930 0.088697 0.147212 0.246961
H90   H     H_    0.226439 0.064048 0.199428 0.243051
H91   H     H_    0.201732 0.058321 0.103699 0.249808
C242  C     C_3   0.802003 0.062788 0.845964 -0.896845
H92   H     H_    0.817271 0.089640 0.853052 0.247515
H93   H     H_    0.774586 0.066223 0.795885 0.243046
H94   H     H_    0.796886 0.058813 0.891094 0.249552
C243  C     C_3   0.698242 0.561612 0.150913 -0.895135
H95   H     H_    0.683929 0.588697 0.147216 0.246962
H96   H     H_    0.726439 0.564049 0.199432 0.243052
H97   H     H_    0.701732 0.558322 0.103703 0.249810
C244  C     C_3   0.302003 0.562789 0.845962 -0.896846
H98   H     H_    0.317269 0.589641 0.853039 0.247514
H99   H     H_    0.274583 0.566220 0.795887 0.243047
H100  H     H_    0.296890 0.558817 0.891098 0.249550
C245  C     C_3   0.117036 0.056494 0.048417 -0.859348
H101  H     H_    0.136295 0.068507 0.032019 0.237419
H102  H     H_    0.094130 0.043080 0.999496 0.241196
H103  H     H_    0.105350 0.079848 0.065233 0.254973
C246  C     C_3   0.882326 0.055854 0.951933 -0.854213
H104  H     H_    0.862882 0.065366 0.969975 0.240908
H105  H     H_    0.906073 0.042607 0.999677 0.243276
H106  H     H_    0.892579 0.080725 0.935831 0.251070
C247  C     C_3   0.617036 0.556494 0.048419 -0.859345
H107  H     H_    0.636295 0.568507 0.032021 0.237418
H108  H     H_    0.594130 0.543080 0.999497 0.241196
H109  H     H_    0.605350 0.579848 0.065234 0.254973
C248  C     C_3   0.382327 0.555857 0.951928 -0.854211
H110  H     H_    0.362883 0.565375 0.969964 0.240904
H111  H     H_    0.406071 0.542608 0.999676 0.243274
H112  H     H_    0.392585 0.580723 0.935827 0.251075
C249  C     C_3   0.109978 0.945387 0.191183 -0.802557
H113  H     H_    0.126631 0.931875 0.244312 0.233871
H114  H     H_    0.086721 0.960299 0.192643 0.229525
H115  H     H_    0.098421 0.922780 0.150233 0.261134
C250  C     C_3   0.890324 0.945498 0.808406 -0.804017
H116  H     H_    0.873899 0.931812 0.755404 0.234141
H117  H     H_    0.913805 0.960187 0.807412 0.230794
H118  H     H_    0.901591 0.923009 0.849607 0.261272
C251  C     C_3   0.609978 0.445387 0.191183 -0.802553
H119  H     H_    0.626631 0.431875 0.244313 0.233870
H120  H     H_    0.586720 0.460299 0.192643 0.229526
H121  H     H_    0.598421 0.422780 0.150233 0.261134
C252  C     C_3   0.390324 0.445496 0.808408 -0.804024
H122  H     H_    0.373898 0.431810 0.755406 0.234141
H123  H     H_    0.413804 0.460184 0.807414 0.230796
H124  H     H_    0.401591 0.423008 0.849611 0.261272
C253  C     C_1   0.928175 0.865679 0.029250 0.175796
N5    N     N_1   0.934023 0.836572 0.012935 -0.192062
C254  C     C_1   0.072895 0.867277 0.974429 0.175521
N6    N     N_1   0.067034 0.838651 0.992336 -0.192733
C255  C     C_1   0.428179 0.365675 0.029257 0.175794
N7    N     N_1   0.434029 0.336568 0.012944 -0.192062
C256  C     C_1   0.572902 0.367281 0.974437 0.175522
N8    N     N_1   0.567043 0.338655 0.992346 -0.192734
C257  C     C_1   0.191482 0.941250 0.264286 0.189491
N9    N     N_1   0.206594 0.916874 0.304086 -0.177943
C258  C     C_1   0.808651 0.942578 0.732116 0.189111
N10   N     N_1   0.793518 0.918484 0.691617 -0.178141
C259  C     C_1   0.691482 0.441251 0.264289 0.189493
N11   N     N_1   0.706593 0.416875 0.304090 -0.177944
C260  C     C_1   0.308651 0.442576 0.732121 0.189109
N12   N     N_1   0.293517 0.418481 0.691624 -0.178141
C261  C     C_1   0.549912 0.804984 0.627006 0.180183
N13   N     N_1   0.569695 0.788003 0.678039 -0.207167
C262  C     C_1   0.449872 0.805024 0.373030 0.180217
N14   N     N_1   0.430052 0.788057 0.322007 -0.207197
C263  C     C_1   0.049909 0.304980 0.626993 0.180182
N15   N     N_1   0.069692 0.287998 0.678024 -0.207169
C264  C     C_1   0.949869 0.305027 0.373017 0.180219
N16   N     N_1   0.930049 0.288062 0.321992 -0.207194
C265  C     C_3   0.553516 0.887104 0.630159 -0.834951
H125  H     H_    0.576258 0.869164 0.670898 0.239100
H126  H     H_    0.567684 0.909393 0.616638 0.224391
H127  H     H_    0.538605 0.900080 0.655395 0.257367
C266  C     C_3   0.446354 0.887163 0.369918 -0.835109
H128  H     H_    0.423610 0.869241 0.329155 0.239145
H129  H     H_    0.432195 0.909431 0.383543 0.224463
H130  H     H_    0.461239 0.900166 0.344669 0.257388
C267  C     C_3   0.053514 0.387101 0.630156 -0.834955
H131  H     H_    0.076254 0.369159 0.670895 0.239101
H132  H     H_    0.067683 0.409389 0.616638 0.224393
H133  H     H_    0.038602 0.400078 0.655390 0.257367
C268  C     C_3   0.946351 0.387166 0.369916 -0.835104
H134  H     H_    0.923606 0.369246 0.329152 0.239144
H135  H     H_    0.932194 0.409435 0.383543 0.224461
H136  H     H_    0.961235 0.400169 0.344664 0.257387
C269  C     C_1   0.060400 0.116665 0.618547 0.183324
N17   N     N_1   0.085167 0.102028 0.667395 -0.196542
C270  C     C_1   0.939493 0.116645 0.381525 0.183766
N18   N     N_1   0.914727 0.102002 0.332697 -0.196856
C271  C     C_1   0.560405 0.616663 0.618548 0.183320
N19   N     N_1   0.585174 0.602024 0.667390 -0.196521
C272  C     C_1   0.439485 0.616649 0.381547 0.183744
N20   N     N_1   0.414714 0.602008 0.332723 -0.196855
C273  C     C_3   0.560221 0.195615 0.496117 -0.887610
H137  H     H_    0.581954 0.177846 0.494911 0.249744
H138  H     H_    0.547666 0.213497 0.447429 0.243601
H139  H     H_    0.574669 0.213928 0.544104 0.240380
C274  C     C_3   0.439719 0.195596 0.504042 -0.887359
H140  H     H_    0.418002 0.177819 0.505255 0.249766
H141  H     H_    0.452269 0.213473 0.552738 0.243490
H142  H     H_    0.425255 0.213916 0.456067 0.240469
C275  C     C_3   0.060221 0.695615 0.496117 -0.887611
H143  H     H_    0.081955 0.677846 0.494912 0.249745
H144  H     H_    0.047667 0.713496 0.447430 0.243602
H145  H     H_    0.074669 0.713928 0.544104 0.240381
C276  C     C_3   0.939720 0.695596 0.504042 -0.887357
H146  H     H_    0.918002 0.677820 0.505255 0.249766
H147  H     H_    0.952269 0.713473 0.552738 0.243489
H148  H     H_    0.925255 0.713916 0.456067 0.240469
C277  C     C_1   0.559940 0.112899 0.499920 0.181758
N21   N     N_1   0.584306 0.096176 0.500986 -0.196409
C278  C     C_1   0.440023 0.112880 0.500088 0.181652
N22   N     N_1   0.415660 0.096150 0.498987 -0.196545
C279  C     C_1   0.059940 0.612899 0.499920 0.181757
N23   N     N_1   0.084306 0.596176 0.500986 -0.196410
C280  C     C_1   0.940023 0.612880 0.500088 0.181652
N24   N     N_1   0.915660 0.596150 0.498987 -0.196545
C281  C     C_3   0.038300 0.803543 0.439252 -0.873904
H149  H     H_    0.053008 0.820483 0.418148 0.251388
H150  H     H_    0.059917 0.785332 0.481875 0.238954
H151  H     H_    0.017588 0.785483 0.394944 0.240531
C282  C     C_3   0.961708 0.803711 0.561034 -0.874305
H152  H     H_    0.946975 0.820725 0.582009 0.251249
H153  H     H_    0.940099 0.785481 0.518452 0.239114
H154  H     H_    0.982402 0.785672 0.605420 0.240422
C283  C     C_3   0.538300 0.303543 0.439252 -0.873909
H155  H     H_    0.553008 0.320483 0.418150 0.251389
H156  H     H_    0.559917 0.285332 0.481876 0.238955
H157  H     H_    0.517588 0.285483 0.394944 0.240532
C284  C     C_3   0.461707 0.303711 0.561033 -0.874305
H158  H     H_    0.446973 0.320725 0.582006 0.251248
H159  H     H_    0.440098 0.285481 0.518450 0.239114
H160  H     H_    0.482400 0.285673 0.605418 0.240422
C285  C     C_3   0.034438 0.886867 0.429270 -0.876022
H161  H     H_    0.021518 0.876525 0.373385 0.245288
H162  H     H_    0.029769 0.917605 0.425043 0.232474
H163  H     H_    0.065304 0.882235 0.457748 0.250407
C286  C     C_3   0.965909 0.887030 0.571359 -0.875359
H164  H     H_    0.978831 0.876578 0.627173 0.244977
H165  H     H_    0.970812 0.917731 0.575855 0.232044
H166  H     H_    0.935014 0.882618 0.542976 0.250278
C287  C     C_3   0.534438 0.386867 0.429271 -0.876021
H167  H     H_    0.521519 0.376525 0.373386 0.245289
H168  H     H_    0.529770 0.417604 0.425044 0.232475
H169  H     H_    0.565305 0.382235 0.457750 0.250406
C288  C     C_3   0.465909 0.387030 0.571359 -0.875361
H170  H     H_    0.478831 0.376577 0.627172 0.244978
H171  H     H_    0.470813 0.417731 0.575858 0.232042
H172  H     H_    0.435015 0.382619 0.542976 0.250277
C289  C     C_1   0.985520 0.901272 0.154987 0.213795
N25   N     N_1   0.014094 0.886364 0.190027 -0.201725
C290  C     C_1   0.015084 0.902164 0.848399 0.216242
N26   N     N_1   0.986397 0.887264 0.814537 -0.201916
C291  C     C_1   0.485523 0.401271 0.154992 0.213794
N27   N     N_1   0.514097 0.386364 0.190034 -0.201725
C292  C     C_1   0.515089 0.402165 0.848406 0.216247
N28   N     N_1   0.486403 0.387264 0.814545 -0.201916
C293  C     C_3   0.901820 0.011463 0.116082 -0.895052
H173  H     H_    0.923389 0.031907 0.121200 0.234478
H174  H     H_    0.873976 0.023997 0.079208 0.247155
H175  H     H_    0.904109 0.008349 0.169024 0.257317
C294  C     C_3   0.101516 0.009362 0.879386 -0.883415
H176  H     H_    0.075986 0.024615 0.839578 0.245554
H177  H     H_    0.117648 0.029149 0.924152 0.239492
H178  H     H_    0.118681 0.002692 0.854599 0.249837
C295  C     C_3   0.401819 0.511460 0.116077 -0.895049
H179  H     H_    0.423390 0.531904 0.121201 0.234471
H180  H     H_    0.373976 0.523995 0.079199 0.247156
H181  H     H_    0.404106 0.508346 0.169017 0.257316
C296  C     C_3   0.601515 0.509367 0.879385 -0.883413
H182  H     H_    0.575985 0.524619 0.839576 0.245555
H183  H     H_    0.617647 0.529154 0.924149 0.239490
H184  H     H_    0.618681 0.502697 0.854597 0.249837
C297  C     C_1   0.841555 0.971325 0.992467 0.185914
N29   N     N_1   0.811715 0.984274 0.961654 -0.211419
C298  C     C_1   0.160023 0.970923 0.002637 0.191039
N30   N     N_1   0.189882 0.983868 0.031826 -0.208987
C299  C     C_1   0.341556 0.471321 0.992463 0.185911
N31   N     N_1   0.311716 0.484269 0.961648 -0.211413
C300  C     C_1   0.660025 0.470930 0.002635 0.191042
N32   N     N_1   0.689884 0.483876 0.031821 -0.208990
C301  C     C_3   0.952442 0.945771 0.271281 -0.828861
H185  H     H_    0.942981 0.921976 0.233031 0.231402
H186  H     H_    0.968269 0.932802 0.325098 0.230634
H187  H     H_    0.927195 0.960263 0.265384 0.253325
C302  C     C_3   0.047933 0.945909 0.729141 -0.815692
H188  H     H_    0.055991 0.921380 0.765580 0.228715
H189  H     H_    0.032963 0.933916 0.674413 0.229034
H190  H     H_    0.073917 0.960292 0.738452 0.255843
C303  C     C_3   0.452442 0.445771 0.271282 -0.828862
H191  H     H_    0.442980 0.421976 0.233031 0.231403
H192  H     H_    0.468270 0.432801 0.325099 0.230633
H193  H     H_    0.427195 0.460263 0.265386 0.253325
C304  C     C_3   0.547936 0.445911 0.729144 -0.815690
H194  H     H_    0.555996 0.421383 0.765585 0.228715
H195  H     H_    0.532965 0.433916 0.674417 0.229034
H196  H     H_    0.573918 0.460296 0.738451 0.255844
C305  C     C_3   0.057213 0.043192 0.236233 -0.835426
H197  H     H_    0.081010 0.053259 0.287635 0.233175
H198  H     H_    0.069871 0.025561 0.211631 0.222387
H199  H     H_    0.043665 0.068280 0.202340 0.257520
C306  C     C_3   0.942666 0.042788 0.763792 -0.834335
H200  H     H_    0.918733 0.052632 0.712351 0.232948
H201  H     H_    0.930208 0.025153 0.788739 0.222390
H202  H     H_    0.956076 0.068007 0.797358 0.257632
C307  C     C_3   0.557214 0.543191 0.236232 -0.835407
H203  H     H_    0.581012 0.553257 0.287634 0.233174
H204  H     H_    0.569871 0.525560 0.211628 0.222387
H205  H     H_    0.543666 0.568280 0.202342 0.257525
C308  C     C_3   0.442664 0.542784 0.763792 -0.834336
H206  H     H_    0.418731 0.552627 0.712350 0.232948
H207  H     H_    0.430207 0.525149 0.788740 0.222388
H208  H     H_    0.456073 0.568005 0.797356 0.257633
C309  C     C_3   0.102202 0.996856 0.417103 -0.846797
H209  H     H_    0.130921 0.990438 0.461458 0.238479
H210  H     H_    0.083110 0.975342 0.418476 0.254730
H211  H     H_    0.102602 0.993492 0.366611 0.240100
C310  C     C_3   0.897796 0.996118 0.583150 -0.846505
H212  H     H_    0.869094 0.989535 0.538922 0.238576
H213  H     H_    0.917003 0.974742 0.581738 0.254638
H214  H     H_    0.897504 0.992717 0.633740 0.240231
C311  C     C_3   0.602206 0.496865 0.417110 -0.846764
H215  H     H_    0.630928 0.490451 0.461463 0.238472
H216  H     H_    0.583118 0.475351 0.418496 0.254730
H217  H     H_    0.602602 0.493494 0.366614 0.240097
C312  C     C_3   0.397798 0.496104 0.583160 -0.846505
H218  H     H_    0.369095 0.489517 0.538937 0.238578
H219  H     H_    0.417006 0.474732 0.581743 0.254635
H220  H     H_    0.397510 0.492701 0.633754 0.240235
C313  C     C_1   0.147296 0.048800 0.535346 0.184260
N33   N     N_1   0.175935 0.038879 0.582414 -0.200103
C314  C     C_1   0.852242 0.047831 0.464775 0.184262
N34   N     N_1   0.823618 0.037759 0.417885 -0.199742
C315  C     C_1   0.647309 0.548829 0.535315 0.184279
N35   N     N_1   0.675954 0.538913 0.582381 -0.200096
C316  C     C_1   0.352227 0.547814 0.464791 0.184267
N36   N     N_1   0.323601 0.537739 0.417910 -0.199740

loop_
_geom_bond_atom_site_label_1
_geom_bond_atom_site_label_2
_ccdc_geom_bond_type
C99   C103  A    
O19   Zn4   S    
C133  C137  A    
C230  H68   S    
C55   C59   A    
C223  H48   S    
C293  H173  S    
C139  C267  S    
O3    Zn2   S    
C104  C108  A    
C136  C140  A    
C293  H174  S    
C145  C148  T    
C225  H53   S    
C175  C177  S    
C179  C195  S    
C294  H176  S    
C199  C299  S    
C211  H13   S    
C135  C139  A    
C150  C163  A    
C84   C112  S    
C119  C189  S    
C4    O20   A    
C86   C110  A    
O31   Zn7   S    
C237  N1    T    
C26   C50   A    
C26   C310  S    
C139  C142  A    
C118  O36   A    
C252  H124  S    
C215  H23   S    
C3    O3    A    
C29   C33   A    
C100  C104  A    
C209  H7    S    
C303  H191  S    
C247  H107  S    
C149  C153  A    
C31   C315  S    
C235  H85   S    
C305  H198  S    
C134  C143  A    
C54   C74   A    
C241  H89   S    
C89   C253  S    
O22   Zn1   S    
C121  C173  S    
C12   C16   A    
C27   C51   A    
C295  H180  S    
C70   C74   A    
C192  C198  A    
C297  N29   T    
C180  C196  S    
C210  H9    S    
C121  O46   A    
C233  H79   S    
C108  C260  S    
C306  H201  S    
O44   Zn8   S    
C310  H213  S    
C155  C158  A    
C101  C105  A    
C21   C159  S    
O26   Zn3   S    
C41   C49   A    
C229  H66   S    
C126  O8    A    
C47   O23   A    
C25   C29   A    
C231  H73   S    
C27   C31   A    
C264  N16   T    
C28   C32   A    
C234  H82   S    
C282  H153  S    
C62   C66   A    
C96   C248  S    
C167  C171  A    
C266  H128  S    
C299  N31   T    
C138  C141  A    
C17   C21   A    
C267  H133  S    
C220  H40   S    
C92   C130  A    
C172  C280  S    
C282  H154  S    
C78   C82   T    
O40   Zn7   S    
C68   C72   A    
C301  H187  S    
C183  C196  A    
C166  C175  A    
C227  H61   S    
C6    C116  S    
C63   C125  S    
C184  C284  S    
C25   C309  S    
C194  C296  S    
C124  O10   A    
C2    O2    A    
C230  H70   S    
C274  H141  S    
O16   Zn12  S    
C236  H86   S    
C293  H175  S    
O29   Zn5   S    
C140  C268  S    
C244  H100  S    
C288  H170  S    
C90   C254  S    
C32   C316  S    
C238  N2    T    
C197  C297  S    
C225  H55   S    
O21   Zn1   S    
C146  C147  T    
C89   C127  A    
C216  H28   S    
O42   Zn6   S    
C23   C207  A    
O33   Zn5   S    
O38   Zn5   S    
C140  C142  A    
C167  C275  S    
C66   C234  S    
C57   C61   A    
C91   C129  A    
C28   C312  S    
C94   C246  S    
C311  H215  S    
C59   C63   A    
C186  C286  S    
C135  C263  S    
C60   C64   A    
C242  H93   S    
C208  C304  S    
C211  H11   S    
C212  H15   S    
C312  H218  S    
O14   Zn10  S    
C66   C70   A    
C307  H203  S    
C156  C158  A    
C249  H115  S    
C104  C252  S    
O7    Zn11  S    
C302  H188  S    
O8    Zn12  S    
C45   O25   A    
C276  H147  S    
C61   C65   A    
C122  O47   A    
C268  H135  S    
C221  H41   S    
C222  H44   S    
C107  C259  S    
C73   C77   S    
C103  C107  A    
C281  H150  S    
C245  H101  S    
C244  H98   S    
C75   C79   S    
C42   C222  S    
C201  C209  S    
C90   C202  A    
C26   C30   A    
C114  O32   A    
C228  H62   S    
C4    O4    A    
C85   C241  S    
C222  H46   S    
C37   C217  S    
C7    C117  S    
O2    Zn1   S    
C129  C291  S    
C273  H137  S    
C265  H127  S    
C62   C124  S    
C178  C179  T    
O32   Zn8   S    
C36   C216  S    
C296  H182  S    
C5    C9    A    
C123  O9    A    
C214  H20   S    
C150  H2    S    
C59   C231  S    
C17   C45   S    
C64   C68   A    
C19   C47   S    
C219  H36   S    
C314  N34   T    
C304  H196  S    
C22   C206  A    
C188  C190  A    
C222  H45   S    
C9    C13   A    
C87   C243  S    
C85   C93   A    
C194  C200  A    
C217  H30   S    
C87   C95   A    
C198  C202  A    
C236  H88   S    
C275  H144  S    
C301  H185  S    
C106  C258  S    
C131  C141  S    
C200  C204  A    
C169  C277  S    
O35   Zn7   S    
C130  C162  A    
C176  C178  S    
C55   C227  S    
C276  H146  S    
C5    C115  S    
C215  H24   S    
C156  C272  S    
C255  N7    T    
C11   C15   A    
O28   Zn4   S    
C181  C195  A    
C70   C238  S    
C247  H108  S    
C172  C174  A    
C213  H17   S    
C226  H57   S    
C311  H217  S    
C30   C34   A    
C129  C161  A    
C148  C164  S    
C152  C156  A    
C9    C49   S    
C188  C288  S    
C7    C207  A    
C10   C14   A    
C232  H76   S    
C3    O19   A    
C252  H123  S    
C301  H186  S    
C122  C174  S    
C210  H10   S    
O1    Zn1   S    
C307  H205  S    
C302  H190  S    
C63   C67   A    
C165  C273  S    
C271  N19   T    
C283  H156  S    
C270  N18   T    
C306  H200  S    
C8    C12   A    
C221  H43   S    
C269  N17   T    
C161  C193  A    
C295  H179  S    
C48   O24   A    
C245  H103  S    
C105  C257  S    
C273  H138  S    
C198  C298  S    
C42   C50   A    
C47   O27   A    
C44   C224  S    
C116  O34   A    
C166  C170  A    
C228  H64   S    
C151  C155  A    
C45   O21   A    
C286  H166  S    
O45   Zn9   S    
C228  H63   S    
C280  N24   T    
C39   C219  S    
C119  O42   A    
C93   C97   A    
C309  H211  S    
O47   Zn11  S    
C306  H202  S    
C168  C176  A    
C261  N13   T    
C29   C313  S    
O20   Zn4   S    
C18   C22   A    
C107  C111  A    
C76   C80   S    
C183  C283  S    
C32   C36   A    
C202  C210  S    
C185  C189  A    
C115  O37   A    
C287  H168  S    
C154  C270  S    
C13   C17   A    
C61   C123  S    
C113  C157  S    
C284  H159  S    
C192  C294  S    
C120  O43   A    
O4    Zn2   S    
C147  C163  S    
C242  H92   S    
C131  O14   A    
C193  C295  S    
C127  C289  S    
C191  C293  S    
C96   C100  A    
C93   C245  S    
C209  H6    S    
O30   Zn6   S    
C37   C41   A    
C235  H84   S    
C2    O18   A    
C300  N32   T    
C3    C99   S    
C40   C44   A    
C181  C281  S    
C246  H105  S    
C257  N9    T    
C284  H160  S    
C137  C265  S    
C272  N20   T    
C169  C173  A    
C41   C221  S    
C182  C195  A    
C103  C251  S    
O34   Zn6   S    
C182  C282  S    
C130  C292  S    
C155  C271  S    
C252  H122  S    
O9    Zn10  S    
C275  H143  S    
C121  O45   A    
C233  H78   S    
C58   C62   A    
C216  H27   S    
C199  C203  A    
C88   C96   A    
O24   Zn2   S    
C246  H104  S    
C185  C285  S    
O25   Zn3   S    
C303  H192  S    
C290  N26   T    
C80   C84   T    
C171  C279  S    
C229  H65   S    
C58   C230  S    
C15   C19   A    
C231  H72   S    
C16   C308  S    
O6    Zn10  S    
C287  H169  S    
C224  H50   S    
C149  H1    S    
C288  H172  S    
C85   C109  A    
C234  H81   S    
C106  C110  A    
C279  N23   T    
C250  H118  S    
C87   C111  A    
C94   C98   A    
C95   C99   A    
C285  H163  S    
C193  C199  A    
C182  C186  A    
C220  H39   S    
C205  C301  S    
C114  C158  S    
C187  C190  A    
C105  C109  A    
C225  H54   S    
O10   Zn9   S    
C213  H19   S    
C251  H120  S    
C71   C239  S    
C54   C226  S    
C69   C73   A    
C227  H60   S    
C92   C204  A    
C282  H152  S    
C308  H208  S    
O17   Zn3   S    
C123  O5    A    
C298  N30   T    
C230  H69   S    
C249  H113  S    
C286  H164  S    
C165  C169  A    
C249  H114  S    
C18   C46   S    
C48   O28   A    
C170  C278  S    
C309  H209  S    
C224  H51   S    
C171  C174  A    
C53   C73   A    
C204  C212  S    
C256  N8    T    
C159  C191  A    
C240  N4    T    
C160  C192  A    
C154  C157  A    
C144  C146  S    
C242  H94   S    
C53   C57   A    
C250  H116  S    
C24   C208  A    
C33   C37   A    
C56   C60   A    
C86   C242  S    
O48   Zn12  S    
C35   C39   A    
C243  H95   S    
C291  N27   T    
C120  C190  S    
C15   C307  S    
C311  H216  S    
C203  C211  S    
C77   C81   T    
C295  H181  S    
C22   C160  S    
C214  H22   S    
O13   Zn9   S    
C20   C48   S    
C151  H3    S    
O36   Zn8   S    
C69   C237  S    
C81   C109  S    
C310  H214  S    
C64   C126  S    
C95   C247  S    
C1    O1    A    
C83   C111  S    
C132  O15   A    
C211  H12   S    
C10   C50   S    
C46   O22   A    
C312  H220  S    
C229  H67   S    
C296  H184  S    
C313  N33   T    
C260  N12   T    
C137  C141  A    
C267  H132  S    
C60   C232  S    
C200  C300  S    
C216  H26   S    
C14   C306  S    
C6    C10   A    
C304  H195  S    
C33   C213  S    
C316  N36   T    
C241  H91   S    
C268  H136  S    
C92   C256  S    
C281  H151  S    
C186  C189  A    
C232  H75   S    
C294  H178  S    
O11   Zn12  S    
C136  C144  A    
C98   C102  A    
O12   Zn11  S    
C79   C83   T    
C223  H49   S    
C43   C51   A    
C219  H35   S    
C116  O38   A    
C65   C69   A    
C67   C235  S    
C67   C71   A    
C248  H110  S    
C153  C157  A    
C56   C228  S    
O46   Zn10  S    
C25   C49   A    
C88   C112  A    
C108  C112  A    
C168  C172  A    
C214  H21   S    
C217  H29   S    
C74   C78   S    
C274  H142  S    
C236  H87   S    
C213  H18   S    
C232  H74   S    
C315  N35   T    
O39   Zn8   S    
C91   C203  A    
C115  O33   A    
C170  C173  A    
C89   C201  A    
C43   C223  S    
C56   C76   A    
C223  H47   S    
C14   C18   A    
C19   C23   A    
C72   C76   A    
C57   C229  S    
C305  H197  S    
C117  O39   A    
C8    C118  S    
C278  N22   T    
C138  C266  S    
C218  H32   S    
C7    C11   A    
C241  H90   S    
C277  N21   T    
C212  H14   S    
O43   Zn7   S    
C82   C110  S    
C303  H193  S    
C218  H34   S    
C38   C42   A    
C212  H16   S    
C183  C187  A    
C312  H219  S    
C177  C180  T    
C126  O12   A    
C244  H99   S    
C246  H106  S    
C13   C305  S    
C8    C208  A    
C281  H149  S    
C21   C205  A    
C302  H189  S    
C184  C196  A    
C86   C94   A    
C265  H126  S    
C65   C233  S    
C20   C24   A    
C221  H42   S    
C289  N25   T    
C136  C264  S    
C197  C201  A    
C149  C163  A    
C206  C302  S    
C245  H102  S    
C283  H155  S    
C248  H112  S    
C16   C20   A    
C251  H121  S    
C114  O31   A    
C248  H111  S    
C133  C261  S    
C259  N11   T    
C38   C218  S    
C119  O41   A    
C243  H96   S    
C224  H52   S    
C294  H177  S    
C184  C188  A    
C30   C314  S    
C250  H117  S    
C132  C142  S    
C35   C215  S    
C124  O6    A    
C305  H199  S    
C133  C143  A    
C6    C206  A    
C296  H183  S    
C36   C40   A    
C267  H131  S    
C268  H134  S    
C1    C97   S    
C292  N28   T    
C181  C185  A    
C219  H37   S    
C39   C43   A    
O41   Zn5   S    
C287  H167  S    
C68   C236  S    
C304  H194  S    
C258  N10   T    
C166  C274  S    
O37   Zn6   S    
C132  O16   A    
C120  O44   A    
C263  N15   T    
C34   C214  S    
C88   C244  S    
C131  O13   A    
C217  H31   S    
C162  C194  A    
C285  H161  S    
C265  H125  S    
C187  C287  S    
C134  C262  S    
C151  C164  A    
C102  C250  S    
C243  H97   S    
C91   C255  S    
C235  H83   S    
C152  C164  A    
C125  O7    A    
O15   Zn11  S    
C135  C144  A    
C113  O30   A    
C113  O29   A    
C4    C100  S    
C215  H25   S    
O27   Zn4   S    
C276  H148  S    
C307  H204  S    
C127  C159  A    
C153  C269  S    
C247  H109  S    
C128  C160  A    
C53   C225  S    
C233  H77   S    
C54   C58   A    
C226  H58   S    
C122  O48   A    
C143  C145  S    
C27   C311  S    
O18   Zn3   S    
C90   C128  A    
C165  C175  A    
C34   C38   A    
C128  C290  S    
C24   C162  S    
C191  C197  A    
C207  C303  S    
C134  C138  A    
C308  H206  S    
C101  C249  S    
C152  H4    S    
O23   Zn2   S    
C283  H157  S    
C231  H71   S    
C12   C52   S    
C117  O35   A    
C310  H212  S    
C210  H8    S    
C275  H145  S    
C274  H140  S    
C266  H129  S    
C286  H165  S    
C168  C276  S    
C309  H210  S    
C55   C75   A    
C254  N6    T    
C288  H171  S    
C118  O40   A    
C234  H80   S    
C71   C75   A    
C28   C52   A    
C44   C52   A    
C253  N5    T    
C239  N3    T    
C218  H33   S    
O5    Zn9   S    
C285  H162  S    
C262  N14   T    
C102  C106  A    
C31   C35   A    
C46   O26   A    
C220  H38   S    
C273  H139  S    
C266  H130  S    
C11   C51   S    
C5    C205  A    
C1    O17   A    
C2    C98   S    
C308  H207  S    
C251  H119  S    
C150  C154  A    
C226  H56   S    
C72   C240  S    
C125  O11   A    
C227  H59   S    
C284  H158  S    
C97   C101  A    
C40   C220  S    
C167  C176  A    
C23   C161  S    
C209  H5    S    
