data_mof_unit_37646.cif
_audit_creation_date              2013-03-05T16:35:51-0500
_audit_creation_method            fapswitch 2.2
_symmetry_space_group_name_H-M    P1
_symmetry_Int_Tables_number       1
_space_group_crystal_system       triclinic
_cell_length_a                    23.60983
_cell_length_b                    9.092287
_cell_length_c                    7.772261
_cell_angle_alpha                 90.05929
_cell_angle_beta                  89.994492
_cell_angle_gamma                 90.037018
_cell_volume                      1668.4494262

loop_
_atom_site_label
_atom_site_type_symbol
_atom_site_description
_atom_site_fract_x
_atom_site_fract_y
_atom_site_fract_z
_atom_type_partial_charge
O1    O     O_R   0.500000 0.288390 0.642760 -0.580064
O2    O     O_R   0.500000 0.711610 0.357240 -0.564465
O3    O     O_R   0.500000 0.711610 0.642760 -0.579537
O4    O     O_R   0.500000 0.288390 0.357240 -0.562952
H1    H     H_    0.948936 0.130060 0.460193 0.185492
H2    H     H_    0.051675 0.870277 0.547144 0.185180
H3    H     H_    0.948739 0.870260 0.541767 0.185538
H4    H     H_    0.051867 0.130801 0.454318 0.185335
C1    C     C_R   0.500068 0.219970 0.499945 0.901155
C2    C     C_R   0.500005 0.780030 0.500060 0.901675
O5    O     O_R   0.417880 0.500000 0.642820 -0.573677
O6    O     O_R   0.582120 0.500000 0.357180 -0.564363
O7    O     O_R   0.582120 0.500000 0.642820 -0.574623
O8    O     O_R   0.417880 0.500000 0.357180 -0.565084
C3    C     C_R   0.208766 0.501040 0.500559 0.289638
C4    C     C_R   0.791648 0.499598 0.500873 0.284727
C5    C     C_R   0.390697 0.500198 0.500002 0.874609
C6    C     C_R   0.609378 0.499824 0.499983 0.865196
Cu1   Cu    Cu3+1 0.500000 0.500000 0.669080 1.055860
Cu2   Cu    Cu3+1 0.500000 0.500000 0.330920 1.084956
H5    H     H_    0.214821 0.641869 0.280499 0.185652
H6    H     H_    0.785513 0.378530 0.264768 0.187211
H7    H     H_    0.214800 0.360018 0.720469 0.181013
H8    H     H_    0.785204 0.620881 0.736805 0.183539
C7    C     C_R   0.297629 0.584853 0.376554 -0.062662
C8    C     C_R   0.702776 0.425113 0.368308 -0.057956
C9    C     C_R   0.297627 0.416725 0.623875 -0.062981
C10   C     C_R   0.702597 0.574072 0.632170 -0.062945
C11   C     C_R   0.328089 0.500572 0.500070 -0.184770
C12   C     C_R   0.672119 0.499678 0.500058 -0.189502
C13   C     C_R   0.881215 0.631156 0.509865 0.549120
C14   C     C_R   0.119432 0.370312 0.481552 0.550330
C15   C     C_R   0.881287 0.368674 0.492287 0.547082
C16   C     C_R   0.119374 0.631254 0.519573 0.548977
N1    N     N_R   0.852654 0.499812 0.501081 -0.461095
N2    N     N_R   0.147884 0.500879 0.500533 -0.463156
C17   C     C_R   0.940671 0.366536 0.488077 -0.013483
C18   C     C_R   0.059981 0.633898 0.517795 -0.014287
C19   C     C_R   0.940600 0.633724 0.513929 -0.014607
C20   C     C_R   0.060047 0.367243 0.483621 -0.015319
C21   C     C_R   0.970441 0.500240 0.500942 -0.017701
C22   C     C_R   0.030211 0.500461 0.500792 -0.017584
C23   C     C_R   0.970856 0.234159 0.471805 -0.156520
C24   C     C_R   0.029783 0.766317 0.533207 -0.156848
C25   C     C_R   0.970715 0.766321 0.530066 -0.156693
C26   C     C_R   0.029920 0.234601 0.468366 -0.157100
C27   C     C_1   0.500048 0.065361 0.499942 -0.120234
C28   C     C_1   0.500025 0.934638 0.500099 -0.118279
C29   C     C_R   0.238418 0.580028 0.375678 -0.108179
C30   C     C_R   0.761960 0.431578 0.367196 -0.108368
C31   C     C_R   0.238396 0.421914 0.625241 -0.112509
C32   C     C_R   0.761805 0.567631 0.634147 -0.112334
N3    N     N_1   0.500000 0.500000 0.076820 -0.032100
N4    N     N_1   0.500000 0.500000 0.923180 -0.037703
O9    O     O_2   0.852280 0.759110 0.512716 -0.508359
O10   O     O_2   0.148528 0.243995 0.459258 -0.506017
O11   O     O_2   0.852420 0.240518 0.489478 -0.510501
O12   O     O_2   0.148416 0.757774 0.541666 -0.508387
C33   C     C_2   0.325372 0.684527 0.250861 0.895874
O13   O     O_2   0.365911 0.759843 0.293930 -0.592870
O14   O     O_R   0.303377 0.696834 0.084390 -0.734398
H9    H     H_    0.325415 0.768928 0.010773 0.345995
C34   C     C_2   0.675438 0.333089 0.233868 0.903687
O15   O     O_2   0.635948 0.251877 0.270770 -0.591112
O16   O     O_R   0.696879 0.334069 0.066004 -0.731922
H10   H     H_    0.675200 0.266164 0.986056 0.342371
C35   C     C_2   0.325691 0.316129 0.747747 0.897530
O17   O     O_2   0.307927 0.306582 0.895180 -0.561431
O18   O     O_R   0.370863 0.227782 0.694347 -0.758932
H11   H     H_    0.385986 0.163137 0.790093 0.338964
C36   C     C_2   0.674705 0.666964 0.764601 0.902964
O19   O     O_2   0.691588 0.664377 0.913372 -0.559063
O20   O     O_R   0.630853 0.762285 0.718038 -0.756534
H12   H     H_    0.615677 0.820526 0.819338 0.339539

loop_
_geom_bond_atom_site_label_1
_geom_bond_atom_site_label_2
_geom_bond_distance
_ccdc_geom_bond_type
H8    C32   1.084047 S    
C34   O16   1.399438 S    
C9    C11   1.423047 A    
C5    C11   1.478168 S    
C21   C22   1.411160 A    
Cu1   Cu2   2.628269 S    
H5    C29   1.084037 S    
C19   C21   1.407270 A    
N3    N4    1.194131 T    
C20   C26   1.404661 A    
O5    Cu1   1.949574 S    
O7    C6    1.283167 A    
H3    C25   1.082147 S    
C4    C30   1.396953 A    
C18   C22   1.407861 A    
C8    C30   1.398555 A    
C4    N1    1.440335 S    
O20   H12   1.013909 S    
O3    Cu1   1.935074 S    
C6    C12   1.481301 S    
C3    C31   1.395798 A    
C19   C25   1.404771 A    
C14   C20   1.402437 A    
H1    C23   1.082145 S    
C33   O13   1.223027 D    
H2    C24   1.082373 S    
O8    C5    1.282170 A    
O14   H9    1.013947 S    
C9    C31   1.399299 A    
H4    C26   1.082376 S    
C7    C11   1.424215 A    
C33   O14   1.398847 S    
O1    Cu1   1.934654 S    
O7    Cu1   1.949533 S    
O2    Cu2   1.934653 S    
C35   O17   1.223343 D    
O8    Cu2   1.949535 S    
O1    C1    1.271876 A    
C36   O20   1.398548 S    
C15   C17   1.402590 A    
C35   O18   1.398294 S    
C17   C23   1.404743 A    
C8    C34   1.485305 S    
C18   C24   1.404657 A    
H7    C31   1.084089 S    
C27   C28   1.188574 T    
O6    Cu2   1.949572 S    
Cu1   N4    1.974931 S    
C1    C27   1.405746 S    
C2    C28   1.405738 S    
C13   N1    1.372712 A    
C10   C36   1.484998 S    
O2    C2    1.271908 A    
C14   N2    1.371473 A    
C3    N2    1.437430 S    
C24   C25   1.394794 A    
O5    C5    1.282252 A    
C15   O11   1.349685 S    
C16   C18   1.402538 A    
C4    C32   1.396834 A    
Cu2   N3    1.974931 S    
C8    C12   1.425181 A    
H6    C30   1.084017 S    
C10   C12   1.423992 A    
C36   O19   1.223351 D    
O3    C2    1.272217 A    
C10   C32   1.399232 A    
C20   C22   1.407805 A    
C15   N1    1.372667 A    
C13   C19   1.402610 A    
C16   N2    1.371425 A    
C3    C29   1.395936 A    
C17   C21   1.407309 A    
O18   H11   1.013889 S    
C23   C26   1.394753 A    
C7    C29   1.398634 A    
C9    C35   1.485015 S    
C34   O15   1.223224 D    
O4    Cu2   1.935075 S    
O16   H10   1.013979 S    
O6    C6    1.283046 A    
C16   O12   1.349650 S    
C7    C33   1.485147 S    
C13   O9    1.349678 S    
O4    C1    1.272252 A    
C14   O10   1.349664 S    
