data_mof_unit_52346.cif
_audit_creation_date              2012-12-11T18:40:02-0500
_audit_creation_method            fapswitch 2.2
_symmetry_space_group_name_H-M    P1
_symmetry_Int_Tables_number       1
_space_group_crystal_system       triclinic
_cell_length_a                    8.36775
_cell_length_b                    14.471638
_cell_length_c                    18.980578
_cell_angle_alpha                 97.140307
_cell_angle_beta                  91.634053
_cell_angle_gamma                 92.239735
_cell_volume                      2277.59528265

loop_
_atom_site_label
_atom_site_type_symbol
_atom_type_description
_atom_site_fract_x
_atom_site_fract_y
_atom_site_fract_z
_atom_type_partial_charge
Ba1   Ba    Ba6+2 0.843770 0.541130 0.463760 1.637749
Ba2   Ba    Ba6+2 0.346040 0.458940 0.536250 1.614908
C1    C     C_3   0.659568 0.847366 0.179761 -0.028638
C2    C     C_R   0.008853 0.537244 0.729132 0.070210
C3    C     C_R   0.832120 0.436385 0.820481 -0.173884
C4    C     C_3   0.143618 0.747052 0.269868 0.324212
C5    C     C_R   0.763917 0.456460 0.756410 0.006939
C6    C     C_R   0.325656 0.566118 0.178507 -0.156193
C7    C     C_R   0.389589 0.570840 0.248442 -0.032854
C8    C     C_R   0.142527 0.441275 0.200581 -0.146148
C9    C     C_R   0.176191 0.463625 0.274000 0.067067
C10   C     C_R   0.989440 0.466409 0.844660 -0.006529
C11   C     C_R   0.847494 0.511811 0.713292 -0.192404
C12   C     C_3   0.658649 0.744667 0.193015 0.390762
C13   C     C_R   0.208485 0.496858 0.150754 0.018340
C14   C     C_R   0.302948 0.526651 0.297221 -0.236928
C15   C     C_R   0.834510 0.347542 0.960695 -0.077657
C16   C     C_3   0.112615 0.754775 0.191661 -0.383415
C17   C     C_R   0.722238 0.335001 0.011849 -0.066568
C18   C     C_R   0.737268 0.388089 0.077967 -0.077841
C19   C     C_R   0.874379 0.444813 0.095594 -0.109316
C20   C     C_R   0.999705 0.447907 0.047727 0.019103
C21   C     C_R   0.961878 0.415019 0.974564 0.031366
C22   C     C_R   0.158404 0.481324 0.070863 -0.011914
C23   C     C_3   0.661043 0.225246 0.312114 0.334149
C24   C     C_R   0.270054 0.489553 0.015522 0.025555
C25   C     C_R   0.218159 0.468795 0.942151 0.010023
C26   C     C_R   0.056768 0.446791 0.920015 -0.023472
C27   C     C_R   0.434368 0.517379 0.029085 -0.094718
C28   C     C_3   0.132546 0.753165 0.608320 0.348781
C29   C     C_R   0.531467 0.538396 0.974042 0.074597
C30   C     C_R   0.484297 0.502684 0.905348 -0.048521
C31   C     C_R   0.334567 0.459321 0.891542 -0.101046
C32   C     C_R   0.693296 0.941516 0.539847 -0.060291
C33   C     C_R   0.509349 0.803358 0.501179 0.046910
C34   C     C_3   0.671714 0.124317 0.273264 -0.053366
C35   C     C_R   0.368172 0.768034 0.464170 -0.246033
C36   C     C_R   0.258816 0.827436 0.438970 -0.018939
C37   C     C_R   0.296140 0.922601 0.445047 -0.155653
C38   C     C_R   0.443750 0.959270 0.475422 0.011950
C39   C     C_R   0.550450 0.900636 0.506102 -0.017477
C40   C     C_3   0.079790 0.852836 0.621813 -0.369750
C41   C     C_R   0.632377 0.093170 0.503557 -0.012200
C42   C     C_R   0.736407 0.036357 0.537686 0.011078
C43   C     C_R   0.682087 0.186691 0.497111 0.013367
C44   C     C_R   0.829707 0.222396 0.526858 -0.276369
C45   C     C_3   0.101407 0.259273 0.734116 0.427263
C46   C     C_R   0.931249 0.167317 0.561146 0.008015
C47   C     C_R   0.884946 0.074533 0.566922 -0.148320
C48   C     C_R   0.485400 0.053872 0.474655 -0.053228
C49   C     C_3   0.134346 0.247285 0.374064 0.259036
C50   C     C_3   0.116714 0.141452 0.359407 -0.209784
C51   C     C_3   0.531538 0.756743 0.679269 0.229581
C52   C     C_3   0.492059 0.858990 0.694194 -0.407772
C53   C     C_3   0.202493 0.102818 0.292458 -0.228822
C54   C     C_3   0.169854 0.998290 0.273161 -0.432593
C55   C     C_3   0.503900 0.890403 0.205139 -0.423455
C56   C     C_3   0.072484 0.218370 0.803319 -0.220822
C57   C     C_3   0.676817 0.858480 0.100256 -0.246065
C58   C     C_3   0.849728 0.856466 0.077150 -0.459820
C59   C     C_3   0.638446 0.291041 0.254946 -0.179658
C60   C     C_3   0.545192 0.375323 0.279506 -0.278320
C61   C     C_3   0.810250 0.113413 0.219941 -0.239613
C62   C     C_3   0.760760 0.122949 0.142781 -0.454085
C63   C     C_3   0.679204 0.053181 0.326976 -0.385775
C64   C     C_3   0.223668 0.182722 0.835455 -0.378671
C65   C     C_3   0.761029 0.548223 0.652490 -0.244931
C66   C     C_3   0.686182 0.595590 0.987954 -0.209487
C67   C     C_3   0.632002 0.232507 0.726006 0.334457
C68   C     C_3   0.692594 0.677705 0.944404 -0.429916
C69   C     C_3   0.576171 0.132400 0.730936 -0.364310
C70   C     C_R   0.075265 0.520141 0.796709 -0.137686
H1    H     H_    0.562032 0.707583 0.159270 -0.061840
H2    H     H_    0.430739 0.712679 0.655025 0.082059
H3    H     H_    0.598990 0.900929 0.717540 0.122044
H4    H     H_    0.394381 0.866758 0.732560 0.101363
H5    H     H_    0.453429 0.885802 0.644550 0.086495
H6    H     H_    0.771679 0.714119 0.175885 0.031552
H7    H     H_    0.771941 0.245561 0.343947 0.048266
H8    H     H_    0.557992 0.107871 0.242228 0.102697
H9    H     H_    0.761591 0.884891 0.210880 0.117119
H10   H     H_    0.071867 0.824900 0.184733 0.124816
H11   H     H_    0.188848 0.319443 0.743928 0.077751
H12   H     H_    0.166048 0.896455 0.658331 0.104960
H13   H     H_    0.985588 0.284848 0.715747 -0.136922
H14   H     H_    0.027200 0.273310 0.842088 0.067694
H15   H     H_    0.980097 0.160497 0.793751 0.099786
H16   H     H_    0.740758 0.248491 0.760744 -0.032530
H17   H     H_    0.661604 0.237077 0.669656 0.015568
H18   H     H_    0.669854 0.084544 0.710802 0.058494
H19   H     H_    0.464576 0.114493 0.698197 0.159179
H20   H     H_    0.129271 0.672262 0.276368 0.049958
H21   H     H_    0.554812 0.122928 0.787090 0.099823
H22   H     H_    0.191226 0.552668 0.811457 0.098382
H23   H     H_    0.072533 0.882635 0.570793 0.072562
H24   H     H_    0.752216 0.400062 0.850777 0.065522
H25   H     H_    0.367170 0.615432 0.145201 0.057167
H26   H     H_    0.061603 0.382189 0.183526 0.058825
H27   H     H_    0.341475 0.536157 0.352640 0.070130
H28   H     H_    0.823421 0.300934 0.911762 0.055157
H29   H     H_    0.621880 0.285555 0.999614 0.064486
H30   H     H_    0.645627 0.382703 0.116438 0.067700
H31   H     H_    0.267889 0.773524 0.285288 -0.035901
H32   H     H_    0.883498 0.484486 0.147297 0.129869
H33   H     H_    0.493517 0.521098 0.080159 0.067590
H34   H     H_    0.961024 0.854085 0.646356 0.130878
H35   H     H_    0.562939 0.510255 0.862885 0.084209
H36   H     H_    0.304436 0.420205 0.840887 0.118271
H37   H     H_    0.337393 0.694124 0.459435 0.055507
H38   H     H_    0.209415 0.967480 0.425896 0.070797
H39   H     H_    0.964988 0.032574 0.593890 0.073355
H40   H     H_    0.867939 0.293603 0.521997 0.060915
H41   H     H_    0.773955 0.899830 0.566158 0.097132
H42   H     H_    0.222039 0.742534 0.161530 0.067258
H43   H     H_    0.406041 0.095367 0.447653 0.100022
H44   H     H_    0.023837 0.700063 0.168504 0.098966
H45   H     H_    0.098272 0.268821 0.429477 0.047001
H46   H     H_    0.251280 0.753675 0.585353 -0.094867
H47   H     H_    0.049960 0.714293 0.568361 0.103970
H48   H     H_    0.250471 0.959488 0.304904 0.136196
H49   H     H_    0.193335 0.978762 0.216133 0.117464
H50   H     H_    0.044490 0.977202 0.282898 0.162481
H51   H     H_    0.167181 0.139387 0.246800 0.126812
H52   H     H_    0.331974 0.115255 0.301692 0.151475
H53   H     H_    0.504378 0.964519 0.197127 0.115049
H54   H     H_    0.401021 0.855992 0.173379 0.112222
H55   H     H_    0.487594 0.884791 0.262259 0.148300
H56   H     H_    0.258513 0.270094 0.366200 0.100327
H57   H     H_    0.925026 0.910313 0.111060 0.131214
H58   H     H_    0.897065 0.786437 0.079519 0.131361
H59   H     H_    0.855226 0.872608 0.021588 0.132559
H60   H     H_    0.602779 0.803675 0.066859 0.113765
H61   H     H_    0.631182 0.926351 0.089012 0.130396
H62   H     H_    0.542296 0.418426 0.235519 0.090251
H63   H     H_    0.598625 0.415468 0.328524 0.172089
H64   H     H_    0.420773 0.352765 0.289363 0.060195
H65   H     H_    0.756523 0.313436 0.236134 0.104433
H66   H     H_    0.567822 0.254990 0.208323 0.067906
H67   H     H_    0.988899 0.121065 0.353520 0.099993
H68   H     H_    0.849825 0.089693 0.106596 0.134146
H69   H     H_    0.641794 0.088530 0.127836 0.127682
H70   H     H_    0.759046 0.197065 0.133739 0.129359
H71   H     H_    0.907777 0.165591 0.236561 0.152491
H72   H     H_    0.860673 0.043793 0.218611 0.125356
H73   H     H_    0.748107 0.081675 0.375587 0.086447
H74   H     H_    0.556252 0.033862 0.341287 0.114719
H75   H     H_    0.734619 0.987908 0.305987 0.132951
H76   H     H_    0.196450 0.158824 0.887344 0.104167
H77   H     H_    0.318547 0.239050 0.844595 0.150181
H78   H     H_    0.163564 0.111764 0.406146 0.074321
H79   H     H_    0.266589 0.122730 0.799932 0.154575
H80   H     H_    0.815521 0.615323 0.642520 0.114426
H81   H     H_    0.765812 0.498072 0.603549 0.147267
H82   H     H_    0.635664 0.563633 0.665169 0.128004
H83   H     H_    0.695201 0.653052 0.886703 0.124176
H84   H     H_    0.587411 0.721277 0.954324 0.131880
H85   H     H_    0.804153 0.720442 0.958536 0.130180
H86   H     H_    0.702932 0.622216 0.045289 0.097094
H87   H     H_    0.786750 0.551931 0.972320 0.125493
H88   H     H_    0.558486 0.731404 0.731012 0.041938
O1    O     O_2   0.890230 0.433890 0.328780 -0.467330
O2    O     O_2   0.263285 0.175192 0.557505 -0.478365
O3    O     O_3   0.161516 0.190599 0.684318 -0.595766
O4    O     O_3   0.136580 0.442380 0.417110 -0.492789
O5    O     O_3   0.551510 0.615640 0.531790 -0.487842
O6    O     O_2   0.394780 0.268760 0.474430 -0.460886
O7    O     O_3   0.526599 0.229416 0.355325 -0.670467
O8    O     O_2   0.430524 0.467831 0.747588 -0.502934
O9    O     O_3   0.511979 0.293573 0.749251 -0.594084
O10   O     O_3   0.636390 0.607640 0.365630 -0.439260
O11   O     O_2   0.726177 0.563334 0.236630 -0.528523
O12   O     O_3   0.668087 0.747027 0.638893 -0.637115
O13   O     O_3   0.036418 0.286432 0.326633 -0.679304
O14   O     O_3   0.638348 0.736970 0.265773 -0.586291
O15   O     O_2   0.794910 0.731270 0.525620 -0.461070
O16   O     O_3   0.045950 0.658760 0.399470 -0.476697
O17   O     O_2   0.921862 0.823548 0.437658 -0.464372
O18   O     O_3   0.033123 0.798725 0.310865 -0.577211
O19   O     O_2   0.299470 0.566150 0.671260 -0.463520
O20   O     O_3   0.053110 0.557700 0.582890 -0.511422
O21   O     O_3   0.553300 0.392440 0.634370 -0.457499
O22   O     O_3   0.138822 0.715316 0.672966 -0.647686
O23   O     O_3   0.638180 0.384440 0.468210 -0.473579
O24   O     O_3   0.143740 0.341320 0.600540 -0.475106
P1    P     P_3+3 0.064140 0.407250 0.340900 0.945352
P2    P     P_3+3 0.622060 0.719380 0.547490 0.961890
P3    P     P_3+3 0.065326 0.779032 0.399000 0.972765
P4    P     P_3+3 0.125560 0.592830 0.659110 0.962131
P5    P     P_3+3 0.124015 0.219498 0.598959 0.965551
P6    P     P_3+3 0.595394 0.619771 0.276277 0.943855
P7    P     P_3+3 0.570262 0.265779 0.446239 0.912610
P8    P     P_3+3 0.566045 0.403181 0.725511 0.926223

loop_
_geom_bond_atom_site_label_1
_geom_bond_atom_site_label_2
_ccdc_geom_bond_type
C42   C47   A    
C5    C11   A    
C53   C54   S    
Ba1   O16   S    
C44   H40   S    
O17   P3    D    
C28   O22   S    
C17   C18   A    
C2    C70   A    
C6    H25   S    
C56   H15   S    
C16   H42   S    
Ba1   O23   S    
C43   C44   A    
C25   C31   A    
C32   H41   S    
C31   H36   S    
O13   P1    S    
C24   C25   A    
C15   C21   A    
C10   C26   S    
C65   H82   S    
C68   H84   S    
C49   H56   S    
C45   H13   S    
C33   C35   A    
C7    C14   A    
C22   C24   A    
O6    P7    D    
C8    C13   A    
C55   H53   S    
C36   C37   A    
O21   P8    S    
C66   H86   S    
C59   H66   S    
C18   H30   S    
C62   H69   S    
C36   P3    S    
C62   H68   S    
C38   C48   A    
Ba1   O10   S    
C50   H67   S    
C67   C69   S    
Ba1   Ba2   S    
C60   H64   S    
C2    C11   A    
C8    H26   S    
O1    P1    D    
O20   P4    S    
C51   O12   S    
C15   C17   A    
C19   H32   S    
C43   P7    S    
C37   H38   S    
Ba1   O15   S    
C51   H2    S    
Ba1   O4    S    
O12   P2    S    
C6    C7    A    
C30   H35   S    
C1    H9    S    
C61   H72   S    
C45   H11   S    
C63   H75   S    
C66   H87   S    
Ba2   O6    S    
C35   H37   S    
C50   C53   S    
C47   H39   S    
C52   H5    S    
C45   O3    S    
C10   C70   A    
C16   H10   S    
Ba1   O1    S    
C57   C58   S    
C9    P1    S    
C19   C20   A    
C4    O18   S    
C67   H16   S    
C54   H48   S    
C27   H33   S    
C12   O14   S    
C59   C60   S    
C32   C39   A    
Ba2   O20   S    
C67   H17   S    
C56   H14   S    
C58   H59   S    
C56   C64   S    
C53   H51   S    
C29   C66   S    
C4    C16   S    
C44   C46   A    
C57   H60   S    
C68   H83   S    
C12   H1    S    
C32   C42   A    
C3    C10   A    
O4    P1    S    
C34   H8    S    
C58   H58   S    
C55   H54   S    
C3    C5    A    
Ba2   O4    S    
C34   C63   S    
C23   C59   S    
O19   P4    D    
C28   H46   S    
Ba1   P2    S    
C57   H61   S    
C23   O7    S    
C40   H23   S    
O11   P6    D    
Ba2   O21   S    
C54   H50   S    
C60   H63   S    
C41   C42   A    
C35   C36   A    
C41   C43   A    
C9    C14   A    
C29   C30   A    
Ba1   O5    S    
C46   C47   A    
C40   H12   S    
O3    P5    S    
C67   O9    S    
C4    H31   S    
C40   H34   S    
Ba2   O5    S    
C46   P5    S    
C1    C12   S    
C64   H77   S    
C52   H4    S    
O18   P3    S    
C1    C55   S    
C66   C68   S    
C38   C39   A    
O14   P6    S    
C6    C13   A    
C20   C22   A    
C5    P8    S    
C21   C26   A    
Ba2   O19   S    
C16   H44   S    
C7    P6    S    
C34   C61   S    
C37   C38   A    
C3    H24   S    
O16   P3    S    
C11   C65   S    
C53   H52   S    
C13   C22   S    
C51   H88   S    
C65   H80   S    
C23   H7    S    
C64   H76   S    
C14   H27   S    
O5    P2    S    
O23   P7    S    
C58   H57   S    
C55   H55   S    
C41   C48   A    
C51   C52   S    
C69   H21   S    
Ba1   P1    S    
O7    P7    S    
O10   P6    S    
Ba1   O20   S    
O8    P8    D    
C65   H81   S    
C68   H85   S    
C54   H49   S    
C60   H62   S    
C70   H22   S    
C49   C50   S    
C27   C29   A    
C48   H43   S    
O15   P2    D    
C17   H29   S    
C59   H65   S    
C69   H18   S    
C62   H70   S    
C33   P2    S    
C4    H20   S    
C49   H45   S    
Ba2   O24   S    
Ba2   O23   S    
C12   H6    S    
C30   C31   A    
C33   C39   A    
C15   H28   S    
Ba2   P4    S    
C49   O13   S    
C8    C9    A    
C23   C34   S    
C61   C62   S    
C64   H79   S    
C69   H19   S    
C18   C19   A    
C24   C27   A    
C50   H78   S    
C28   H47   S    
C25   C26   A    
C61   H71   S    
C20   C21   A    
C28   C40   S    
O9    P8    S    
C63   H74   S    
O22   P4    S    
C63   H73   S    
O24   P5    S    
O2    P5    D    
C2    P4    S    
C52   H3    S    
C45   C56   S    
C1    C57   S    
