data_mof_unit_64344.cif
_audit_creation_date              2012-10-26T18:45:48-0400
_audit_creation_method            fapswitch 2.2
_symmetry_space_group_name_H-M    P1
_symmetry_Int_Tables_number       1
_space_group_crystal_system       triclinic
_cell_length_a                    17.879814
_cell_length_b                    16.570986
_cell_length_c                    15.046327
_cell_angle_alpha                 89.979394
_cell_angle_beta                  91.868805
_cell_angle_gamma                 89.909533
_cell_volume                      4455.64119564

loop_
_atom_site_label
_atom_site_type_symbol
_atom_type_description
_atom_site_fract_x
_atom_site_fract_y
_atom_site_fract_z
_atom_type_partial_charge
Br1   Br    Br    0.662069 0.500269 0.756363 -0.415507
Br2   Br    Br    0.714404 0.329720 0.424890 -0.359902
Br3   Br    Br    0.594613 0.887647 0.658594 -0.313492
Br4   Br    Br    0.380490 0.113364 0.366744 -0.317047
Br5   Br    Br    0.405568 0.888032 0.341183 -0.309255
Br6   Br    Br    0.619733 0.113227 0.633565 -0.313197
Br7   Br    Br    0.338337 0.497149 0.244035 -0.412469
Br8   Br    Br    0.341628 0.505086 0.743327 -0.358719
Br9   Br    Br    0.658429 0.504606 0.258100 -0.351942
Br10  Br    Br    0.307682 0.365139 0.883870 -0.292947
Br11  Br    Br    0.689485 0.641214 0.113812 -0.303334
Br12  Br    Br    0.729096 0.676684 0.510724 -0.352238
Br13  Br    Br    0.287436 0.331478 0.580909 -0.336523
Br14  Br    Br    0.270099 0.676001 0.482771 -0.364286
C1    C     C_R   0.355288 0.499927 0.503924 0.619296
C2    C     C_R   0.234733 0.425870 0.534386 0.146609
C3    C     C_R   0.228030 0.569026 0.493381 0.142461
C4    C     C_R   0.766010 0.425073 0.470067 0.143677
C5    C     C_R   0.728103 0.498392 0.490508 0.038335
C6    C     C_R   0.272028 0.498616 0.510748 0.036466
C7    C     C_R   0.886103 0.490400 0.498548 -0.048635
C8    C     C_R   0.114048 0.490559 0.506541 -0.049505
C9    C     C_1   0.966567 0.487152 0.501981 0.022071
C10   C     C_1   0.033600 0.487167 0.504088 0.021749
C11   C     C_R   0.539470 0.830155 0.566002 0.111246
C12   C     C_R   0.644741 0.499832 0.496240 0.619599
C13   C     C_R   0.450474 0.170484 0.444170 0.111151
C14   C     C_R   0.460540 0.830309 0.433893 0.112396
C15   C     C_R   0.549738 0.170431 0.556010 0.112574
C16   C     C_R   0.539070 0.744353 0.564885 0.126417
C17   C     C_R   0.451442 0.256215 0.444786 0.127690
C18   C     C_R   0.461076 0.744481 0.434911 0.125522
C19   C     C_R   0.548540 0.256188 0.555400 0.128116
C20   C     C_R   0.499961 0.874057 0.499993 0.027107
C21   C     C_R   0.500166 0.126610 0.500065 0.027995
C22   C     C_1   0.500047 0.963325 0.500011 0.148618
C23   C     C_R   0.376018 0.437511 0.040478 0.008672
C24   C     C_1   0.500149 0.037361 0.500072 0.148313
C25   C     C_R   0.498768 0.500086 0.328815 0.610804
C26   C     C_R   0.501356 0.499943 0.671184 0.610507
C27   C     C_R   0.568471 0.512384 0.816500 0.112316
C28   C     C_R   0.431947 0.486710 0.183543 0.110855
C29   C     C_R   0.501497 0.499686 0.767681 0.024499
C30   C     C_R   0.498711 0.500630 0.232298 0.025150
C31   C     C_R   0.434299 0.486950 0.810526 0.154153
C32   C     C_R   0.565485 0.516243 0.189540 0.152098
C33   C     C_R   0.436064 0.474802 0.903190 0.032722
C34   C     C_R   0.624142 0.563290 0.959029 0.009055
C35   C     C_R   0.563614 0.527754 0.096686 0.033531
C36   C     C_R   0.500471 0.500236 0.953157 -0.028643
C37   C     C_R   0.499570 0.501037 0.046786 -0.027356
C38   C     C_R   0.565821 0.524700 0.909267 -0.010369
C39   C     C_R   0.434486 0.475553 0.090614 -0.010162
C40   C     C_R   0.377177 0.436422 0.947175 0.180341
C41   C     C_R   0.622140 0.566481 0.052229 0.179375
C42   C     C_1   0.320082 0.389065 0.083124 0.337264
C43   C     C_1   0.680725 0.610376 0.915796 0.341508
C44   C     C_1   0.893633 0.635134 0.536746 0.306511
C45   C     C_R   0.849980 0.564064 0.513385 0.000888
C46   C     C_1   0.118293 0.347867 0.553038 0.309015
C47   C     C_1   0.105399 0.634134 0.463343 0.305826
C48   C     C_1   0.883013 0.346509 0.456890 0.306044
C49   C     C_1   0.581822 0.704011 0.634081 0.370803
C50   C     C_1   0.399191 0.297919 0.386504 0.357545
C51   C     C_1   0.419287 0.704206 0.364882 0.373078
C52   C     C_1   0.600136 0.298005 0.614283 0.361611
C53   C     C_R   0.156140 0.422235 0.530962 0.000684
C54   C     C_R   0.149649 0.563717 0.488263 0.000412
C55   C     C_R   0.844581 0.421471 0.475520 0.001066
C56   C     C_R   0.771634 0.569286 0.506173 0.145459
Cu1   Cu    Cu3+1 0.500000 0.580420 0.500000 1.093020
Cu2   Cu    Cu3+1 0.500000 0.419580 0.500000 1.093433
N1    N     N_R   0.500000 0.701220 0.500000 -0.292427
N2    N     N_1   0.356218 0.329802 0.339336 -0.186524
N3    N     N_1   0.385154 0.673824 0.307520 -0.160723
N4    N     N_1   0.642426 0.330176 0.661961 -0.174157
N5    N     N_R   0.500000 0.298780 0.500000 -0.290153
N6    N     N_1   0.275398 0.349846 0.116525 -0.136337
N7    N     N_1   0.725953 0.648508 0.881952 -0.130230
N8    N     N_1   0.928227 0.691880 0.555773 -0.163496
N9    N     N_1   0.087977 0.288582 0.570623 -0.162916
N10   N     N_1   0.070327 0.690343 0.443076 -0.162684
N11   N     N_1   0.913799 0.286755 0.442069 -0.166206
N12   N     N_1   0.616911 0.673774 0.690782 -0.183235
O1    O     O_R   0.391260 0.567930 0.500000 -0.467365
O2    O     O_R   0.608740 0.432070 0.500000 -0.477996
O3    O     O_R   0.608740 0.567930 0.500000 -0.465789
O4    O     O_R   0.391260 0.432070 0.500000 -0.477529
O5    O     O_R   0.499990 0.567920 0.370260 -0.496469
O6    O     O_R   0.500010 0.432080 0.629740 -0.485895
O7    O     O_R   0.500010 0.567920 0.629740 -0.500337
O8    O     O_R   0.499990 0.432080 0.370260 -0.489657

loop_
_geom_bond_atom_site_label_1
_geom_bond_atom_site_label_2
_ccdc_geom_bond_type
C34   C41   A    
C48   N11   T    
Br2   C4    S    
C43   N7    T    
C34   C43   S    
C32   C35   A    
C7    C45   A    
C47   N10   T    
C28   C39   A    
Cu2   O8    S    
C15   C19   A    
C3    C6    A    
C42   N6    T    
C4    C5    A    
Br7   C28   S    
C5    C12   S    
Br8   C31   S    
Cu1   O1    S    
C23   C42   S    
C26   C29   S    
C46   C53   S    
C12   O3    A    
C35   C37   A    
C36   C38   A    
C9    C10   T    
C27   C38   A    
C44   N8    T    
C11   C20   A    
C1    O1    A    
C23   C39   A    
C4    C55   A    
C14   C20   A    
Br9   C32   S    
C16   C49   S    
C27   C29   A    
Br14  C3    S    
C28   C30   A    
Cu2   O4    S    
C30   C32   A    
C19   C52   S    
C17   N5    A    
C33   C36   A    
C31   C33   A    
C1    C6    S    
C13   C17   A    
Br3   C11   S    
C21   C24   S    
C18   N1    A    
Cu1   N1    S    
C16   N1    A    
C12   O2    A    
C13   C21   A    
C44   C45   S    
C35   C41   A    
C48   C55   S    
C7    C55   A    
C37   C39   A    
Cu2   N5    S    
Br5   C14   S    
Cu2   O6    S    
C46   N9    T    
Cu1   O5    S    
C14   C18   A    
C2    C6    A    
C52   N4    T    
C36   C37   A    
C2    C53   A    
C29   C31   A    
C8    C54   A    
C33   C40   A    
Cu1   O3    S    
C23   C40   A    
Br1   C27   S    
C7    C9    S    
C8    C10   S    
C25   O8    A    
Br4   C13   S    
Br11  C41   S    
C11   C16   A    
Br12  C56   S    
C3    C54   A    
C17   C50   S    
Cu2   O2    S    
C25   C30   S    
C15   C21   A    
C51   N3    T    
C49   N12   T    
C22   C24   T    
Cu1   Cu2   S    
C47   C54   S    
C19   N5    A    
C20   C22   S    
C26   O7    A    
Br10  C40   S    
C8    C53   A    
C45   C56   A    
C34   C38   A    
Br6   C15   S    
Cu1   O7    S    
Br13  C2    S    
C50   N2    T    
C18   C51   S    
C5    C56   A    
C26   O6    A    
C25   O5    A    
C1    O4    A    
