data_mof_unit_64497.cif
_audit_creation_date              2012-12-10T20:56:47-0500
_audit_creation_method            fapswitch 2.2
_symmetry_space_group_name_H-M    P1
_symmetry_Int_Tables_number       1
_space_group_crystal_system       triclinic
_cell_length_a                    26.330542
_cell_length_b                    33.028334
_cell_length_c                    21.126558
_cell_angle_alpha                 90.001624
_cell_angle_beta                  128.57114
_cell_angle_gamma                 89.999898
_cell_volume                      14364.4866981

loop_
_atom_site_label
_atom_site_type_symbol
_atom_type_description
_atom_site_fract_x
_atom_site_fract_y
_atom_site_fract_z
_atom_type_partial_charge
C1    C     C_R   0.500000 0.145561 0.500000 0.495293
C2    C     C_R   0.624172 0.620849 0.457612 0.009695
C3    C     C_R   0.640752 0.749607 0.499228 0.513993
C4    C     C_R   0.140760 0.750384 0.499244 0.513924
C5    C     C_R   0.859253 0.249600 0.500783 0.514035
C6    C     C_R   0.859249 0.750395 0.500773 0.514025
C7    C     C_R   0.140758 0.249615 0.499241 0.513903
C8    C     C_R   0.395557 0.250033 0.291093 0.492897
C9    C     C_R   0.604443 0.749966 0.708906 0.492831
C10   C     C_R   0.604443 0.250034 0.708906 0.492830
C11   C     C_R   0.395557 0.749966 0.291094 0.492873
C12   C     C_R   0.895557 0.750034 0.291094 0.492829
C13   C     C_R   0.624762 0.379305 0.458454 0.009766
C14   C     C_R   0.104443 0.249967 0.708906 0.492889
C15   C     C_R   0.104443 0.750034 0.708906 0.492880
C16   C     C_R   0.895557 0.249966 0.291094 0.492834
C17   C     C_1   0.649515 0.250039 0.799036 -0.014910
C18   C     C_1   0.350485 0.749961 0.200964 -0.014838
C19   C     C_1   0.350486 0.250038 0.200964 -0.014841
C20   C     C_1   0.649514 0.749962 0.799036 -0.014886
C21   C     C_1   0.149515 0.750039 0.799036 -0.014836
C22   C     C_1   0.850485 0.249961 0.200964 -0.014896
C23   C     C_1   0.850486 0.750038 0.200964 -0.014892
C24   C     C_R   0.376713 0.621044 0.543716 0.009606
C25   C     C_1   0.149514 0.249962 0.799036 -0.014838
C26   C     C_1   0.686974 0.250030 0.873950 -0.039135
C27   C     C_1   0.313026 0.749970 0.126050 -0.039065
C28   C     C_1   0.313027 0.250029 0.126050 -0.039072
C29   C     C_1   0.686973 0.749970 0.873950 -0.039110
C30   C     C_1   0.186974 0.750030 0.873950 -0.039064
C31   C     C_1   0.813026 0.249969 0.126050 -0.039124
C32   C     C_1   0.813027 0.750030 0.126050 -0.039114
C33   C     C_1   0.186973 0.249970 0.873950 -0.039070
C34   C     C_1   0.731272 0.250010 0.962544 -0.003244
C35   C     C_R   0.875725 0.879189 0.542239 0.009720
C36   C     C_1   0.268728 0.749990 0.037456 -0.003185
C37   C     C_1   0.268728 0.250009 0.037456 -0.003192
C38   C     C_1   0.731271 0.749990 0.962544 -0.003225
C39   C     C_1   0.231272 0.750010 0.962544 -0.003184
C40   C     C_1   0.768729 0.249990 0.037456 -0.003241
C41   C     C_1   0.768729 0.750010 0.037456 -0.003227
C42   C     C_1   0.231271 0.249990 0.962544 -0.003192
C43   C     C_1   0.499997 0.399527 0.500015 -0.021518
C44   C     C_1   0.499996 0.600473 0.500014 -0.021471
C45   C     C_1   0.000004 0.899527 0.499986 -0.021471
C46   C     C_R   0.123471 0.121002 0.456558 0.009624
C47   C     C_1   0.000002 0.100473 0.499986 -0.021488
C48   C     C_1   0.499994 0.436980 0.500025 -0.062723
C49   C     C_1   0.499993 0.563020 0.500023 -0.062666
C50   C     C_1   0.000007 0.936980 0.499977 -0.062682
C51   C     C_1   0.000004 0.063020 0.499977 -0.062645
C52   C     C_3   0.442793 0.393648 0.613844 -0.406965
C53   C     C_3   0.558144 0.605942 0.387328 -0.406952
C54   C     C_3   0.558914 0.394438 0.388132 -0.406980
C55   C     C_3   0.442974 0.606438 0.614020 -0.406942
C56   C     C_3   0.941715 0.894149 0.612550 -0.406954
C57   C     C_R   0.123278 0.878956 0.456263 0.009605
C58   C     C_3   0.057245 0.106341 0.386296 -0.406940
C59   C     C_3   0.057015 0.893558 0.385955 -0.406944
C60   C     C_3   0.941360 0.105697 0.612145 -0.406953
C61   C     C_3   0.230517 0.413890 0.333304 -0.409424
C62   C     C_3   0.770159 0.586640 0.668465 -0.409436
C63   C     C_3   0.770512 0.412823 0.670083 -0.409440
C64   C     C_3   0.230534 0.585962 0.333676 -0.409410
C65   C     C_3   0.729801 0.913219 0.331120 -0.409414
C66   C     C_3   0.269722 0.086033 0.666586 -0.409440
C67   C     C_3   0.269453 0.914050 0.666295 -0.409415
C68   C     C_R   0.875432 0.120738 0.541835 0.009750
C69   C     C_3   0.729501 0.086900 0.330566 -0.409423
C70   C     C_R   0.354558 0.341321 0.548120 -0.062839
C71   C     C_R   0.645989 0.658516 0.452674 -0.062825
C72   C     C_R   0.646437 0.341651 0.453208 -0.063003
C73   C     C_R   0.500000 0.854439 0.500000 0.495297
C74   C     C_R   0.354669 0.658718 0.548234 -0.062778
C75   C     C_R   0.853931 0.841530 0.547257 -0.062914
C76   C     C_R   0.145443 0.158687 0.451966 -0.062712
C77   C     C_R   0.145324 0.841280 0.451754 -0.062778
C78   C     C_R   0.853719 0.158408 0.546945 -0.062882
C79   C     C_R   0.292638 0.327085 0.483244 0.023523
C80   C     C_R   0.707755 0.672963 0.517504 0.023628
C81   C     C_R   0.708038 0.327003 0.518060 0.023674
C82   C     C_R   0.292703 0.672904 0.483369 0.023529
C83   C     C_R   0.792204 0.827034 0.482406 0.023632
C84   C     C_R   0.000000 0.645561 0.500000 0.495294
C85   C     C_R   0.207386 0.172916 0.516783 0.023554
C86   C     C_R   0.207292 0.827097 0.516623 0.023529
C87   C     C_R   0.792043 0.172975 0.482107 0.023683
C88   C     C_R   0.252338 0.351142 0.413837 -0.076670
C89   C     C_R   0.748106 0.649133 0.587235 -0.076570
C90   C     C_R   0.748364 0.350605 0.588147 -0.076361
C91   C     C_R   0.252375 0.648788 0.414046 -0.076734
C92   C     C_R   0.751867 0.850803 0.412565 -0.076486
C93   C     C_R   0.247759 0.148835 0.586133 -0.076763
C94   C     C_R   0.247618 0.851218 0.585939 -0.076737
C95   C     C_R   1.000000 0.354439 0.500000 0.495299
C96   C     C_R   0.751677 0.149265 0.412181 -0.076493
C97   C     C_R   0.274040 0.388803 0.408431 0.009149
C98   C     C_R   0.726597 0.611482 0.592999 0.009115
C99   C     C_R   0.726991 0.388234 0.594231 0.009135
C100  C     C_R   0.274095 0.611118 0.408707 0.009148
C101  C     C_R   0.773349 0.888444 0.406711 0.009153
C102  C     C_R   0.226109 0.111156 0.591541 0.009103
C103  C     C_R   0.225896 0.888889 0.591269 0.009147
C104  C     C_R   0.773082 0.111614 0.406236 0.009133
C105  C     C_R   0.336281 0.402586 0.473378 -0.051782
C106  C     C_1   0.499992 0.481271 0.500029 -0.025310
C107  C     C_R   0.664512 0.597476 0.528087 -0.051728
C108  C     C_R   0.665075 0.402450 0.529276 -0.051671
C109  C     C_R   0.336384 0.597387 0.473639 -0.051816
C110  C     C_R   0.835397 0.902500 0.471655 -0.051721
C111  C     C_R   0.163845 0.097379 0.526659 -0.051817
C112  C     C_R   0.163606 0.902617 0.526333 -0.051821
C113  C     C_R   0.835077 0.097487 0.471168 -0.051725
C114  C     C_R   0.215433 0.285547 0.485527 -0.148235
C115  C     C_R   0.784747 0.714491 0.514826 -0.148311
C116  C     C_R   0.784858 0.285485 0.515046 -0.148367
C117  C     C_1   0.499992 0.518729 0.500028 -0.025282
C118  C     C_R   0.215462 0.714446 0.485585 -0.148226
C119  C     C_R   0.715249 0.785509 0.485164 -0.148322
C120  C     C_R   0.284567 0.214454 0.514467 -0.148245
C121  C     C_R   0.284538 0.785554 0.514416 -0.148225
C122  C     C_R   0.715157 0.214508 0.484983 -0.148348
C123  C     C_R   0.195706 0.248997 0.497847 0.016782
C124  C     C_R   0.804291 0.751010 0.502146 0.016710
C125  C     C_R   0.804297 0.248983 0.502157 0.016653
C126  C     C_R   0.195705 0.751002 0.497847 0.016797
C127  C     C_R   0.695707 0.748991 0.497849 0.016698
C128  C     C_1   0.000007 0.981271 0.499972 -0.025292
C129  C     C_R   0.304293 0.251004 0.502149 0.016791
C130  C     C_R   0.304295 0.748998 0.502154 0.016796
C131  C     C_R   0.695713 0.251011 0.497862 0.016664
C132  C     C_R   0.230012 0.212901 0.511368 -0.028715
C133  C     C_R   0.769795 0.787068 0.488251 -0.028852
C134  C     C_R   0.769707 0.212942 0.488081 -0.028864
C135  C     C_R   0.229977 0.787107 0.511306 -0.028701
C136  C     C_R   0.730196 0.712932 0.511728 -0.028818
C137  C     C_R   0.269991 0.287100 0.488632 -0.028733
C138  C     C_R   0.270022 0.712894 0.488693 -0.028703
C139  C     C_1   0.000006 0.018729 0.499972 -0.025286
C140  C     C_R   0.730320 0.287047 0.511970 -0.028933
C141  C     C_R   0.500000 0.354469 0.500000 0.490232
C142  C     C_R   0.499999 0.645531 0.500001 0.490182
C143  C     C_R   0.000001 0.854469 0.500000 0.490210
C144  C     C_R   1.000000 0.145531 0.500001 0.490160
C145  C     C_1   0.500000 0.100491 0.499999 -0.014482
C146  C     C_1   0.499999 0.899508 0.500001 -0.014481
C147  C     C_1   0.000001 0.600491 0.499999 -0.014482
C148  C     C_1   1.000000 0.399508 0.500001 -0.014478
C149  C     C_1   0.500000 0.063030 0.499999 -0.038823
C150  C     C_R   0.376582 0.378987 0.543534 0.009610
C151  C     C_1   0.499999 0.936970 0.500000 -0.038823
C152  C     C_1   0.000001 0.563030 0.500000 -0.038822
C153  C     C_1   0.000000 0.436970 0.500001 -0.038818
C154  C     C_1   0.499999 0.018730 0.500000 -0.003032
C155  C     C_1   0.499999 0.981270 0.500000 -0.003032
C156  C     C_1   0.000001 0.518730 0.500000 -0.003030
C157  C     C_1   0.000001 0.481270 0.500000 -0.003029
C158  C     C_R   0.640748 0.250400 0.499218 0.514084
C159  C     C_R   0.359240 0.749616 0.500756 0.513926
C160  C     C_R   0.359242 0.250386 0.500759 0.513940
H1    H     H_    0.353228 0.431660 0.469454 0.107522
H2    H     H_    0.614912 0.676588 0.398236 0.099797
H3    H     H_    0.615380 0.323746 0.398517 0.099806
H4    H     H_    0.385731 0.677002 0.602375 0.099840
H5    H     H_    0.884997 0.823502 0.601770 0.099809
H6    H     H_    0.114347 0.176943 0.397800 0.099815
H7    H     H_    0.114263 0.822992 0.397618 0.099841
H8    H     H_    0.884803 0.176389 0.601525 0.099778
H9    H     H_    0.204394 0.340369 0.363685 0.112326
H10   H     H_    0.795933 0.660075 0.637354 0.112317
H11   H     H_    0.796058 0.339498 0.638291 0.112307
H12   H     H_    0.647720 0.568406 0.532286 0.107469
H13   H     H_    0.204393 0.659519 0.363907 0.112329
H14   H     H_    0.704073 0.839820 0.362428 0.112317
H15   H     H_    0.295726 0.159599 0.636233 0.112334
H16   H     H_    0.295601 0.840489 0.636081 0.112328
H17   H     H_    0.703919 0.160301 0.362057 0.112301
H18   H     H_    0.189690 0.313309 0.476619 0.129047
H19   H     H_    0.810629 0.686751 0.524019 0.129227
H20   H     H_    0.810823 0.313214 0.524412 0.129376
H21   H     H_    0.189741 0.686680 0.476722 0.129002
H22   H     H_    0.689362 0.813248 0.475960 0.129257
H23   H     H_    0.648390 0.431507 0.533716 0.107416
H24   H     H_    0.310311 0.186692 0.523375 0.129025
H25   H     H_    0.310259 0.813320 0.523279 0.129001
H26   H     H_    0.689196 0.186780 0.475632 0.129327
H27   H     H_    0.453597 0.423864 0.601709 0.132674
H28   H     H_    0.445655 0.396001 0.668417 0.130694
H29   H     H_    0.480170 0.371899 0.626168 0.132719
H30   H     H_    0.547509 0.575745 0.399746 0.132740
H31   H     H_    0.520543 0.627619 0.374577 0.132748
H32   H     H_    0.555481 0.603448 0.332916 0.130673
H33   H     H_    0.548383 0.424599 0.400811 0.132783
H34   H     H_    0.353343 0.568305 0.469768 0.107529
H35   H     H_    0.556504 0.397101 0.333925 0.130668
H36   H     H_    0.521093 0.372807 0.374879 0.132737
H37   H     H_    0.453792 0.576211 0.601941 0.132671
H38   H     H_    0.480302 0.628193 0.626226 0.132719
H39   H     H_    0.445913 0.604130 0.668654 0.130684
H40   H     H_    0.952335 0.924330 0.600063 0.132757
H41   H     H_    0.944313 0.896695 0.666908 0.130669
H42   H     H_    0.979371 0.872475 0.625450 0.132732
H43   H     H_    0.046490 0.076107 0.398427 0.132677
H44   H     H_    0.019877 0.128067 0.374068 0.132735
H45   H     H_    0.852169 0.931564 0.467392 0.107453
H46   H     H_    0.054315 0.104028 0.331669 0.130675
H47   H     H_    0.046194 0.923786 0.398026 0.132669
H48   H     H_    0.054076 0.895863 0.331321 0.130684
H49   H     H_    0.019689 0.871802 0.373753 0.132715
H50   H     H_    0.951920 0.075514 0.599581 0.132771
H51   H     H_    0.979095 0.127339 0.625178 0.132738
H52   H     H_    0.943892 0.103118 0.666451 0.130655
H53   H     H_    0.254074 0.442816 0.337709 0.125395
H54   H     H_    0.218432 0.396756 0.280254 0.140482
H55   H     H_    0.184950 0.421015 0.323716 0.132685
H56   H     H_    0.146942 0.068288 0.530586 0.107509
H57   H     H_    0.746763 0.557693 0.664330 0.125442
H58   H     H_    0.815854 0.579566 0.678333 0.132737
H59   H     H_    0.781976 0.603940 0.721217 0.140487
H60   H     H_    0.747236 0.441781 0.666178 0.125460
H61   H     H_    0.782004 0.395344 0.722488 0.140533
H62   H     H_    0.816381 0.419872 0.680366 0.132677
H63   H     H_    0.254108 0.557035 0.338120 0.125386
H64   H     H_    0.185025 0.578832 0.324226 0.132699
H65   H     H_    0.218338 0.603043 0.280520 0.140457
H66   H     H_    0.753177 0.942164 0.335191 0.125436
H67   H     H_    0.146646 0.931701 0.530196 0.107524
H68   H     H_    0.718055 0.895868 0.278456 0.140485
H69   H     H_    0.684055 0.920301 0.321118 0.132691
H70   H     H_    0.246199 0.057097 0.662203 0.125386
H71   H     H_    0.315223 0.078931 0.675997 0.132725
H72   H     H_    0.281909 0.103130 0.719725 0.140468
H73   H     H_    0.245872 0.942974 0.661846 0.125379
H74   H     H_    0.281654 0.896970 0.719454 0.140460
H75   H     H_    0.314960 0.921185 0.675743 0.132694
H76   H     H_    0.752815 0.057940 0.334566 0.125443
H77   H     H_    0.683727 0.079847 0.320515 0.132697
H78   H     H_    0.851787 0.068413 0.466838 0.107427
H79   H     H_    0.717822 0.104283 0.277969 0.140493
H80   H     H_    0.385601 0.323079 0.602318 0.099847
O1    O     O_3   0.500000 0.250010 0.500000 -0.399610
O2    O     O_R   0.008350 0.334000 0.455930 -0.527815
O3    O     O_R   0.008350 0.666000 0.455930 -0.527821
O4    O     O_R   0.991650 0.334000 0.544070 -0.527806
O5    O     O_R   0.552380 0.334020 0.544040 -0.525250
O6    O     O_R   0.447620 0.665980 0.455960 -0.525142
O7    O     O_R   0.447620 0.334020 0.455960 -0.525105
O8    O     O_R   0.552380 0.665980 0.544040 -0.525231
O9    O     O_R   0.052380 0.834020 0.544040 -0.525133
O10   O     O_R   0.947620 0.165980 0.455960 -0.525246
O11   O     O_R   0.947620 0.834020 0.455960 -0.525235
O12   O     O_3   0.500000 0.749990 0.500000 -0.399613
O13   O     O_R   0.052380 0.165980 0.544040 -0.525121
O14   O     O_R   0.593780 0.227990 0.455960 -0.543782
O15   O     O_R   0.406220 0.772010 0.544040 -0.543789
O16   O     O_R   0.406220 0.227990 0.544040 -0.543796
O17   O     O_R   0.593780 0.772010 0.455960 -0.543797
O18   O     O_R   0.093780 0.727990 0.455960 -0.543789
O19   O     O_R   0.906220 0.272010 0.544040 -0.543800
O20   O     O_R   0.906220 0.727990 0.544040 -0.543786
O21   O     O_R   0.093780 0.272010 0.455960 -0.543794
O22   O     O_R   0.362170 0.272040 0.455960 -0.524199
O23   O     O_3   0.000000 0.750010 0.500000 -0.399614
O24   O     O_R   0.637830 0.727960 0.544040 -0.524203
O25   O     O_R   0.637830 0.272040 0.544040 -0.524224
O26   O     O_R   0.362170 0.727960 0.455960 -0.524184
O27   O     O_R   0.862170 0.772040 0.455960 -0.524210
O28   O     O_R   0.137830 0.227960 0.544040 -0.524199
O29   O     O_R   0.137830 0.772040 0.544040 -0.524187
O30   O     O_R   0.862170 0.227960 0.455960 -0.524213
O31   O     O_R   0.446360 0.228000 0.332000 -0.528196
O32   O     O_R   0.553640 0.772000 0.668000 -0.528198
O33   O     O_R   0.553640 0.228000 0.668000 -0.528185
O34   O     O_3   0.000000 0.249990 0.500000 -0.399612
O35   O     O_R   0.446360 0.772000 0.332000 -0.528196
O36   O     O_R   0.946360 0.728000 0.332000 -0.528195
O37   O     O_R   0.053640 0.272000 0.668000 -0.528206
O38   O     O_R   0.053640 0.728000 0.668000 -0.528193
O39   O     O_R   0.946360 0.272000 0.332000 -0.528191
O40   O     O_R   0.385640 0.272040 0.331990 -0.528158
O41   O     O_R   0.614360 0.727960 0.668010 -0.528201
O42   O     O_R   0.614360 0.272040 0.668010 -0.528232
O43   O     O_R   0.385640 0.727960 0.331990 -0.528168
O44   O     O_R   0.885640 0.772040 0.331990 -0.528212
O45   O     O_R   0.491650 0.166000 0.544070 -0.527819
O46   O     O_R   0.114360 0.227960 0.668010 -0.528146
O47   O     O_R   0.114360 0.772040 0.668010 -0.528166
O48   O     O_R   0.885640 0.227960 0.331990 -0.528211
O49   O     O_R   0.508350 0.834000 0.455930 -0.527800
O50   O     O_R   0.508350 0.166000 0.455930 -0.527814
O51   O     O_R   0.491650 0.834000 0.544070 -0.527822
O52   O     O_R   0.991650 0.666000 0.544070 -0.527805
Zn1   Zn    Zn3+2 0.574840 0.281480 0.562930 0.952827
Zn2   Zn    Zn3+2 0.488090 0.781450 0.562930 0.946762
Zn3   Zn    Zn3+2 0.488090 0.218550 0.562930 0.946760
Zn4   Zn    Zn3+2 0.511910 0.781450 0.437070 0.946802
Zn5   Zn    Zn3+2 0.011910 0.718550 0.437070 0.946761
Zn6   Zn    Zn3+2 0.988090 0.281450 0.562930 0.946819
Zn7   Zn    Zn3+2 0.988090 0.718550 0.562930 0.946815
Zn8   Zn    Zn3+2 0.011910 0.281450 0.437070 0.946758
Zn9   Zn    Zn3+2 0.425160 0.718520 0.437070 0.952939
Zn10  Zn    Zn3+2 0.425160 0.281480 0.437070 0.952975
Zn11  Zn    Zn3+2 0.574840 0.718520 0.562930 0.952838
Zn12  Zn    Zn3+2 0.074840 0.781480 0.562930 0.952954
Zn13  Zn    Zn3+2 0.925160 0.218520 0.437070 0.952836
Zn14  Zn    Zn3+2 0.925160 0.781480 0.437070 0.952833
Zn15  Zn    Zn3+2 0.074840 0.218520 0.562930 0.952959
Zn16  Zn    Zn3+2 0.511910 0.218550 0.437070 0.946837

loop_
_geom_bond_atom_site_label_1
_geom_bond_atom_site_label_2
_ccdc_geom_bond_type
C59   H48   S    
O19   Zn6   S    
C70   C150  A    
O36   Zn5   S    
C12   C23   S    
C126  C135  A    
C143  O11   A    
C124  C133  A    
C128  C139  T    
C8    O31   A    
C13   C108  A    
C57   C59   S    
O30   Zn13  S    
C115  C136  A    
C91   H13   S    
C114  C137  A    
C37   C42   T    
C131  C140  A    
C55   H39   S    
C152  C156  S    
C142  O6    A    
C76   H6    S    
C115  C124  A    
C52   H27   S    
C151  C155  S    
C91   C100  A    
O22   Zn10  S    
C53   H30   S    
O41   Zn11  S    
C88   C97   A    
C97   C105  A    
O43   Zn9   S    
C58   H44   S    
C100  C109  A    
C63   H62   S    
C102  C111  A    
C54   H36   S    
C127  C136  A    
C101  C110  A    
C82   C91   A    
C64   H63   S    
C103  C112  A    
C119  H22   S    
C131  C158  S    
O16   Zn3   S    
O9    Zn12  S    
O45   Zn3   S    
C75   H5    S    
C121  C135  A    
C60   H52   S    
C154  C155  T    
C12   O44   A    
C81   C90   A    
O37   Zn6   S    
C79   C137  S    
C9    O32   A    
C96   C104  A    
C148  C153  T    
C10   O33   A    
C2    C71   A    
C130  C138  A    
C13   C54   S    
C84   C147  S    
C88   H9    S    
C143  O9    A    
C70   C79   A    
C1    O50   A    
C69   H76   S    
C15   O38   A    
C7    C123  S    
C2    C53   S    
O29   Zn12  S    
O42   Zn1   S    
C13   C72   A    
O50   Zn16  S    
C62   H59   S    
C10   O42   A    
C82   C138  S    
O27   Zn14  S    
C74   H4    S    
C122  C131  A    
C55   H37   S    
C45   C50   T    
C72   H3    S    
C52   H29   S    
C53   H32   S    
C129  C137  A    
O52   Zn7   S    
C118  C138  A    
C76   C85   A    
C56   H40   S    
C78   C87   A    
C81   C140  S    
O46   Zn15  S    
C11   C18   S    
C123  C132  A    
C1    C145  S    
C65   C101  S    
C121  C130  A    
C67   C103  S    
C99   C108  A    
C5    O30   A    
C33   C42   S    
C122  H26   S    
C122  C134  A    
C63   C99   S    
O17   Zn4   S    
C85   C93   A    
C49   C117  S    
O6    Zn9   S    
C114  H18   S    
C90   H11   S    
O13   Zn15  S    
C141  O5    A    
C32   C41   S    
O14   Zn16  S    
C46   C58   S    
C160  O22   A    
C87   C134  S    
C70   H80   S    
O15   Zn2   S    
C64   H65   S    
C8    C19   S    
C120  C129  A    
C62   H57   S    
C38   C41   T    
C56   H41   S    
C92   H14   S    
C3    O17   A    
C66   H71   S    
C93   H15   S    
C158  O14   A    
C84   O52   A    
O25   Zn1   S    
C15   O47   A    
C19   C28   T    
C120  H24   S    
C114  C123  A    
C113  H78   S    
C116  C125  A    
C105  H1    S    
C90   C99   A    
O28   Zn15  S    
C59   H47   S    
C4    O29   A    
C35   C56   S    
C36   C39   T    
O20   Zn7   S    
C77   H7    S    
C68   C113  A    
C78   H8    S    
C65   H69   S    
C89   C98   A    
O47   Zn12  S    
O23   Zn12  S    
C28   C37   S    
C14   O46   A    
C141  O7    A    
C30   C39   S    
C7    O21   A    
C110  H45   S    
C104  C113  A    
C86   C135  S    
C52   C150  S    
C3    O24   A    
C5    C125  S    
C112  H67   S    
C73   O49   A    
C61   H55   S    
C129  C160  S    
C59   H49   S    
C25   C33   T    
O1    Zn10  S    
C51   C139  S    
C125  C134  A    
C67   H74   S    
O10   Zn13  S    
C63   H61   S    
C11   O43   A    
C1    O45   A    
C159  O26   A    
C105  C150  A    
O1    Zn1   S    
C58   H46   S    
O18   Zn5   S    
C5    O19   A    
C31   C40   S    
C64   H64   S    
C6    O20   A    
O33   Zn3   S    
C80   C89   A    
C48   C106  S    
O23   Zn7   S    
C96   H17   S    
C72   C81   A    
C95   O4    A    
C158  O25   A    
C120  C132  A    
C46   C111  A    
C74   C82   A    
C79   C88   A    
O34   Zn15  S    
C107  H12   S    
C68   C78   A    
C18   C27   T    
O4    Zn6   S    
C61   H53   S    
C57   C77   A    
C111  H56   S    
C47   C51   T    
C47   C144  S    
C98   C107  A    
C63   H60   S    
C149  C154  S    
O34   Zn8   S    
C9    C20   S    
O38   Zn7   S    
C159  O15   A    
O3    Zn5   S    
C35   C75   A    
C73   O51   A    
C53   H31   S    
C35   C110  A    
C92   C101  A    
C14   O37   A    
C58   H43   S    
C106  C117  T    
C34   C40   T    
C43   C141  S    
C50   C128  S    
C118  H21   S    
C144  O10   A    
C16   C22   S    
C54   H35   S    
C108  H23   S    
C61   C97   S    
C24   C109  A    
O23   Zn14  S    
C93   C102  A    
O1    Zn3   S    
C4    C126  S    
C27   C36   S    
C21   C30   T    
C80   C136  S    
O40   Zn10  S    
C23   C32   T    
C160  O16   A    
O24   Zn11  S    
C75   C83   A    
C65   H66   S    
C84   O3    A    
O23   Zn5   S    
C14   C25   S    
C153  C157  S    
C60   H51   S    
O48   Zn13  S    
C95   O2    A    
C55   H38   S    
C64   C100  S    
O1    Zn16  S    
C60   C68   S    
C44   C142  S    
C6    O27   A    
C45   C143  S    
C130  C159  S    
O12   Zn9   S    
C145  C149  T    
O34   Zn13  S    
C94   H16   S    
C44   C49   T    
C71   H2    S    
C66   C102  S    
O8    Zn11  S    
C6    C124  S    
C12   O36   A    
C46   C76   A    
C24   C55   S    
O2    Zn8   S    
C83   C92   A    
C67   H75   S    
C119  C133  A    
O12   Zn2   S    
C17   C26   T    
C62   H58   S    
C156  C157  T    
C89   H10   S    
C16   O39   A    
O34   Zn6   S    
C85   C132  S    
C3    C127  S    
C57   C112  A    
C56   H42   S    
C10   C17   S    
C66   H72   S    
C2    C107  A    
C86   C94   A    
C62   C98   S    
C26   C34   S    
O5    Zn1   S    
C16   O48   A    
C43   C48   T    
C54   H33   S    
O44   Zn14  S    
C71   C80   A    
C8    O40   A    
C20   C29   T    
O49   Zn4   S    
C22   C31   T    
O51   Zn2   S    
O39   Zn8   S    
C146  C151  T    
C65   H68   S    
C29   C38   S    
C69   H79   S    
C87   C96   A    
O26   Zn9   S    
C9    O41   A    
C109  H34   S    
O12   Zn11  S    
O31   Zn16  S    
C11   O35   A    
O21   Zn8   S    
C77   C86   A    
C142  O8    A    
O7    Zn10  S    
C61   H54   S    
C69   C104  S    
C67   H73   S    
C4    O18   A    
O12   Zn4   S    
C95   C148  S    
C94   C103  A    
C52   H28   S    
C144  O13   A    
C66   H70   S    
C73   C146  S    
C116  H20   S    
C147  C152  T    
C24   C74   A    
C60   H50   S    
O11   Zn14  S    
C7    O28   A    
C83   C133  S    
O35   Zn4   S    
C121  H25   S    
C15   C21   S    
O32   Zn2   S    
C118  C126  A    
C69   H77   S    
C115  H19   S    
C119  C127  A    
C116  C140  A    
