data_mof_unit_44953.cif
_audit_creation_date              2012-12-11T17:10:38-0500
_audit_creation_method            fapswitch 2.2
_symmetry_space_group_name_H-M    P1
_symmetry_Int_Tables_number       1
_space_group_crystal_system       triclinic
_cell_length_a                    14.734157
_cell_length_b                    14.887472
_cell_length_c                    14.915603
_cell_angle_alpha                 110.209353
_cell_angle_beta                  109.306108
_cell_angle_gamma                 109.095286
_cell_volume                      2512.28856433

loop_
_atom_site_label
_atom_site_type_symbol
_atom_type_description
_atom_site_fract_x
_atom_site_fract_y
_atom_site_fract_z
_atom_type_partial_charge
C1    C     C_R   0.201763 0.292448 0.193364 -0.109325
C2    C     C_R   0.475323 0.565028 0.250381 -0.126508
C3    C     C_R   0.496027 0.801223 0.591001 -0.133139
C4    C     C_R   0.598814 0.506928 0.804447 -0.164601
C5    C     C_R   0.707194 0.398628 0.409790 -0.139328
C6    C     C_R   0.433636 0.802070 0.498768 0.080414
C7    C     C_R   0.797490 0.421444 0.501452 0.076342
C8    C     C_R   0.554164 0.548462 0.226125 0.067151
C9    C     C_R   0.826640 0.826970 0.775958 0.061802
C10   C     C_R   0.884877 0.122359 0.110444 -0.111549
C11   C     C_R   0.895483 0.207070 0.199444 -0.164870
C12   C     C_R   0.570531 0.569357 0.870234 0.019859
C13   C     C_R   0.958397 0.231810 0.307704 0.124026
C14   C     C_R   0.013531 0.172951 0.325349 -0.132590
C15   C     C_R   0.003635 0.089152 0.236229 -0.105244
C16   C     C_R   0.431853 0.185481 0.406705 -0.144802
C17   C     C_R   0.938136 0.062851 0.128821 -0.083766
C18   C     C_R   0.866123 0.306602 0.404915 -0.003914
C19   C     C_R   0.874792 0.376806 0.503473 -0.013065
C20   C     C_R   0.971541 0.420779 0.603570 0.035614
C21   C     C_R   0.068937 0.436832 0.601050 -0.232364
C22   C     C_R   0.067102 0.397542 0.500087 0.043128
C23   C     C_R   0.449156 0.172850 0.497609 0.067619
C24   C     C_R   0.964002 0.315702 0.403041 -0.038773
C25   C     C_R   0.055228 0.536424 0.809183 -0.170256
C26   C     C_R   0.052829 0.553369 0.906404 -0.128337
C27   C     C_R   0.966371 0.474749 0.903729 -0.172000
C28   C     C_R   0.275695 0.524377 0.590840 -0.122869
C29   C     C_R   0.881853 0.378505 0.803572 0.140940
C30   C     C_R   0.884313 0.360988 0.706098 -0.209598
C31   C     C_R   0.970683 0.440163 0.707898 0.103008
C32   C     C_R   0.639722 0.530511 0.018760 0.082791
C33   C     C_R   0.606572 0.596611 0.984651 0.041095
C34   C     C_R   0.171106 0.447233 0.498498 0.062109
C35   C     C_R   0.596648 0.677222 0.058856 -0.183532
C36   C     C_R   0.592968 0.671780 0.149611 -0.206499
C37   C     C_R   0.602926 0.588164 0.167824 0.057802
C38   C     C_R   0.642211 0.529273 0.111180 0.127572
C39   C     C_3   0.610306 0.409448 0.061475 -0.568508
C40   C     C_R   0.527292 0.276259 0.591113 -0.114008
C41   C     C_3   0.605526 0.410212 0.958933 -0.165110
C42   C     C_R   0.339934 0.874315 0.395302 0.160513
C43   C     C_R   0.393847 0.879326 0.495286 0.028625
C44   C     C_R   0.423849 0.970653 0.593024 -0.193741
C45   C     C_R   0.403372 0.707252 0.408044 -0.160134
C46   C     C_R   0.426380 0.065121 0.592180 -0.181103
C47   C     C_R   0.399986 0.068150 0.493886 0.027825
C48   C     C_R   0.343351 0.967687 0.394524 0.153636
C49   C     C_3   0.354002 0.937075 0.293079 -0.509513
C50   C     C_3   0.349511 0.834819 0.293702 -0.520862
C51   C     C_R   0.023554 0.124647 0.968463 0.130215
C52   C     C_R   0.183360 0.435003 0.406980 -0.130725
C53   C     C_R   0.123426 0.124145 0.008753 -0.029829
C54   C     C_R   0.129130 0.032469 0.944584 0.054389
C55   C     C_R   0.030933 0.935628 0.857812 -0.251092
C56   C     C_R   0.798350 0.491921 0.591738 -0.143237
C57   C     C_R   0.928583 0.931542 0.831514 0.033294
C58   C     C_R   0.926678 0.028903 0.880440 0.099199
C59   C     C_3   0.895147 0.088507 0.824333 -0.463240
C60   C     C_3   0.000243 0.192284 0.919412 -0.470521
C61   C     C_R   0.507848 0.599237 0.806583 0.070629
C62   C     C_R   0.293281 0.200847 0.194210 -0.150892
C63   C     C_R   0.202406 0.200892 0.127376 0.069416
C64   C     C_1   0.758419 0.216459 0.312983 0.027487
C65   C     C_1   0.792235 0.297919 0.800620 -0.016923
C66   C     C_1   0.491625 0.339290 0.863631 0.119531
C67   C     C_R   0.569990 0.474661 0.255725 -0.139752
C68   C     C_1   0.232518 0.034275 0.964183 0.023391
C69   C     C_1   0.489995 0.691082 0.846834 -0.028607
C70   C     C_R   0.722683 0.815348 0.749894 -0.128872
C71   C     C_R   0.816206 0.723613 0.749785 -0.127957
H1    H     H_    0.150675 0.325742 0.164995 0.093238
H2    H     H_    0.834901 0.102520 0.027175 0.114923
H3    H     H_    0.853873 0.252545 0.183973 0.113627
H4    H     H_    0.661917 0.485293 0.831531 0.103820
H5    H     H_    0.062606 0.190676 0.408003 0.117452
H6    H     H_    0.045625 0.043647 0.250351 0.111964
H7    H     H_    0.145564 0.480267 0.678102 0.125490
H8    H     H_    0.121970 0.599227 0.812827 0.118172
H9    H     H_    0.117873 0.627887 0.983943 0.118671
H10   H     H_    0.965288 0.489090 0.979599 0.108718
H11   H     H_    0.818799 0.286176 0.628748 0.128370
H12   H     H_    0.849151 0.520379 0.677192 0.116827
H13   H     H_    0.581452 0.737660 0.043192 0.150053
H14   H     H_    0.372977 0.124055 0.321350 0.110253
H15   H     H_    0.570778 0.724755 0.197461 0.130915
H16   H     H_    0.678995 0.397784 0.105201 0.182012
H17   H     H_    0.528845 0.355640 0.049214 0.207540
H18   H     H_    0.668694 0.395497 0.941541 0.128370
H19   H     H_    0.458322 0.975278 0.671768 0.132391
H20   H     H_    0.462788 0.138803 0.670342 0.138336
H21   H     H_    0.280452 0.918719 0.221068 0.190020
H22   H     H_    0.435737 0.993786 0.308223 0.205607
H23   H     H_    0.628342 0.446700 0.252863 0.112768
H24   H     H_    0.273029 0.757719 0.222391 0.185891
H25   H     H_    0.297463 0.553482 0.675596 0.108154
H26   H     H_    0.428381 0.834094 0.308920 0.201197
H27   H     H_    0.034304 0.862392 0.815097 0.135367
H28   H     H_    0.894723 0.061647 0.744655 0.202341
H29   H     H_    0.818886 0.089678 0.820319 0.188909
H30   H     H_    0.061654 0.226330 0.895642 0.201860
H31   H     H_    0.984804 0.253844 0.970203 0.184481
H32   H     H_    0.559951 0.297718 0.676365 0.102614
H33   H     H_    0.119983 0.384305 0.321184 0.113155
H34   H     H_    0.700601 0.879109 0.759976 0.103578
H35   H     H_    0.327504 0.149319 0.169796 0.111350
H36   H     H_    0.338856 0.670586 0.324336 0.102892
H37   H     H_    0.880922 0.702484 0.760172 0.099830
H38   H     H_    0.443582 0.618340 0.238305 0.096976
H39   H     H_    0.519099 0.853778 0.675114 0.092869
H40   H     H_    0.673802 0.339221 0.324799 0.106482
H41   H     H_    0.929027 0.996486 0.059951 0.107670
N1    N     N_R   0.291070 0.347930 0.293870 -0.042850
N2    N     N_R   0.497240 0.291100 0.443210 -0.039507
N3    N     N_R   0.347890 0.554050 0.556810 -0.041338
N4    N     N_R   0.554050 0.347900 0.556830 -0.040603
N5    N     N_R   0.291070 0.497250 0.443190 -0.043876
N6    N     N_R   0.497240 0.554030 0.706140 -0.060595
N7    N     N_R   0.347890 0.291110 0.293870 -0.041628
N8    N     N_R   0.445950 0.652100 0.443170 -0.038636
N9    N     N_1   0.672465 0.143958 0.239560 -0.089772
N10   N     N_1   0.720151 0.233157 0.798184 -0.106770
N11   N     N_1   0.402261 0.283828 0.788976 -0.096213
N12   N     N_R   0.708930 0.502750 0.556810 -0.041033
N13   N     N_1   0.315141 0.035217 0.978955 -0.092343
N14   N     N_1   0.475368 0.764894 0.878345 -0.093206
N15   N     N_R   0.502760 0.445970 0.293860 -0.039658
N16   N     N_R   0.652110 0.708890 0.706130 -0.042272
N17   N     N_R   0.708930 0.652070 0.706130 -0.041793
N18   N     N_R   0.445950 0.502780 0.293850 -0.040707
N19   N     N_R   0.502760 0.708900 0.556790 -0.038806
N20   N     N_R   0.652110 0.445950 0.443190 -0.041692
N21   N     N_R   0.554050 0.497220 0.706150 -0.048420
Ni1   Ni    Ni4+2 0.369690 0.500010 0.369700 0.207149
Ni2   Ni    Ni4+2 0.630310 0.499990 0.630300 0.212212
Ni3   Ni    Ni4+2 0.500000 0.369720 0.369720 0.214051
Ni4   Ni    Ni4+2 0.500000 0.630280 0.630280 0.225285

loop_
_geom_bond_atom_site_label_1
_geom_bond_atom_site_label_2
_ccdc_geom_bond_type
C25   C31   A    
C41   H18   S    
C2    H38   S    
C6    C45   A    
C27   C29   A    
N8    N19   A    
C59   H28   S    
C35   C36   A    
C39   H16   S    
N16   Ni4   S    
C3    C6    A    
N16   N17   A    
C39   C41   S    
N4    Ni2   S    
C15   H6    S    
C53   C54   A    
C26   C27   A    
C37   C38   A    
C3    N19   A    
C7    C56   A    
C22   C24   A    
C36   C37   A    
C30   C31   A    
C10   H2    S    
C50   H24   S    
C54   C68   S    
C10   C17   A    
C61   C69   S    
C23   C40   A    
N12   N20   A    
C18   C19   A    
C46   C47   A    
C53   C63   S    
C4    H4    S    
C33   C35   A    
N17   Ni2   S    
C5    N20   A    
N3    Ni4   S    
N3    N5    A    
C21   H7    S    
C67   H23   S    
C32   C41   S    
C32   C38   A    
C4    C12   A    
C29   C30   A    
N8    Ni1   S    
C52   N5    A    
C28   C34   A    
C59   C60   S    
N1    N7    A    
C21   C22   A    
C59   H29   S    
N18   Ni1   S    
C1    N1    A    
C39   H17   S    
C60   H31   S    
N5    Ni1   S    
C1    C63   A    
C44   C46   A    
C64   N9    T    
C38   C39   S    
C22   C34   S    
C1    H1    S    
C23   C47   S    
C27   H10   S    
N15   Ni3   S    
C5    C7    A    
C46   H20   S    
C5    H40   S    
C36   H15   S    
C25   C26   A    
C11   H3    S    
C26   H9    S    
C13   C24   S    
C51   C53   A    
C14   H5    S    
C30   H11   S    
C43   C44   A    
C62   C63   A    
N19   Ni4   S    
C28   N3    A    
C67   N15   A    
C71   N17   A    
C47   C48   A    
N20   Ni3   S    
C51   C58   A    
C42   C48   A    
C65   N10   T    
C9    C70   A    
C62   N7    A    
N6    N21   A    
C42   C50   S    
C29   C65   S    
C6    C43   S    
C45   N8    A    
C48   C49   S    
C69   N14   T    
C16   C23   A    
C7    C19   S    
N1    Ni1   S    
C55   C57   A    
C16   H14   S    
C18   C24   A    
C8    C37   S    
C49   H21   S    
C60   H30   S    
N6    Ni4   S    
C17   H41   S    
C56   N12   A    
C44   H19   S    
C56   H12   S    
C70   N16   A    
C15   C17   A    
C54   C55   A    
C52   H33   S    
C50   H26   S    
N12   Ni2   S    
C61   N6    A    
C25   H8    S    
C2    C8    A    
C9    C71   A    
C70   H34   S    
C16   N2    A    
N2    N4    A    
C35   H13   S    
C41   C66   S    
C62   H35   S    
C34   C52   A    
N7    Ni3   S    
C28   H25   S    
C32   C33   A    
C19   C20   A    
C58   C59   S    
N15   N18   A    
C40   H32   S    
C12   C61   A    
C11   C13   A    
C18   C64   S    
C57   C58   A    
C40   N4    A    
C55   H27   S    
C2    N18   A    
C9    C57   S    
C10   C11   A    
C66   N11   T    
C20   C21   A    
C8    C67   A    
C49   C50   S    
C42   C43   A    
N21   Ni2   S    
N2    Ni3   S    
C14   C15   A    
C51   C60   S    
C3    H39   S    
C49   H22   S    
C12   C33   S    
C13   C14   A    
C68   N13   T    
C45   H36   S    
C71   H37   S    
C4    N21   A    
C20   C31   S    
