data_mof_unit_67613.cif
_audit_creation_date              2012-10-26T20:08:15-0400
_audit_creation_method            fapswitch 2.2
_symmetry_space_group_name_H-M    P1
_symmetry_Int_Tables_number       1
_space_group_crystal_system       triclinic
_cell_length_a                    11.187854
_cell_length_b                    10.914935
_cell_length_c                    9.752481
_cell_angle_alpha                 92.079657
_cell_angle_beta                  91.815988
_cell_angle_gamma                 89.528266
_cell_volume                      1189.50922381

loop_
_atom_site_label
_atom_site_type_symbol
_atom_type_description
_atom_site_fract_x
_atom_site_fract_y
_atom_site_fract_z
_atom_type_partial_charge
C1    C     C_R   0.503206 0.262937 0.497923 0.530432
C2    C     C_R   0.414009 0.066883 0.563137 -0.005180
C3    C     C_R   0.505869 0.871458 0.501601 -0.026745
C4    C     C_R   0.502742 0.128273 0.493654 -0.034256
C5    C     C_R   0.462357 0.399903 0.064297 0.159487
C6    C     C_R   0.540329 0.598858 0.936242 0.229881
C7    C     C_R   0.462781 0.401133 0.918548 0.003527
C8    C     C_R   0.540684 0.597250 0.081784 0.024110
C9    C     C_R   0.262336 0.502716 0.499405 0.565108
C10   C     C_R   0.737132 0.497751 0.500942 0.540160
C11   C     C_R   0.168834 0.776211 0.138864 0.096952
C12   C     C_R   0.502470 0.736988 0.501387 0.535335
C13   C     C_R   0.817254 0.164125 0.752198 0.158440
C14   C     C_R   0.111584 0.729645 0.252001 0.086570
C15   C     C_R   0.887119 0.241710 0.675921 0.108211
C16   C     C_R   0.112059 0.601973 0.270832 0.008632
C17   C     C_R   0.885421 0.368797 0.705769 -0.006075
C18   C     C_R   0.148362 0.521871 0.165078 0.116716
C19   C     C_R   0.835158 0.414792 0.826600 0.113204
C20   C     C_R   0.211081 0.567496 0.058715 -0.095317
C21   C     C_R   0.763564 0.338640 0.900545 -0.099865
C22   C     C_R   0.223566 0.693953 0.045431 -0.017823
C23   C     C_R   0.871175 0.497753 0.500381 0.019734
C24   C     C_R   0.747727 0.215476 0.858332 -0.007427
C25   C     C_R   0.931299 0.541374 0.386942 0.012446
C26   C     C_R   0.065924 0.464007 0.616958 0.015049
C27   C     C_2   0.286375 0.737491 0.927470 0.255844
C28   C     C_2   0.656969 0.144409 0.925958 0.289355
C29   C     C_2   0.866394 0.566864 0.256124 0.277487
C30   C     C_2   0.125384 0.429686 0.748376 0.302206
C31   C     C_2   0.684096 0.858133 0.352784 0.291960
C32   C     C_2   0.317125 0.137219 0.628820 0.340853
C33   C     C_R   0.127442 0.505882 0.501838 0.019224
C34   C     C_R   0.940558 0.452637 0.610904 -0.025265
C35   C     C_R   0.056801 0.550049 0.390197 -0.013193
C36   C     C_R   0.590620 0.061051 0.422131 0.110660
C37   C     C_R   0.412726 0.938837 0.561082 0.121314
C38   C     C_R   0.592762 0.931832 0.426543 0.001003
Cu1   Cu    Cu3+1 0.500000 0.500020 0.640660 1.085276
Cu2   Cu    Cu3+1 0.500000 0.499980 0.359340 1.034205
H1    H     H_    0.431669 0.321855 0.858711 0.205063
H2    H     H_    0.278354 0.214705 0.576748 0.151056
H3    H     H_    0.572949 0.675818 0.142020 0.168804
H4    H     H_    0.247230 0.503623 0.983983 0.175689
H5    H     H_    0.716461 0.376402 0.987523 0.170487
H6    H     H_    0.316398 0.831353 0.924052 0.184591
H7    H     H_    0.639535 0.163551 0.032703 0.156484
H8    H     H_    0.855434 0.659517 0.221644 0.154507
H9    H     H_    0.090054 0.466189 0.842901 0.137615
H10   H     H_    0.723000 0.777773 0.399587 0.102417
I1    I     I_    0.161177 0.967601 0.100575 -0.114497
I2    I     I_    0.595222 0.773314 0.875340 -0.119079
I3    I     I_    0.827196 0.970494 0.716285 -0.128279
I4    I     I_    0.002059 0.847071 0.375095 -0.213058
I5    I     I_    0.005699 0.169441 0.524985 -0.162837
I6    I     I_    0.091496 0.336230 0.151130 -0.167400
I7    I     I_    0.868978 0.598505 0.895016 -0.279600
I8    I     I_    0.725328 0.156908 0.318482 -0.156796
I9    I     I_    0.253273 0.848656 0.610292 -0.150681
I10   I     I_    0.396277 0.230447 0.127723 -0.193890
N1    N     N_R   0.500030 0.500030 0.852070 -0.235152
N2    N     N_R   0.499970 0.499970 0.147930 -0.254597
O1    O     O_R   0.499990 0.319660 0.618740 -0.524067
O2    O     O_2   0.594752 0.070339 0.860757 -0.442329
O3    O     O_2   0.827955 0.481638 0.183963 -0.464023
O4    O     O_2   0.203367 0.351820 0.754154 -0.480027
O5    O     O_2   0.711587 0.881794 0.236608 -0.449412
O6    O     O_2   0.282882 0.111482 0.741852 -0.389668
O7    O     O_R   0.500010 0.680340 0.381260 -0.541972
O8    O     O_R   0.499990 0.319630 0.381170 -0.463325
O9    O     O_R   0.500010 0.680370 0.618830 -0.434624
O10   O     O_R   0.319650 0.500020 0.618780 -0.421931
O11   O     O_R   0.680350 0.499980 0.381220 -0.472110
O12   O     O_R   0.319640 0.500000 0.381210 -0.500351
O13   O     O_R   0.680360 0.500000 0.618790 -0.499421
O14   O     O_2   0.306022 0.667257 0.830867 -0.469825

loop_
_geom_bond_atom_site_label_1
_geom_bond_atom_site_label_2
_ccdc_geom_bond_type
C12   O7    A    
C4    C36   A    
C28   H7    S    
C8    H3    S    
C19   I7    S    
C31   O5    D    
Cu2   O8    S    
C6    N1    A    
C19   C21   A    
C36   I8    S    
C16   C35   S    
C10   O11   A    
Cu2   N2    S    
Cu2   O11   S    
C2    C32   S    
C7    N1    A    
C3    C12   S    
C17   C19   A    
C26   C34   A    
C3    C38   A    
Cu1   O10   S    
C9    O10   A    
Cu1   O13   S    
C13   I3    S    
C18   I6    S    
C32   O6    D    
C7    H1    S    
C9    C33   S    
C1    O1    A    
C20   H4    S    
C21   H5    S    
C25   C29   S    
Cu1   N1    S    
Cu2   O7    S    
C29   H8    S    
C11   C14   A    
C5    C7    A    
C6    C8    A    
C13   C24   A    
C15   I5    S    
C2    C4    A    
C10   O13   A    
C26   C33   A    
C23   C34   A    
C37   I9    S    
C30   O4    D    
C25   C35   A    
C29   O3    D    
C28   O2    D    
C27   H6    S    
C14   I4    S    
C30   H9    S    
C20   C22   A    
C26   C30   S    
C22   C27   S    
C13   C15   A    
C14   C16   A    
C9    O12   A    
C31   H10   S    
C27   O14   D    
Cu1   Cu2   S    
C15   C17   A    
C32   H2    S    
C5    I10   S    
C12   O9    A    
C24   C28   S    
C10   C23   S    
Cu1   O1    S    
C11   C22   A    
C1    O8    A    
C31   C38   S    
C1    C4    S    
C36   C38   A    
C2    C37   A    
C33   C35   A    
Cu2   O12   S    
C5    N2    A    
C18   C20   A    
C23   C25   A    
C11   I1    S    
C3    C37   A    
C16   C18   A    
C17   C34   S    
C21   C24   A    
Cu1   O9    S    
C6    I2    S    
C8    N2    A    
