data_mof_unit_37668.cif
_audit_creation_date              2012-12-10T20:44:48-0500
_audit_creation_method            fapswitch 2.2
_symmetry_space_group_name_H-M    P1
_symmetry_Int_Tables_number       1
_space_group_crystal_system       triclinic
_cell_length_a                    9.846341
_cell_length_b                    10.673996
_cell_length_c                    16.902029
_cell_angle_alpha                 89.32032
_cell_angle_beta                  94.584573
_cell_angle_gamma                 90.239512
_cell_volume                      1770.58234007

loop_
_atom_site_label
_atom_site_type_symbol
_atom_type_description
_atom_site_fract_x
_atom_site_fract_y
_atom_site_fract_z
_atom_type_partial_charge
C1    C     C_R   0.500134 0.260165 0.504148 0.886175
C2    C     C_R   0.502835 0.127959 0.513499 -0.128740
C3    C     C_R   0.409284 0.060374 0.557804 0.160002
C4    C     C_R   0.517775 0.500144 0.653191 0.855192
C5    C     C_R   0.410516 0.930061 0.553710 -0.252329
C6    C     C_R   0.504744 0.870772 0.509244 -0.135315
C7    C     C_R   0.610745 0.937719 0.479726 0.028934
C8    C     C_3   0.665948 0.933767 0.399491 -0.098684
C9    C     C_3   0.662935 0.076603 0.399871 -0.092635
C10   C     C_R   0.080197 0.541455 0.564064 0.224638
C11   C     C_R   0.063592 0.444777 0.440127 -0.139756
C12   C     C_R   0.654425 0.524801 0.781625 -0.218640
C13   C     C_R   0.919449 0.444793 0.440116 -0.142458
C14   C     C_R   0.937611 0.541146 0.564172 0.217258
C15   C     C_3   0.936530 0.669687 0.597576 -0.512082
C16   C     C_R   0.500557 0.739752 0.500638 0.898442
C17   C     C_3   0.090730 0.670441 0.596920 -0.524190
C18   C     C_R   0.482198 0.504781 0.346867 0.855430
C19   C     C_R   0.527767 0.507506 0.739012 -0.025494
C20   C     C_R   0.408330 0.502685 0.778608 -0.245614
C21   C     C_R   0.414780 0.517097 0.859753 -0.163124
C22   C     C_R   0.541539 0.537012 0.902667 0.332586
C23   C     C_R   0.579272 0.576134 0.142708 -0.157431
C24   C     C_R   0.660885 0.539188 0.863360 -0.196361
C25   C     C_3   0.308913 0.121030 0.609146 -0.402713
C26   C     C_3   0.382236 0.179412 0.682756 -0.818021
C27   C     C_R   0.588124 0.556319 0.223790 -0.235541
C28   C     C_R   0.453323 0.561049 0.098162 0.327784
C29   C     C_R   0.471486 0.523077 0.261541 -0.030998
C30   C     C_R   0.344751 0.514277 0.217843 -0.215899
C31   C     C_R   0.336041 0.533706 0.136299 -0.192929
C32   C     C_R   0.607646 0.065163 0.480192 0.008865
H1    H     H_    0.686396 0.567003 0.256743 0.163316
H2    H     H_    0.671303 0.600213 0.114816 0.148127
H3    H     H_    0.144359 0.671721 0.657329 0.199003
H4    H     H_    0.758794 0.552526 0.896225 0.136969
H5    H     H_    0.747827 0.528669 0.751895 0.155838
H6    H     H_    0.253175 0.490636 0.246347 0.156656
H7    H     H_    0.320580 0.511831 0.888605 0.146682
H8    H     H_    0.238831 0.522698 0.102264 0.137207
H9    H     H_    0.309449 0.488449 0.746994 0.161404
H10   H     H_    0.862674 0.917597 0.452425 0.186305
H11   H     H_    0.799073 0.786786 0.408531 0.210629
H12   H     H_    0.337223 0.874934 0.583866 0.152987
H13   H     H_    0.467241 0.094413 0.345292 0.189159
H14   H     H_    0.563466 0.225350 0.344183 0.190515
H15   H     H_    0.460289 0.247702 0.666148 0.247772
H16   H     H_    0.307510 0.228498 0.717160 0.242772
H17   H     H_    0.432995 0.105263 0.721019 0.254753
H18   H     H_    0.244717 0.191239 0.575192 0.228975
H19   H     H_    0.236059 0.050275 0.629861 0.193180
H20   H     H_    0.595708 0.888885 0.353161 0.167565
H21   H     H_    0.764643 0.122864 0.401596 0.173760
H22   H     H_    0.111114 0.403834 0.391069 0.146342
H23   H     H_    0.858173 0.403745 0.391064 0.149404
H24   H     H_    0.885371 0.739046 0.555808 0.215448
H25   H     H_    0.901193 0.669732 0.658404 0.197983
H26   H     H_    0.128629 0.739750 0.554211 0.216199
N1    N     N_2   0.553554 0.547904 0.985805 -0.207299
N2    N     N_2   0.442404 0.562208 0.014730 -0.210205
N3    N     N_R   0.142860 0.499130 0.500540 -0.107194
N4    N     N_R   0.857210 0.499170 0.500530 -0.109671
N5    N     N_3   0.804776 0.884185 0.402372 -0.450287
N6    N     N_3   0.565483 0.128117 0.337909 -0.448087
O1    O     O_R   0.614690 0.316790 0.499990 -0.616375
O2    O     O_R   0.385350 0.316760 0.500000 -0.622683
O3    O     O_R   0.627460 0.498860 0.616130 -0.619772
O4    O     O_R   0.398120 0.498820 0.616130 -0.619970
O5    O     O_R   0.614650 0.683240 0.500000 -0.624232
O6    O     O_R   0.385310 0.683210 0.500010 -0.618197
O7    O     O_R   0.601880 0.501180 0.383870 -0.632056
O8    O     O_R   0.372540 0.501140 0.383870 -0.621319
Zn1   Zn    Zn3+2 0.653130 0.500020 0.499990 0.934004
Zn2   Zn    Zn3+2 0.346870 0.499980 0.500010 0.938038

loop_
_geom_bond_atom_site_label_1
_geom_bond_atom_site_label_2
_ccdc_geom_bond_type
O6    Zn2   S    
C4    O3    A    
C1    O1    A    
C25   H19   S    
N4    Zn1   S    
O5    Zn1   S    
C6    C7    A    
O3    Zn1   S    
C23   C27   A    
N3    Zn2   S    
C27   C29   A    
C9    N6    S    
C15   H25   S    
C8    H20   S    
H13   N6    S    
C19   C20   A    
C21   H7    S    
C26   H16   S    
C17   H26   S    
C23   H2    S    
C15   H24   S    
C1    O2    A    
C18   O7    A    
H11   N5    S    
N1    N2    D    
C22   N1    S    
C18   C29   S    
C24   H4    S    
C21   C22   A    
C27   H1    S    
C11   C13   A    
C30   C31   A    
C29   C30   A    
C11   H22   S    
C26   H15   S    
C12   C19   A    
C2    C32   A    
C25   C26   S    
C5    H12   S    
C20   H9    S    
C2    C3    A    
C28   N2    S    
C11   N3    A    
C18   O8    A    
C5    C6    A    
C22   C24   A    
C26   H17   S    
C10   N3    A    
C9    H21   S    
C13   N4    A    
C8    N5    S    
C6    C16   S    
C10   C17   S    
C14   N4    A    
C7    C8    S    
C3    C25   S    
C16   O6    A    
C20   C21   A    
C30   H6    S    
O8    Zn2   S    
C1    C2    S    
C10   C14   A    
O1    Zn1   S    
O7    Zn1   S    
C12   H5    S    
C15   C17   S    
C12   C24   A    
C14   C15   S    
C7    C32   A    
C17   H3    S    
C9    C32   S    
C3    C5    A    
C31   H8    S    
C23   C28   A    
C4    C19   S    
C4    O4    A    
H10   N5    S    
O4    Zn2   S    
C28   C31   A    
C25   H18   S    
C16   O5    A    
H14   N6    S    
C8    C9    S    
C13   H23   S    
O2    Zn2   S    
