data_mof_unit_21016.cif
_audit_creation_date              2012-12-10T16:56:33-0500
_audit_creation_method            fapswitch 2.2
_symmetry_space_group_name_H-M    P1
_symmetry_Int_Tables_number       1
_space_group_crystal_system       triclinic
_cell_length_a                    7.807472
_cell_length_b                    8.559023
_cell_length_c                    15.714653
_cell_angle_alpha                 90.357241
_cell_angle_beta                  87.977705
_cell_angle_gamma                 93.267049
_cell_volume                      1047.7521219

loop_
_atom_site_label
_atom_site_type_symbol
_atom_type_description
_atom_site_fract_x
_atom_site_fract_y
_atom_site_fract_z
_atom_type_partial_charge
C1    C     C_R   0.545303 0.794343 0.497812 0.959896
C2    C     C_3   0.401540 0.387090 0.026003 0.040347
C3    C     C_1   0.520213 0.501462 0.749917 -0.183094
C4    C     C_1   0.482350 0.502827 0.249981 -0.202231
C5    C     C_3   0.358593 0.522557 0.967218 0.487729
C6    C     C_3   0.663740 0.489298 0.032475 0.501755
C7    C     C_3   0.527642 0.503887 0.915743 -0.074621
C8    C     C_3   0.494609 0.507938 0.083802 -0.085099
C9    C     C_1   0.529937 0.502675 0.824839 0.012943
C10   C     C_1   0.480491 0.505515 0.174787 -0.031782
C11   C     C_3   0.747594 0.756802 0.943548 -0.848022
C12   C     C_R   0.454698 0.205657 0.502201 0.960533
C13   C     C_3   0.284929 0.248916 0.057754 -0.885633
C14   C     C_3   0.399181 0.805663 0.053646 -0.890168
C15   C     C_3   0.640790 0.214289 0.944368 -0.859368
C16   C     C_3   0.856603 0.571399 0.134807 0.102505
C17   C     C_3   0.039305 0.637581 0.130169 -0.812146
C18   C     C_3   0.134026 0.407301 0.891298 0.133164
C19   C     C_3   0.037079 0.445655 0.812417 -0.823895
C20   C     C_R   0.505548 0.500189 0.661626 0.895014
C21   C     C_R   0.494594 0.500071 0.338368 0.897518
C22   C     C_2   0.569141 0.957837 0.496586 -0.379933
C23   C     C_2   0.430862 0.042163 0.503446 -0.379668
C24   C     C_3   0.452450 0.643984 0.025156 0.094747
C25   C     C_3   0.571583 0.368770 0.974137 0.081287
C26   C     C_3   0.621937 0.623639 0.973270 0.064340
H1    H     H_    0.699995 0.008266 0.490040 0.181783
H2    H     H_    0.164744 0.290367 0.087246 0.263941
H3    H     H_    0.314585 0.853915 0.006258 0.260209
H4    H     H_    0.334145 0.799707 0.117213 0.245764
H5    H     H_    0.513895 0.886786 0.059760 0.241316
H6    H     H_    0.670951 0.143849 0.000372 0.250385
H7    H     H_    0.543072 0.148238 0.906654 0.234860
H8    H     H_    0.758734 0.236672 0.903988 0.240241
H9    H     H_    0.835958 0.504380 0.194940 0.174364
H10   H     H_    0.774636 0.674113 0.137047 0.137912
H11   H     H_    0.061371 0.719973 0.184075 0.201245
H12   H     H_    0.300008 0.991734 0.509995 0.181851
H13   H     H_    0.061528 0.701113 0.069159 0.290561
H14   H     H_    0.128732 0.542510 0.134083 0.273306
H15   H     H_    0.043977 0.344133 0.937133 0.194842
H16   H     H_    0.234848 0.326601 0.870647 0.124816
H17   H     H_    0.117750 0.525747 0.770271 0.275147
H18   H     H_    0.003644 0.336352 0.776755 0.209579
H19   H     H_    0.916315 0.500919 0.830523 0.254082
H20   H     H_    0.012073 0.383377 0.436482 0.193555
H21   H     H_    0.987929 0.616554 0.563561 0.194037
H22   H     H_    0.789286 0.828512 0.998898 0.231543
H23   H     H_    0.862760 0.709793 0.912125 0.272143
H24   H     H_    0.684458 0.832003 0.898215 0.243897
H25   H     H_    0.252875 0.169266 0.003975 0.227573
H26   H     H_    0.352324 0.182686 0.105630 0.255579
N1    N     N_2   0.950320 0.457950 0.477300 -0.175875
N2    N     N_2   0.049680 0.542050 0.522700 -0.176102
O1    O     O_R   0.389250 0.738570 0.505570 -0.611760
O2    O     O_3   0.200006 0.547060 0.929858 -0.598753
O3    O     O_R   0.610750 0.261430 0.494430 -0.611449
O4    O     O_R   0.678390 0.711630 0.491020 -0.630983
O5    O     O_R   0.321610 0.288370 0.508980 -0.630462
O6    O     O_R   0.355460 0.513480 0.630490 -0.616478
O7    O     O_R   0.644540 0.486520 0.369510 -0.621111
O8    O     O_R   0.644600 0.486540 0.615950 -0.619760
O9    O     O_R   0.355400 0.513460 0.384050 -0.617518
O10   O     O_3   0.827339 0.469305 0.064996 -0.604099
Zn1   Zn    Zn3+2 0.306940 0.517990 0.509710 0.942375
Zn2   Zn    Zn3+2 0.693060 0.482010 0.490290 0.941325

loop_
_geom_bond_atom_site_label_1
_geom_bond_atom_site_label_2
_ccdc_geom_bond_type
C5    O2    S    
C6    O10   S    
C19   H19   S    
C13   H2    S    
C3    C9    T    
C20   O6    A    
C23   H12   S    
O3    Zn2   S    
C15   H8    S    
C21   O7    A    
C7    C25   S    
C18   O2    S    
C14   H5    S    
O9    Zn1   S    
C1    O1    A    
C1    C22   S    
N2    Zn1   S    
C17   H11   S    
N1    N2    D    
O5    Zn1   S    
C4    C21   S    
C5    C24   S    
C12   C23   S    
C11   H22   S    
C6    C26   S    
C7    C26   S    
C13   H26   S    
C14   H4    S    
H21   N2    S    
C11   H23   S    
C12   O3    A    
H20   N1    S    
O1    Zn1   S    
C24   C26   S    
O6    Zn1   S    
C11   H24   S    
C2    C25   S    
C5    C7    S    
C22   H1    S    
C18   H16   S    
C16   H9    S    
C20   O8    A    
C2    C8    S    
C15   C25   S    
C6    C25   S    
C21   O9    A    
O8    Zn2   S    
C14   H3    S    
C4    C10   T    
C2    C5    S    
C13   H25   S    
C3    C20   S    
C19   H18   S    
C8    C10   S    
C18   C19   S    
C17   H13   S    
C18   H15   S    
C14   C24   S    
C7    C9    S    
C2    C13   S    
N1    Zn2   S    
C22   C23   D    
C6    C8    S    
C16   O10   S    
C11   C26   S    
C8    C24   S    
C1    O4    A    
C12   O5    A    
O7    Zn2   S    
O4    Zn2   S    
C16   H10   S    
C19   H17   S    
C16   C17   S    
C15   H7    S    
C17   H14   S    
C15   H6    S    
