data_mof_unit_41435.cif
_audit_creation_date              2012-12-10T19:05:51-0500
_audit_creation_method            fapswitch 2.2
_symmetry_space_group_name_H-M    P1
_symmetry_Int_Tables_number       1
_space_group_crystal_system       triclinic
_cell_length_a                    19.387255
_cell_length_b                    10.830257
_cell_length_c                    9.540881
_cell_angle_alpha                 90.232985
_cell_angle_beta                  89.959025
_cell_angle_gamma                 90.049336
_cell_volume                      2003.27099312

loop_
_atom_site_label
_atom_site_type_symbol
_atom_type_description
_atom_site_fract_x
_atom_site_fract_y
_atom_site_fract_z
_atom_type_partial_charge
C1    C     C_R   0.498534 0.262439 0.499533 0.787806
C2    C     C_R   0.291444 0.495129 0.499941 -0.248369
C3    C     C_R   0.929839 0.483307 0.500303 0.420877
C4    C     C_R   0.069919 0.482732 0.496739 0.459531
C5    C     C_R   0.816352 0.485958 0.628820 0.645409
C6    C     C_R   0.744534 0.490100 0.627449 -0.260435
C7    C     C_R   0.708378 0.494539 0.500286 -0.122924
C8    C     C_R   0.745293 0.493069 0.373848 -0.184489
C9    C     C_R   0.817102 0.488935 0.374584 -0.214920
C10   C     C_R   0.853612 0.485807 0.501813 -0.067398
C11   C     C_R   0.467678 0.064142 0.611457 0.062125
C12   C     C_R   0.367426 0.499064 0.500152 0.861616
C13   C     C_R   0.492477 0.129501 0.496179 -0.107406
C14   C     C_R   0.508813 0.064187 0.373032 -0.217724
C15   C     C_R   0.509419 0.935607 0.373319 -0.205202
C16   C     C_R   0.494832 0.871089 0.497515 -0.086006
C17   C     C_R   0.470075 0.937147 0.612842 0.126256
C18   C     C_3   0.489267 0.933840 0.764324 -0.500468
C19   C     C_3   0.484253 0.074570 0.764342 -0.193680
C20   C     C_R   0.558925 0.525970 0.073814 0.255517
C21   C     C_R   0.443586 0.463431 0.074188 -0.055860
C22   C     C_R   0.443552 0.463757 0.925623 -0.026550
C23   C     C_R   0.499638 0.737763 0.499989 0.806703
C24   C     C_R   0.559047 0.525313 0.926311 0.248340
C25   C     C_3   0.599742 0.641911 0.920941 -0.491221
C26   C     C_3   0.599221 0.643090 0.079845 -0.487660
C27   C     C_R   0.632521 0.498748 0.499952 0.821884
C28   C     C_R   0.253553 0.510165 0.624669 0.600748
C29   C     C_R   0.181822 0.505036 0.622230 -0.294410
C30   C     C_R   0.146133 0.485258 0.495968 -0.159130
C31   C     C_R   0.184105 0.469727 0.371170 0.659077
C32   C     C_R   0.255948 0.474744 0.373676 -0.348466
Cu1   Cu    Cu3+1 0.500000 0.499980 0.640670 0.967561
Cu2   Cu    Cu3+1 0.500000 0.500020 0.359330 0.945015
H1    H     H_    0.525094 0.887597 0.278832 0.155731
H2    H     H_    0.449645 0.885892 0.828651 0.217505
H3    H     H_    0.543029 0.901760 0.779995 0.181622
H4    H     H_    0.534525 0.121024 0.784402 0.164014
H5    H     H_    0.397516 0.435210 0.129069 0.152095
H6    H     H_    0.397452 0.436306 0.870615 0.203263
H7    H     H_    0.652007 0.627906 0.876002 0.201543
H8    H     H_    0.570080 0.718708 0.874432 0.210004
H9    H     H_    0.651237 0.629961 0.126000 0.197316
H10   H     H_    0.154276 0.517769 0.719993 0.222352
H11   H     H_    0.569193 0.721022 0.124962 0.207392
H12   H     H_    0.283758 0.461899 0.276216 0.195429
H13   H     H_    0.717321 0.489158 0.726501 0.169800
H14   H     H_    0.718808 0.494718 0.274095 0.165282
H15   H     H_    0.843923 0.488527 0.275001 0.200445
H16   H     H_    0.525009 0.111983 0.279164 0.162012
N1    N     N_R   0.033499 0.477631 0.375460 -0.118650
N2    N     N_R   0.964890 0.477899 0.377187 -0.225114
N3    N     N_R   0.966295 0.488097 0.621465 -0.120745
N4    N     N_R   0.034843 0.487839 0.619752 -0.222035
N5    N     N_R   0.500440 0.500930 0.147930 -0.193639
N6    N     N_R   0.500440 0.500890 0.852020 -0.199590
O1    O     O_R   0.500000 0.319640 0.618810 -0.588647
O2    O     O_R   0.500010 0.319680 0.381230 -0.586335
O3    O     O_R   0.400140 0.499970 0.618830 -0.533150
O4    O     O_R   0.400150 0.500010 0.381250 -0.598248
O5    O     O_R   0.499990 0.680320 0.618770 -0.573315
O6    O     O_R   0.500000 0.680360 0.381190 -0.582105
O7    O     O_R   0.599850 0.499990 0.618750 -0.586523
O8    O     O_R   0.599860 0.500030 0.381170 -0.583894
F1    F     F_    0.285295 0.531578 0.749165 -0.666083
C33   C     C_R   0.426207 0.122843 0.856252 0.169449
C34   C     C_R   0.432552 0.112077 0.002372 -0.154637
C35   C     C_R   0.380319 0.154903 0.091199 -0.146143
C36   C     C_R   0.321229 0.209262 0.035051 -0.123954
C37   C     C_R   0.314393 0.221317 0.890020 -0.118202
C38   C     C_R   0.366619 0.179092 0.800737 -0.121382
H17   H     H_    0.477962 0.069640 0.047135 0.125587
H18   H     H_    0.385679 0.146176 0.203623 0.150293
H19   H     H_    0.280947 0.242756 0.103972 0.165933
H20   H     H_    0.268828 0.264391 0.846678 0.176382
H21   H     H_    0.360191 0.191023 0.688974 0.124188
F2    F     F_    0.152365 0.448953 0.246520 -0.629790
F3    F     F_    0.848726 0.481616 0.754795 -0.641602

loop_
_geom_bond_atom_site_label_1
_geom_bond_atom_site_label_2
_ccdc_geom_bond_type
C3    N3    A    
C2    C12   S    
C7    C8    A    
N3    N4    A    
C11   C19   S    
C5    C6    A    
C28   C29   A    
C18   H3    S    
C18   C19   S    
C30   C31   A    
C15   C16   A    
Cu2   O6    S    
C7    C27   S    
C19   C33   S    
C2    C32   A    
C34   H17   S    
C26   H11   S    
C35   C36   A    
C12   O3    A    
C23   O6    A    
C31   C32   A    
C16   C17   A    
C37   C38   A    
C9    C10   A    
Cu1   N6    S    
C33   C34   A    
Cu2   N5    S    
Cu1   O3    S    
C13   C14   A    
Cu2   O4    S    
C20   N5    A    
C15   H1    S    
C26   H9    S    
C31   F2    S    
C6    H13   S    
C4    N1    A    
C34   C35   A    
C20   C24   A    
C9    H15   S    
C24   C25   S    
C25   H7    S    
C21   N5    A    
C8    C9    A    
C22   N6    A    
C25   C26   S    
N1    N2    A    
C8    H14   S    
C29   C30   A    
C19   H4    S    
C1    O1    A    
C33   C38   A    
C21   H5    S    
Cu1   O7    S    
C22   H6    S    
Cu2   O8    S    
C17   C18   S    
C36   H19   S    
C27   O7    A    
C16   C23   S    
C29   H10   S    
C1    C13   S    
C38   H21   S    
C11   C17   A    
Cu1   O1    S    
C4    N4    A    
C32   H12   S    
C25   H8    S    
C3    N2    A    
C6    C7    A    
C24   N6    A    
C28   F1    S    
C35   H18   S    
C5    C10   A    
C3    C10   S    
C1    O2    A    
C11   C13   A    
C14   H16   S    
C20   C26   S    
Cu1   Cu2   S    
C36   C37   A    
C27   O8    A    
C12   O4    A    
C23   O5    A    
Cu1   O5    S    
C37   H20   S    
Cu2   O2    S    
C14   C15   A    
C2    C28   A    
C5    F3    S    
C21   C22   A    
C18   H2    S    
C4    C30   S    
