data_mof_unit_15325.cif
_audit_creation_date              2012-10-26T18:27:32-0400
_audit_creation_method            fapswitch 2.2
_symmetry_space_group_name_H-M    P1
_symmetry_Int_Tables_number       1
_space_group_crystal_system       triclinic
_cell_length_a                    10.820806
_cell_length_b                    11.107788
_cell_length_c                    9.856401
_cell_angle_alpha                 110.158709
_cell_angle_beta                  99.885518
_cell_angle_gamma                 91.271499
_cell_volume                      1091.36052228

loop_
_atom_site_label
_atom_site_type_symbol
_atom_type_description
_atom_site_fract_x
_atom_site_fract_y
_atom_site_fract_z
_atom_type_partial_charge
Br1   Br    Br    0.698397 0.665562 0.977514 -0.218512
Br2   Br    Br    0.131139 0.010083 0.514377 -0.275029
Br3   Br    Br    0.591381 0.179743 0.737769 -0.381937
C1    C     C_R   0.500073 0.255726 0.443554 0.574076
C2    C     C_2   0.545472 0.935282 0.492639 0.255414
C3    C     C_2   0.511527 0.507831 0.080502 0.121956
C4    C     C_R   0.261919 0.494031 0.497380 0.572385
C5    C     C_2   0.487871 0.492347 0.919171 0.113485
C6    C     C_R   0.511416 0.744861 0.557706 0.580258
C7    C     C_R   0.737652 0.499232 0.500945 0.562556
C8    C     C_R   0.110068 0.258081 0.479354 0.211466
C9    C     C_R   0.053242 0.166431 0.523052 0.259248
C10   C     C_R   0.937418 0.187004 0.567862 0.268946
C11   C     C_R   0.875200 0.293749 0.559100 -0.108813
C12   C     C_R   0.059730 0.378325 0.499090 -0.011008
C13   C     C_R   0.934669 0.389834 0.522443 -0.086759
C14   C     C_R   0.126643 0.485634 0.489884 0.005337
C15   C     C_R   0.064642 0.591571 0.479199 -0.078783
C16   C     C_R   0.937094 0.594739 0.480601 0.239124
C17   C     C_R   0.871822 0.495111 0.503550 0.035665
C18   C     C_2   0.506899 0.119461 0.418930 -0.024852
C19   C     C_2   0.541746 0.074008 0.529476 0.159376
C20   C     C_2   0.515224 0.881851 0.587225 -0.013403
Cl1   Cl    Cl    0.320029 0.335658 0.027452 -0.388922
Cl2   Cl    Cl    0.214006 0.203302 0.357282 -0.489766
Cl3   Cl    Cl    0.864876 0.074976 0.625410 -0.379548
Cl4   Cl    Cl    0.863371 0.729141 0.461484 -0.393972
Cl5   Cl    Cl    0.597460 0.846812 0.328240 -0.475229
Cu1   Cu    Cu3+1 0.521920 0.521810 0.644910 1.130151
Cu2   Cu    Cu3+1 0.478080 0.478190 0.355090 1.188002
H1    H     H_    0.115919 0.672198 0.469261 0.177131
H2    H     H_    0.481009 0.053699 0.305657 0.174511
H3    H     H_    0.410449 0.425883 0.844797 0.179189
H4    H     H_    0.587982 0.575166 0.154992 0.197092
H5    H     H_    0.781488 0.301370 0.583575 0.174527
H6    H     H_    0.489247 0.940237 0.689933 0.146475
N1    N     N_2   0.445130 0.445430 0.137370 -0.076099
N2    N     N_2   0.554930 0.554500 0.862630 -0.121531
O1    O     O_R   0.511700 0.332330 0.577400 -0.488758
O2    O     O_R   0.474680 0.295500 0.332650 -0.432650
O3    O     O_R   0.338160 0.518420 0.622400 -0.521477
O4    O     O_R   0.301140 0.481590 0.377650 -0.435625
O5    O     O_R   0.525320 0.704500 0.667350 -0.468933
O6    O     O_R   0.488300 0.667670 0.422600 -0.476631
O7    O     O_R   0.698860 0.518410 0.622350 -0.477040
O8    O     O_R   0.661840 0.481580 0.377600 -0.501094

loop_
_geom_bond_atom_site_label_1
_geom_bond_atom_site_label_2
_ccdc_geom_bond_type
Cu1   N2    S    
C7    O8    A    
C8    C9    A    
Cu1   Cu2   S    
C2    Cl5   S    
C16   Cl4   S    
C16   C17   A    
C2    C20   D    
C1    O1    A    
C13   C17   A    
Br2   C9    S    
Cu1   O1    S    
C7    O7    A    
C14   C15   A    
C3    N1    D    
Cu2   O2    S    
C18   C19   D    
Cu1   O5    S    
C1    C18   S    
Cu2   O6    S    
C5    N2    D    
Br1   N2    S    
Cl1   N1    S    
C5    H3    S    
C4    O3    A    
C18   H2    S    
C11   C13   A    
C10   Cl3   S    
C6    O5    A    
C8    Cl2   S    
C12   C13   A    
C20   H6    S    
C3    H4    S    
C9    C10   A    
C15   C16   A    
C4    O4    A    
C7    C17   S    
C11   H5    S    
C12   C14   A    
C6    C20   S    
Br3   C19   S    
C3    C5    S    
C15   H1    S    
Cu1   O3    S    
C10   C11   A    
C8    C12   A    
Cu2   O8    S    
Cu2   O4    S    
C2    C19   S    
C1    O2    A    
Cu2   N1    S    
Cu1   O7    S    
C6    O6    A    
C4    C14   S    
