data_mof_unit_24061.cif
_audit_creation_date              2012-12-10T17:45:27-0500
_audit_creation_method            fapswitch 2.2
_symmetry_space_group_name_H-M    P1
_symmetry_Int_Tables_number       1
_space_group_crystal_system       triclinic
_cell_length_a                    11.508927
_cell_length_b                    10.631606
_cell_length_c                    10.000497
_cell_angle_alpha                 88.956689
_cell_angle_beta                  89.489515
_cell_angle_gamma                 91.994205
_cell_volume                      1222.64498667

loop_
_atom_site_label
_atom_site_type_symbol
_atom_type_description
_atom_site_fract_x
_atom_site_fract_y
_atom_site_fract_z
_atom_type_partial_charge
C1    C     C_R   0.511374 0.261396 0.502304 0.940994
C2    C     C_R   0.508625 0.871190 0.495290 -0.042745
C3    C     C_R   0.304690 0.380548 0.132079 0.422374
C4    C     C_R   0.282319 0.500377 0.500520 0.922972
C5    C     C_R   0.206360 0.354304 0.054823 -0.211412
C6    C     C_R   0.218371 0.341790 0.918626 -0.228202
C7    C     C_R   0.324621 0.371058 0.858883 -0.111032
C8    C     C_R   0.411913 0.437296 0.928080 0.118389
C9    C     C_R   0.408044 0.438933 0.072104 0.056055
C10   C     C_R   0.585949 0.559364 0.067820 0.009943
C11   C     C_R   0.584988 0.559265 0.925662 -0.088679
C12   C     C_R   0.829608 0.052429 0.579625 0.436098
C13   C     C_R   0.498682 0.738919 0.498585 0.840069
C14   C     C_R   0.717730 0.501856 0.499372 0.903331
C15   C     C_1   0.161728 0.500936 0.501271 -0.144122
C16   C     C_1   0.059412 0.501559 0.500603 0.026585
C17   C     C_1   0.940676 0.502234 0.499254 0.037227
C18   C     C_1   0.838361 0.502434 0.498546 -0.114968
C19   C     C_R   0.726266 0.119296 0.583794 0.269119
C20   C     C_R   0.681635 0.630723 0.130717 0.152015
C21   C     C_R   0.791731 0.578531 0.140591 -0.118023
C22   C     C_R   0.886228 0.650992 0.187029 -0.154209
C23   C     C_R   0.826275 0.926366 0.545503 -0.269000
C24   C     C_R   0.871964 0.776623 0.220502 -0.118109
C25   C     C_R   0.763348 0.830105 0.206853 -0.130101
C26   C     C_R   0.668274 0.757415 0.162426 -0.120054
C27   C     C_R   0.720476 0.865236 0.520554 -0.256815
C28   C     C_R   0.616837 0.932427 0.516427 0.058812
C29   C     C_R   0.620254 0.063010 0.536600 -0.065984
C30   C     C_R   0.515998 0.127815 0.510902 -0.067628
C31   C     C_R   0.410496 0.063604 0.488922 -0.125194
C32   C     C_R   0.406469 0.935202 0.482910 -0.205100
Cl1   Cl    Cl    0.728639 0.250695 0.687159 -0.562902
Cl2   Cl    Cl    0.964343 0.122046 0.625497 -0.586503
Cl3   Cl    Cl    0.299935 0.273318 0.266077 -0.630975
H1    H     H_    0.330302 0.113028 0.478921 0.200657
H2    H     H_    0.970678 0.610058 0.196000 0.145962
H3    H     H_    0.945227 0.832821 0.255921 0.150738
H4    H     H_    0.752814 0.927993 0.230688 0.158781
H5    H     H_    0.584999 0.800436 0.150184 0.147294
H6    H     H_    0.148162 0.300059 0.861130 0.215315
H7    H     H_    0.337095 0.339497 0.759229 0.212351
H8    H     H_    0.653917 0.608763 0.869577 0.156752
H9    H     H_    0.905196 0.873765 0.544652 0.186998
H10   H     H_    0.720946 0.765648 0.500921 0.158137
H11   H     H_    0.323691 0.885483 0.468917 0.147687
H12   H     H_    0.126271 0.317795 0.101261 0.197148
H13   H     H_    0.804213 0.482057 0.112173 0.147222
N1    N     N_R   0.498930 0.498800 0.142780 -0.124495
N2    N     N_R   0.498900 0.498720 0.857170 -0.109191
O1    O     O_R   0.500000 0.316780 0.614690 -0.597965
O2    O     O_R   0.499990 0.316750 0.385360 -0.553839
O3    O     O_R   0.334450 0.500030 0.614670 -0.643615
O4    O     O_R   0.334440 0.500000 0.385330 -0.583830
O5    O     O_R   0.500010 0.683250 0.614640 -0.609724
O6    O     O_R   0.500000 0.683220 0.385310 -0.629173
O7    O     O_R   0.665560 0.500000 0.614670 -0.567427
O8    O     O_R   0.665550 0.499970 0.385330 -0.624889
Zn1   Zn    Zn3+2 0.500010 0.500020 0.653130 0.988602
Zn2   Zn    Zn3+2 0.499990 0.499980 0.346870 0.988277

loop_
_geom_bond_atom_site_label_1
_geom_bond_atom_site_label_2
_ccdc_geom_bond_type
C24   H3    S    
C24   C25   A    
C11   H8    S    
C6    C7    A    
C3    C9    A    
C23   C27   A    
C4    O3    A    
C1    O1    A    
C14   C18   S    
C31   C32   A    
C3    Cl3   S    
C3    C5    A    
C13   O6    A    
C26   H5    S    
C21   H13   S    
C4    C15   S    
C22   H2    S    
C17   C18   T    
O3    Zn1   S    
C7    C8    A    
C11   N2    A    
O4    Zn2   S    
C21   C22   A    
C25   H4    S    
C5    H12   S    
C12   C23   A    
C27   H10   S    
C29   C30   A    
N1    Zn2   S    
C20   C26   A    
C5    C6    A    
N2    Zn1   S    
C12   C19   A    
C1    C30   S    
O5    Zn1   S    
C30   C31   A    
C14   O8    A    
C1    O2    A    
C22   C24   A    
O7    Zn1   S    
O1    Zn1   S    
C10   C11   A    
O8    Zn2   S    
C15   C16   T    
C19   C29   A    
C8    N2    A    
C9    N1    A    
C20   C21   A    
C2    C32   A    
C19   Cl1   S    
C7    H7    S    
C10   C20   S    
C27   C28   A    
C14   O7    A    
C2    C13   S    
C31   H1    S    
C28   C29   A    
C2    C28   A    
O2    Zn2   S    
C4    O4    A    
C25   C26   A    
C10   N1    A    
C12   Cl2   S    
C23   H9    S    
O6    Zn2   S    
C16   C17   S    
C32   H11   S    
C8    C9    A    
C13   O5    A    
C6    H6    S    
