data_mof_unit_33902.cif
_audit_creation_date              2013-03-05T15:50:50-0500
_audit_creation_method            fapswitch 2.2
_symmetry_space_group_name_H-M    P1
_symmetry_Int_Tables_number       1
_space_group_crystal_system       triclinic
_cell_length_a                    9.61618
_cell_length_b                    10.809066
_cell_length_c                    15.371735
_cell_angle_alpha                 86.917117
_cell_angle_beta                  74.57499
_cell_angle_gamma                 88.951811
_cell_volume                      1537.97292293

loop_
_atom_site_label
_atom_site_type_symbol
_atom_site_description
_atom_site_fract_x
_atom_site_fract_y
_atom_site_fract_z
_atom_type_partial_charge
O1    O     O_R   0.118810 0.319640 0.500010 -0.607135
O2    O     O_R   0.881240 0.319660 0.500000 -0.569727
C1    C     C_R   0.006489 0.263754 0.489100 0.856934
O3    O     O_R   0.055570 0.499980 0.629840 -0.627248
O4    O     O_R   0.818000 0.500010 0.629830 -0.565582
C2    C     C_R   0.918893 0.503487 0.672505 0.775749
Cu1   Cu    Cu3+1 0.140660 0.499990 0.500010 0.920314
Cu2   Cu    Cu3+1 0.859340 0.500010 0.499990 0.938100
O5    O     O_R   0.118760 0.680340 0.500000 -0.607536
O6    O     O_R   0.881190 0.680360 0.499990 -0.594650
O7    O     O_R   0.182000 0.499990 0.370170 -0.579967
O8    O     O_R   0.944430 0.500020 0.370160 -0.602403
C3    C     C_R   0.997531 0.737724 0.504180 0.790767
C4    C     C_R   0.081536 0.497999 0.327811 0.804292
C5    C     C_R   0.875421 0.508655 0.772380 -0.144441
C6    C     C_R   0.127781 0.482472 0.229943 -0.029671
C7    C     C_R   0.918453 0.544896 0.917669 -0.195309
C8    C     C_R   0.969694 0.545502 0.823445 -0.004695
C9    C     C_R   0.732497 0.476166 0.817439 -0.232060
C10   C     C_R   0.678787 0.480293 0.911813 0.096943
C11   C     C_R   0.775061 0.515351 0.961453 0.117668
C12   C     C_R   0.531240 0.455526 0.957942 0.046852
C13   C     C_R   0.481222 0.477099 0.051828 0.066296
C14   C     C_R   0.583161 0.505712 0.099167 -0.199415
C15   C     C_R   0.727055 0.524023 0.054644 -0.229734
C16   C     C_R   0.431934 0.410134 0.913903 -0.157091
C17   C     C_R   0.287446 0.392319 0.959256 -0.142003
C18   C     C_R   0.235322 0.422320 0.049118 0.140537
C19   C     C_R   0.331167 0.467087 0.095832 0.094537
C20   C     C_R   0.088040 0.407527 0.093104 -0.207854
C21   C     C_R   0.034698 0.436354 0.183360 -0.185723
C22   C     C_R   0.273053 0.501840 0.185014 -0.200993
H1    H     H_    0.800772 0.548219 0.093467 0.147599
H2    H     H_    0.338699 0.545033 0.221452 0.138157
H3    H     H_    0.922011 0.419847 0.217123 0.159302
H4    H     H_    0.215377 0.356623 0.923094 0.172758
H5    H     H_    0.989010 0.573962 0.957241 0.176770
H6    H     H_    0.663377 0.451159 0.776618 0.163892
H7    H     H_    0.556071 0.512394 0.171420 0.153971
H8    H     H_    0.462595 0.384489 0.844643 0.172294
H9    H     H_    0.014644 0.371490 0.058089 0.143105
C23   C     C_R   0.282327 0.108302 0.469351 0.016283
C24   C     C_R   0.376983 0.050683 0.514187 -0.212359
H10   H     H_    0.482371 0.088494 0.507063 0.131579
C25   C     C_R   0.338215 0.941406 0.566127 -0.107884
H11   H     H_    0.411094 0.898245 0.601690 0.153137
C26   C     C_R   0.210313 0.882959 0.566733 -0.138060
H12   H     H_    0.185530 0.796558 0.605839 0.144092
C27   C     C_R   0.115458 0.937427 0.519341 0.056770
C28   C     C_R   0.139858 0.060756 0.485439 0.039718
C29   C     C_R   0.019473 0.130198 0.472283 -0.122637
C30   C     C_R   0.901587 0.067137 0.457203 0.244286
H13   H     H_    0.804595 0.890091 0.457995 0.177123
C31   C     C_R   0.893532 0.938690 0.471397 -0.258526
C32   C     C_R   0.998134 0.873196 0.503628 -0.151043
H14   H     H_    0.593369 0.362690 0.602618 0.179053
C33   C     C_R   0.693249 0.662865 0.378944 -0.153280
H15   H     H_    0.805087 0.669280 0.373984 0.198130
C34   C     C_R   0.645668 0.743664 0.319662 -0.232446
H16   H     H_    0.720901 0.805679 0.273294 0.155279
C35   C     C_R   0.502147 0.745557 0.320109 -0.209909
H17   H     H_    0.465089 0.809210 0.274116 0.160838
C36   C     C_R   0.405473 0.666022 0.379366 -0.129400
H18   H     H_    0.298147 0.675905 0.373820 0.194623
C37   C     C_R   0.449253 0.580941 0.440548 0.194022
C38   C     C_R   0.598694 0.580265 0.440477 0.198535
N1    N     N_R   0.648320 0.501210 0.499140 -0.220407
C39   C     C_R   0.553106 0.424179 0.556875 -0.034541
C40   C     C_R   0.404679 0.423479 0.558201 0.035666
N2    N     N_R   0.352470 0.501290 0.499110 -0.251003
N3    N     N_2   0.792323 0.133839 0.427427 -0.403674
H19   H     H_    0.704507 0.155607 0.479233 0.250615
C41   C     C_3   0.756707 0.091676 0.348243 -0.700024
H20   H     H_    0.695573 0.165516 0.321260 0.227240
H21   H     H_    0.688188 0.007686 0.365897 0.217631
H22   H     H_    0.856459 0.071694 0.294711 0.247135
C42   C     C_2   0.344201 0.202624 0.396070 0.408044
H23   H     H_    0.444111 0.248866 0.394658 0.045471
O9    O     O_2   0.287006 0.226585 0.335077 -0.545130
C43   C     C_2   0.309645 0.337064 0.625797 0.344645
H24   H     H_    0.198380 0.324513 0.628601 0.152480
O10   O     O_2   0.356165 0.276207 0.681303 -0.590320
C44   C     C_2   0.117489 0.593880 0.781606 0.360804
H25   H     H_    0.147195 0.634411 0.713555 0.089063
O11   O     O_2   0.207969 0.592631 0.824342 -0.555219

loop_
_geom_bond_atom_site_label_1
_geom_bond_atom_site_label_2
_geom_bond_distance
_ccdc_geom_bond_type
C5    C8    1.421963 A    
C36   C37   1.418070 A    
C41   H20   1.109778 S    
C9    C10   1.407408 A    
C33   C38   1.414187 A    
C23   C42   1.484763 S    
Cu1   N2    2.033468 S    
Cu1   Cu2   2.705301 S    
C26   C27   1.413170 A    
H13   C31   1.082415 S    
C6    C21   1.399323 A    
C5    C9    1.406094 A    
C16   C17   1.390566 A    
C13   C19   1.424777 A    
C18   C19   1.415981 A    
C19   C22   1.404609 A    
O4    C2    1.309799 A    
O7    C4    1.301786 A    
C33   C34   1.387113 A    
C37   N2    1.384935 A    
C14   H7    1.077340 S    
C35   C36   1.388371 A    
O5    C3    1.298395 A    
C2    C5    1.483866 S    
C44   H25   1.078938 S    
C39   C40   1.422166 A    
C13   C14   1.414518 A    
C20   H9    1.083626 S    
C42   H23   1.085657 S    
C25   C26   1.390550 A    
C38   N1    1.379200 A    
C34   H16   1.082953 S    
C41   H21   1.110069 S    
C35   H17   1.083031 S    
O3    Cu1   1.945173 S    
C30   C31   1.394130 A    
C8    C44   1.487191 S    
C42   O9    1.221300 D    
C34   C35   1.378100 A    
N1    C39   1.354760 A    
C14   C15   1.383436 A    
O3    C2    1.304336 A    
N3    C41   1.446957 S    
C1    C29   1.477435 S    
C28   C29   1.421565 A    
H14   C39   1.082226 S    
C7    C11   1.398426 A    
C29   C30   1.410132 A    
O1    C1    1.300297 A    
C22   H2    1.075726 S    
Cu1   O7    1.928587 S    
C24   H10   1.075806 S    
C9    H6    1.074834 S    
C26   H12   1.077916 S    
Cu2   O8    1.945173 S    
C7    C8    1.400044 A    
C7    H5    1.084881 S    
C24   C25   1.388512 A    
C23   C28   1.426204 A    
C43   O10   1.221765 D    
C44   O11   1.221249 D    
C10   C12   1.430340 A    
C37   C38   1.436645 A    
C41   H22   1.111559 S    
C21   H3    1.083220 S    
C23   C24   1.399359 A    
Cu1   O5    1.956919 S    
C11   C15   1.391057 A    
C31   C32   1.399906 A    
O1    Cu1   1.964524 S    
O2    Cu2   1.956919 S    
O8    C4    1.306310 A    
C43   H24   1.070135 S    
O6    C3    1.307000 A    
O4    Cu2   1.928587 S    
C17   H4    1.084405 S    
C6    C22   1.397930 A    
C18   C20   1.405651 A    
O2    C1    1.311780 A    
N3    H19   1.028503 S    
C30   N3    1.423347 S    
C27   C32   1.415923 A    
C16   H8    1.076577 S    
C33   H15   1.061015 S    
C20   C21   1.395415 A    
C4    C6    1.468907 S    
C40   N2    1.389062 A    
C36   H18   1.060953 S    
C25   H11   1.082618 S    
C10   C11   1.415162 A    
Cu2   N1    2.032521 S    
Cu2   O6    1.964524 S    
C27   C28   1.405490 A    
C12   C16   1.416932 A    
C17   C18   1.392266 A    
C12   C13   1.425253 A    
C40   C43   1.486266 S    
C15   H1    1.084279 S    
C3    C32   1.464007 S    
