data_mof_unit_38445.cif
_audit_creation_date              2012-12-10T20:48:19-0500
_audit_creation_method            fapswitch 2.2
_symmetry_space_group_name_H-M    P1
_symmetry_Int_Tables_number       1
_space_group_crystal_system       triclinic
_cell_length_a                    10.689361
_cell_length_b                    8.926086
_cell_length_c                    8.148806
_cell_angle_alpha                 89.999951
_cell_angle_beta                  89.993881
_cell_angle_gamma                 89.999791
_cell_volume                      777.511438963

loop_
_atom_site_label
_atom_site_type_symbol
_atom_type_description
_atom_site_fract_x
_atom_site_fract_y
_atom_site_fract_z
_atom_type_partial_charge
C1    C     C_R   0.500000 0.218165 0.500000 0.893442
C2    C     C_1   0.500000 0.934735 0.500000 -0.162517
C3    C     C_3   0.070399 0.642354 0.519670 -0.351988
C4    C     C_3   0.929600 0.642354 0.480327 -0.351986
C5    C     C_3   0.121644 0.479982 0.501396 -0.188627
C6    C     C_3   0.878356 0.479983 0.498602 -0.188632
C7    C     C_R   0.257808 0.487269 0.500425 0.893797
C8    C     C_R   0.742192 0.487270 0.499574 0.893794
C9    C     C_R   0.500000 0.781791 0.500000 0.920557
C10   C     C_1   0.500000 0.065232 0.500000 -0.148913
C11   C     C_3   0.068376 0.376359 0.643003 0.174281
C12   C     C_3   0.072222 0.412785 0.335122 0.225674
C13   C     C_3   0.927779 0.412785 0.664877 0.225683
C14   C     C_3   0.931625 0.376361 0.356993 0.174289
Cl1   Cl    Cl    0.148769 0.363559 0.835837 -0.434166
Cl2   Cl    Cl    0.098395 0.540447 0.166224 -0.408364
Cl3   Cl    Cl    0.901607 0.540447 0.833777 -0.408359
Cl4   Cl    Cl    0.851233 0.363569 0.164157 -0.434161
H1    H     H_    0.075782 0.258385 0.599719 0.041965
H2    H     H_    0.122686 0.306990 0.305715 0.106657
H3    H     H_    0.877315 0.306988 0.694281 0.106654
H4    H     H_    0.924218 0.258387 0.400274 0.041965
H5    H     H_    0.086810 0.683239 0.646770 0.247993
H6    H     H_    0.119123 0.722453 0.436797 0.203100
H7    H     H_    0.880876 0.722455 0.563199 0.203097
H8    H     H_    0.913189 0.683239 0.353227 0.247993
N1    N     N_1   0.500000 0.500030 0.073640 0.031246
N2    N     N_1   0.500000 0.500030 0.926360 0.031246
O1    O     O_R   0.500000 0.285340 0.636850 -0.613288
O2    O     O_R   0.500000 0.285340 0.363150 -0.613289
O3    O     O_R   0.314790 0.499970 0.636880 -0.562283
O4    O     O_R   0.314790 0.499970 0.363120 -0.588870
O5    O     O_R   0.685210 0.499970 0.636880 -0.588869
O6    O     O_R   0.685210 0.499970 0.363120 -0.562285
O7    O     O_R   0.500000 0.714650 0.636900 -0.611648
O8    O     O_R   0.500000 0.714650 0.363100 -0.611647
Zn1   Zn    Zn3+2 0.500000 0.499990 0.682780 1.083232
Zn2   Zn    Zn3+2 0.500000 0.499990 0.317220 1.083231

loop_
_geom_bond_atom_site_label_1
_geom_bond_atom_site_label_2
_ccdc_geom_bond_type
C9    O8    A    
C4    H8    S    
O4    Zn2   S    
C6    C14   S    
C14   Cl4   S    
C3    H5    S    
C13   Cl3   S    
C12   H2    S    
C1    O1    A    
C4    H7    S    
C13   H3    S    
C8    O6    A    
C6    C13   S    
C11   C13   S    
C11   H1    S    
C3    H6    S    
N2    Zn1   S    
O8    Zn2   S    
C1    O2    A    
O7    Zn1   S    
C12   C14   S    
C5    C11   S    
C5    C7    S    
C8    O5    A    
C14   H4    S    
C7    O3    A    
N1    Zn2   S    
C3    C4    S    
C2    C10   T    
C12   Cl2   S    
O2    Zn2   S    
C5    C12   S    
C4    C6    S    
O1    Zn1   S    
N1    N2    T    
C9    O7    A    
C6    C8    S    
C7    O4    A    
O6    Zn2   S    
C2    C9    S    
C11   Cl1   S    
O5    Zn1   S    
C1    C10   S    
O3    Zn1   S    
C3    C5    S    
