data_mof_unit_32259.cif
_audit_creation_date              2012-12-10T17:35:49-0500
_audit_creation_method            fapswitch 2.2
_symmetry_space_group_name_H-M    P1
_symmetry_Int_Tables_number       1
_space_group_crystal_system       triclinic
_cell_length_a                    10.463913
_cell_length_b                    12.171114
_cell_length_c                    12.864151
_cell_angle_alpha                 93.055994
_cell_angle_beta                  93.533929
_cell_angle_gamma                 88.030364
_cell_volume                      1632.11071021

loop_
_atom_site_label
_atom_site_type_symbol
_atom_type_description
_atom_site_fract_x
_atom_site_fract_y
_atom_site_fract_z
_atom_type_partial_charge
C1    C     C_R   0.490835 0.520658 0.699477 0.909239
C2    C     C_R   0.639857 0.163167 0.547825 -0.071941
C3    C     C_R   0.573979 0.860480 0.523179 0.488514
C4    C     C_R   0.426409 0.139151 0.476960 0.483659
C5    C     C_R   0.560124 0.977051 0.515772 -0.071222
C6    C     C_R   0.440001 0.022806 0.485586 -0.074436
C7    C     C_R   0.741788 0.500901 0.497763 0.965005
C8    C     C_R   0.258117 0.498992 0.501228 0.925093
C9    C     C_3   0.958493 0.400525 0.460929 -0.227774
C10   C     C_3   0.041369 0.599436 0.536528 -0.240442
C11   C     C_3   0.046431 0.419206 0.561237 -0.302711
C12   C     C_R   0.494314 0.478956 0.299725 0.902683
C13   C     C_3   0.953311 0.580689 0.436234 -0.296303
C14   C     C_3   0.123171 0.497922 0.501690 -0.127543
C15   C     C_3   0.876684 0.501949 0.496016 -0.135558
C16   C     C_3   0.036642 0.479896 0.403338 0.548491
C17   C     C_3   0.963413 0.520071 0.594228 0.559272
C18   C     C_R   0.472118 0.467681 0.187839 -0.153600
C19   C     C_R   0.466927 0.530802 0.808919 -0.176278
C20   C     C_R   0.442295 0.645877 0.964359 -0.171885
C21   C     C_R   0.463657 0.351656 0.030624 -0.183732
C22   C     C_R   0.457632 0.635498 0.858593 -0.305272
C23   C     C_R   0.451425 0.435640 0.864549 0.429254
C24   C     C_R   0.478382 0.362897 0.137885 -0.280996
C25   C     C_3   0.988399 0.456654 0.226543 0.081885
C26   C     C_3   0.041302 0.413145 0.124204 -0.819041
C27   C     C_3   0.014412 0.547437 0.770141 0.109193
C28   C     C_3   0.961059 0.584683 0.874002 -0.774432
C29   C     C_3   0.286926 0.682491 0.185991 0.087762
C30   C     C_3   0.254844 0.805352 0.185267 -0.776026
C31   C     C_3   0.311469 0.312702 0.789891 0.076217
C32   C     C_3   0.297027 0.194466 0.747778 -0.722973
C33   C     C_R   0.442654 0.561654 0.129919 0.427206
C34   C     C_R   0.451622 0.445722 0.972263 -0.005367
C35   C     C_R   0.444072 0.551534 0.022257 -0.005959
C36   C     C_R   0.337565 0.950553 0.463393 -0.204206
C37   C     C_R   0.662090 0.049606 0.539231 -0.188335
C38   C     C_R   0.359339 0.836986 0.455094 -0.102276
H1    H     H_    0.086925 0.354607 0.612394 0.177832
H2    H     H_    0.279935 0.784390 0.433445 0.169445
H3    H     H_    0.239292 0.979859 0.453290 0.229678
H4    H     H_    0.760462 0.020713 0.549454 0.227182
H5    H     H_    0.948969 0.541677 0.216108 0.136681
H6    H     H_    0.909853 0.402424 0.244608 0.143225
H7    H     H_    0.076870 0.326666 0.130938 0.263559
H8    H     H_    0.964581 0.415750 0.060726 0.214002
H9    H     H_    0.121347 0.464084 0.104095 0.237737
H10   H     H_    0.087019 0.607343 0.751994 0.131551
H11   H     H_    0.061451 0.464783 0.778545 0.105340
H12   H     H_    0.911132 0.644277 0.384516 0.186262
H13   H     H_    0.889070 0.526046 0.895154 0.251937
H14   H     H_    0.039870 0.588025 0.935917 0.191190
H15   H     H_    0.914784 0.667858 0.868599 0.270836
H16   H     H_    0.259014 0.650960 0.260645 0.187312
H17   H     H_    0.227687 0.641931 0.120629 0.118595
H18   H     H_    0.267885 0.835467 0.106756 0.242350
H19   H     H_    0.153729 0.821443 0.204665 0.217717
H20   H     H_    0.318584 0.851294 0.242959 0.285240
H21   H     H_    0.273175 0.368589 0.728943 0.123925
H22   H     H_    0.253342 0.325002 0.859668 0.123466
H23   H     H_    0.920583 0.320994 0.428301 0.185591
H24   H     H_    0.330117 0.136916 0.808711 0.240637
H25   H     H_    0.194946 0.179610 0.724199 0.210485
H26   H     H_    0.354929 0.178635 0.679028 0.257974
H27   H     H_    0.253515 0.288161 0.266649 0.386031
H28   H     H_    0.685814 0.725085 0.739854 0.360771
H29   H     H_    0.079335 0.679039 0.568917 0.186529
H30   H     H_    0.495963 0.289564 0.181416 0.211767
H31   H     H_    0.463647 0.709488 0.816170 0.193740
H32   H     H_    0.436915 0.727881 0.001149 0.201701
H33   H     H_    0.469602 0.269674 0.993731 0.204410
H34   H     H_    0.718710 0.215972 0.570786 0.175547
N1    N     N_R   0.523490 0.207800 0.519350 -0.158391
N2    N     N_R   0.476510 0.792200 0.480650 -0.146371
O1    O     O_R   0.506270 0.421700 0.658830 -0.568208
O2    O     O_3   0.913100 0.542310 0.692652 -0.564285
O3    O     O_3   0.420434 0.664837 0.177504 -0.597673
O4    O     O_3   0.442387 0.332011 0.815122 -0.589561
O5    O     O_2   0.251195 0.098620 0.317000 -0.365516
O6    O     O_2   0.178770 0.205227 0.469280 -0.327884
O7    O     O_3   0.304133 0.299573 0.333714 -0.496942
O8    O     O_2   0.820790 0.792581 0.529487 -0.310557
O9    O     O_2   0.752628 0.899496 0.682321 -0.357278
O10   O     O_3   0.697371 0.699164 0.666616 -0.472949
O11   O     O_R   0.493730 0.578300 0.341170 -0.584423
O12   O     O_R   0.491200 0.609310 0.646410 -0.599859
O13   O     O_R   0.508800 0.390690 0.353590 -0.583565
O14   O     O_R   0.693580 0.406210 0.506230 -0.662316
O15   O     O_R   0.306420 0.593790 0.493770 -0.673569
O16   O     O_R   0.678510 0.593830 0.493810 -0.524262
O17   O     O_R   0.321490 0.406170 0.506190 -0.532458
O18   O     O_3   0.088126 0.457521 0.305391 -0.607389
S1    S     S_3+6 0.287853 0.186471 0.399250 0.018987
S2    S     S_3+6 0.712834 0.812235 0.600484 0.027566
Zn1   Zn    Zn3+2 0.510060 0.374730 0.508290 1.031361
Zn2   Zn    Zn3+2 0.489940 0.625270 0.491710 1.020131

loop_
_geom_bond_atom_site_label_1
_geom_bond_atom_site_label_2
_ccdc_geom_bond_type
C27   H10   S    
O8    S2    D    
C5    C37   A    
C28   H14   S    
C28   H13   S    
C25   H5    S    
O1    Zn1   S    
C10   H29   S    
C12   O11   A    
C21   H33   S    
C9    H23   S    
C9    C16   S    
O5    S1    D    
C5    C6    A    
C11   C14   S    
C29   H16   S    
C10   C17   S    
C30   H19   S    
C34   C35   A    
C31   H21   S    
C37   H4    S    
C3    N2    A    
C26   H7    S    
C33   C35   A    
C20   C35   A    
C7    O14   A    
O13   Zn1   S    
C17   O2    S    
C18   C24   A    
C22   H31   S    
C7    C15   S    
O14   Zn1   S    
C20   H32   S    
C36   H3    S    
C2    H34   S    
C25   H6    S    
C1    C19   S    
C1    O1    A    
N2    Zn2   S    
C19   C22   A    
C32   H26   S    
C4    C6    A    
C10   C14   S    
C24   H30   S    
C21   C34   A    
C29   H17   S    
C25   C26   S    
O9    S2    D    
C30   H18   S    
C13   H12   S    
C31   H22   S    
C19   C23   A    
C29   C30   S    
O7    S1    S    
H27   O7    S    
C31   C32   S    
C23   C34   A    
C8    O17   A    
O10   S2    S    
C11   H1    S    
C9    C11   S    
C4    N1    A    
C2    N1    A    
O12   Zn2   S    
C26   H9    S    
C20   C22   A    
C16   O18   S    
C13   C15   S    
C14   C16   S    
C21   C24   A    
N1    Zn1   S    
C27   O2    S    
C31   O4    S    
C38   N2    A    
C1    O12   A    
C15   C17   S    
C11   C17   S    
C25   O18   S    
C8    C14   S    
C12   O13   A    
C32   H25   S    
C3    C5    A    
C10   C13   S    
C28   H15   S    
O16   Zn2   S    
O15   Zn2   S    
C36   C38   A    
C9    C15   S    
C32   H24   S    
C38   H2    S    
C7    O16   A    
C2    C37   A    
C33   O3    S    
C30   H20   S    
O11   Zn2   S    
C6    C36   A    
C3    S2    S    
C23   O4    S    
C18   C33   A    
C26   H8    S    
H28   O10   S    
C4    S1    S    
C29   O3    S    
O17   Zn1   S    
C13   C16   S    
C12   C18   S    
C27   C28   S    
C8    O15   A    
O6    S1    D    
C27   H11   S    
