data_mof_unit_68578.cif
_audit_creation_date              2012-12-11T14:04:04-0500
_audit_creation_method            fapswitch 2.2
_symmetry_space_group_name_H-M    P1
_symmetry_Int_Tables_number       1
_space_group_crystal_system       triclinic
_cell_length_a                    20.221146
_cell_length_b                    21.796835
_cell_length_c                    8.432228
_cell_angle_alpha                 90.029283
_cell_angle_beta                  103.471202
_cell_angle_gamma                 90.030208
_cell_volume                      3614.30878399

loop_
_atom_site_label
_atom_site_type_symbol
_atom_type_description
_atom_site_fract_x
_atom_site_fract_y
_atom_site_fract_z
_atom_type_partial_charge
Ba1   Ba    Ba6+2 0.999900 0.456810 0.844860 1.684860
Ba2   Ba    Ba6+2 0.999900 0.543190 0.344860 1.667911
Ba3   Ba    Ba6+2 0.499900 0.956810 0.844860 1.656056
Ba4   Ba    Ba6+2 0.499900 0.043190 0.344860 1.647757
C1    C     C_3   0.050569 0.170356 0.644947 -0.014287
C2    C     C_R   0.181686 0.264945 0.398336 -0.135168
C3    C     C_R   0.672133 0.241166 0.906042 -0.129317
C4    C     C_R   0.678652 0.763327 0.400056 -0.125789
C5    C     C_R   0.223206 0.727046 0.056398 0.019463
C6    C     C_R   0.218638 0.269597 0.563611 0.014590
C7    C     C_R   0.710936 0.235024 0.069595 -0.006494
C8    C     C_R   0.717254 0.769315 0.563539 0.008641
C9    C     C_R   0.205892 0.677780 0.148983 -0.147788
C10   C     C_R   0.201014 0.318653 0.656873 -0.145812
C11   C     C_R   0.695324 0.184062 0.159929 -0.144638
C12   C     C_3   0.055158 0.826387 0.133878 -0.010330
C13   C     C_R   0.700299 0.819055 0.655652 -0.126408
C14   C     C_R   0.155889 0.634989 0.080061 -0.001996
C15   C     C_R   0.151742 0.362011 0.586796 0.018269
C16   C     C_R   0.646759 0.139970 0.088635 0.095322
C17   C     C_R   0.647234 0.859718 0.589917 0.097287
C18   C     C_R   0.809023 0.271838 0.303619 -0.143353
C19   C     C_R   0.813180 0.730925 0.799767 -0.142980
C20   C     C_R   0.317719 0.766111 0.294717 -0.143216
C21   C     C_R   0.313925 0.230942 0.799968 -0.148387
C22   C     C_R   0.863763 0.311131 0.367067 0.005234
C23   C     C_3   0.550635 0.669312 0.643718 -0.013691
C24   C     C_R   0.865157 0.689388 0.866185 0.017225
C25   C     C_R   0.367828 0.808962 0.363631 0.000728
C26   C     C_R   0.365369 0.189099 0.866769 0.012672
C27   C     C_R   0.843503 0.365646 0.110313 0.049451
C28   C     C_R   0.844819 0.634767 0.609789 0.043943
C29   C     C_R   0.345862 0.864992 0.109278 0.055981
C30   C     C_R   0.344613 0.134230 0.610773 0.043171
C31   C     C_R   0.790583 0.324743 0.044397 -0.126058
C32   C     C_R   0.793969 0.677160 0.541609 -0.135922
C33   C     C_R   0.296205 0.821901 0.039496 -0.129982
C34   C     C_3   0.555031 0.326431 0.126702 -0.019085
C35   C     C_R   0.293473 0.176264 0.543058 -0.133350
C36   C     C_R   0.770457 0.277662 0.140020 0.025632
C37   C     C_R   0.775628 0.725819 0.635145 0.013949
C38   C     C_R   0.279741 0.771801 0.130586 0.019560
C39   C     C_R   0.275890 0.225376 0.636047 0.018084
C40   C     C_3   0.012582 0.212277 0.143735 0.313089
C41   C     C_3   0.979300 0.764201 0.593846 0.349592
C42   C     C_3   0.501925 0.715548 0.137189 0.321570
C43   C     C_3   0.477275 0.268517 0.582287 0.333956
C44   C     C_R   0.880464 0.357871 0.270481 -0.214619
C45   C     C_R   0.133758 0.690506 0.825003 0.008246
C46   C     C_R   0.880668 0.641637 0.771126 -0.223980
C47   C     C_R   0.381903 0.857963 0.270512 -0.214532
C48   C     C_R   0.380682 0.141172 0.771961 -0.227495
C49   C     C_3   0.973201 0.156334 0.066006 -0.371678
C50   C     C_3   0.946374 0.827190 0.572260 -0.376696
C51   C     C_3   0.453556 0.666310 0.049841 -0.361225
C52   C     C_3   0.441426 0.328491 0.523576 -0.370334
C53   C     C_3   0.251022 0.509286 0.159218 0.497900
C54   C     C_3   0.245666 0.494918 0.641236 0.444675
C55   C     C_3   0.708496 0.958821 0.223359 0.473805
C56   C     C_R   0.130800 0.307271 0.330901 -0.009344
C57   C     C_3   0.719517 0.036211 0.769781 0.489021
C58   C     C_3   0.313905 0.543186 0.257874 -0.404414
C59   C     C_3   0.288390 0.438848 0.616434 -0.405728
C60   C     C_3   0.758283 0.927771 0.135542 -0.301590
C61   C     C_3   0.751043 0.068931 0.643435 -0.321614
C62   C     C_3   0.750625 0.492623 0.811782 0.484072
C63   C     C_3   0.752441 0.505379 0.311445 0.474225
C64   C     C_3   0.250714 0.992311 0.811562 0.481301
C65   C     C_3   0.251674 0.006202 0.311443 0.479272
C66   C     C_3   0.684902 0.458822 0.818935 -0.424054
C67   C     C_R   0.623907 0.196811 0.834787 -0.004747
C68   C     C_3   0.687027 0.541850 0.304267 -0.409614
C69   C     C_3   0.185419 0.956979 0.814115 -0.420687
C70   C     C_3   0.185252 0.039923 0.312061 -0.414423
C71   C     C_3   0.016845 0.233292 0.606261 0.417103
C72   C     C_3   0.021572 0.763184 0.115578 0.385987
C73   C     C_3   0.517405 0.732468 0.606600 0.423159
C74   C     C_3   0.521123 0.263262 0.110736 0.378814
C75   C     C_R   0.119406 0.642068 0.919285 -0.250302
C76   C     C_R   0.115878 0.355234 0.425514 -0.244150
C77   C     C_R   0.610554 0.147268 0.927446 -0.269150
C78   C     C_R   0.626050 0.804303 0.333905 -0.012707
C79   C     C_R   0.608907 0.850789 0.430961 -0.248593
C80   C     C_3   0.717754 0.597968 0.878942 -0.199771
C81   C     C_3   0.720077 0.402329 0.396523 -0.196754
C82   C     C_3   0.218632 0.097343 0.884044 -0.194184
C83   C     C_3   0.222824 0.900454 0.385800 -0.202385
C84   C     C_3   0.963685 0.089076 0.626735 -0.202506
C85   C     C_3   0.973078 0.906258 0.011379 -0.225855
C86   C     C_3   0.464082 0.588422 0.635157 -0.192890
C87   C     C_3   0.472249 0.391764 0.941989 -0.222590
C88   C     C_3   0.327946 0.431524 0.077108 -0.258147
C89   C     C_R   0.185293 0.732452 0.892018 -0.134489
C90   C     C_3   0.261820 0.606582 0.679272 -0.205649
C91   C     C_3   0.791412 0.930874 0.481609 -0.232658
C92   C     C_3   0.789316 0.107306 0.974774 -0.300899
H1    H     H_    0.048648 0.266987 0.689813 0.047592
H2    H     H_    0.336760 0.452986 0.586272 0.097378
H3    H     H_    0.610878 0.318897 0.157884 0.023830
H4    H     H_    0.939408 0.139808 0.143440 0.055541
H5    H     H_    0.896353 0.825042 0.605145 0.068194
H6    H     H_    0.418842 0.651889 0.127422 0.054681
H7    H     H_    0.392170 0.330790 0.560313 0.067173
H8    H     H_    0.797483 0.237994 0.386018 0.069361
H9    H     H_    0.802981 0.765980 0.880686 0.071103
H10   H     H_    0.309545 0.729474 0.373380 0.065215
H11   H     H_    0.304959 0.266891 0.879792 0.066447
H12   H     H_    0.992642 0.130531 0.428867 0.195864
H13   H     H_    0.744207 0.934947 0.004728 0.141648
H14   H     H_    0.942603 0.048919 0.550442 0.088082
H15   H     H_    0.920918 0.119373 0.637788 0.138113
H16   H     H_    0.990124 0.071981 0.749181 0.099177
H17   H     H_    0.063089 0.885588 0.943963 0.195009
H18   H     H_    0.951985 0.929438 0.893179 0.090075
H19   H     H_    0.993435 0.941722 0.104762 0.092258
H20   H     H_    0.931159 0.880918 0.046921 0.151828
H21   H     H_    0.488911 0.629511 0.431614 0.195446
H22   H     H_    0.443024 0.547423 0.562757 0.092229
H23   H     H_    0.421301 0.618465 0.647623 0.146509
H24   H     H_    0.733880 0.048601 0.522841 0.151433
H25   H     H_    0.492214 0.572459 0.757351 0.096349
H26   H     H_    0.575925 0.388713 0.957737 0.196821
H27   H     H_    0.465663 0.418904 0.828043 0.088334
H28   H     H_    0.469984 0.423806 0.043027 0.095712
H29   H     H_    0.430059 0.358076 0.924907 0.141093
H30   H     H_    0.258409 0.414930 0.217683 0.201692
H31   H     H_    0.323662 0.384730 0.023707 0.113072
H32   H     H_    0.372692 0.432631 0.182440 0.093014
H33   H     H_    0.335566 0.464678 0.984054 0.107201
H34   H     H_    0.327427 0.539462 0.799699 0.183543
H35   H     H_    0.695344 0.410027 0.850031 0.067659
H36   H     H_    0.300384 0.640786 0.739103 0.087414
H37   H     H_    0.218787 0.607424 0.739847 0.107905
H38   H     H_    0.244487 0.619539 0.549362 0.136807
H39   H     H_    0.689800 0.957976 0.446832 0.177642
H40   H     H_    0.793122 0.915665 0.607608 0.132813
H41   H     H_    0.818353 0.975387 0.484532 0.114788
H42   H     H_    0.818885 0.895037 0.429447 0.097918
H43   H     H_    0.803967 0.015524 0.957242 0.201238
H44   H     H_    0.801782 0.112431 0.109362 0.136965
H45   H     H_    0.751772 0.141845 0.917099 0.108594
H46   H     H_    0.698884 0.590646 0.333587 0.071424
H47   H     H_    0.836233 0.115390 0.931218 0.102001
H48   H     H_    0.197191 0.908656 0.849580 0.069525
H49   H     H_    0.195530 0.088577 0.346487 0.072269
H50   H     H_    0.648361 0.460967 0.698263 0.088781
H51   H     H_    0.653716 0.539411 0.179518 0.075374
H52   H     H_    0.150774 0.957358 0.690747 0.085952
H53   H     H_    0.049459 0.734130 0.217626 0.059454
H54   H     H_    0.150903 0.038503 0.188382 0.075942
H55   H     H_    0.660507 0.479573 0.910844 0.105785
H56   H     H_    0.658381 0.523394 0.390842 0.113093
H57   H     H_    0.158299 0.977805 0.900787 0.106927
H58   H     H_    0.158502 0.018532 0.398682 0.114410
H59   H     H_    0.016217 0.245872 0.478397 -0.156983
H60   H     H_    0.026638 0.742789 0.998126 -0.063065
H61   H     H_    0.515312 0.744536 0.477737 -0.161391
H62   H     H_    0.524905 0.242489 0.992907 -0.055586
H63   H     H_    0.059932 0.160988 0.777969 0.108775
H64   H     H_    0.550307 0.766199 0.687608 0.045012
H65   H     H_    0.050197 0.848400 0.249736 0.098251
H66   H     H_    0.561754 0.660378 0.777188 0.106220
H67   H     H_    0.542556 0.352894 0.228830 0.101448
H68   H     H_    0.194269 0.768431 0.812325 0.070987
H69   H     H_    0.191511 0.229719 0.317490 0.065833
H70   H     H_    0.679727 0.278472 0.828668 0.072782
H71   H     H_    0.688979 0.728375 0.319044 0.063063
H72   H     H_    0.766277 0.330872 0.918025 0.055369
H73   H     H_    0.769535 0.670596 0.415488 0.062212
H74   H     H_    0.271272 0.829037 0.913908 0.059322
H75   H     H_    0.549605 0.234356 0.212629 0.061719
H76   H     H_    0.268337 0.169051 0.417622 0.058449
H77   H     H_    0.230155 0.671191 0.275182 0.061389
H78   H     H_    0.226573 0.326405 0.782044 0.084739
H79   H     H_    0.723323 0.174693 0.282384 0.081899
H80   H     H_    0.729500 0.829562 0.776365 0.071444
H81   H     H_    0.921263 0.389327 0.321813 0.065213
H82   H     H_    0.919794 0.608926 0.824239 0.071501
H83   H     H_    0.419711 0.891630 0.325251 0.070870
H84   H     H_    0.419836 0.108477 0.825012 0.074446
H85   H     H_    0.080575 0.609053 0.866011 0.075417
H86   H     H_    0.350294 0.552700 0.180576 0.073826
H87   H     H_    0.078381 0.389105 0.370733 0.072514
H88   H     H_    0.574584 0.112438 0.870831 0.070431
H89   H     H_    0.569739 0.883446 0.377716 0.061214
H90   H     H_    0.046398 0.198147 0.261535 -0.011050
H91   H     H_    0.947082 0.732664 0.504323 0.075462
H92   H     H_    0.533054 0.695756 0.251610 -0.010602
H93   H     H_    0.445069 0.230487 0.518485 0.064091
H94   H     H_    0.975339 0.247375 0.164048 -0.003167
H95   H     H_    0.980905 0.748208 0.719788 -0.044411
H96   H     H_    0.470511 0.754273 0.165251 -0.007489
H97   H     H_    0.301645 0.410451 0.728182 0.096616
H98   H     H_    0.482067 0.264736 0.715860 -0.025154
H99   H     H_    0.941800 0.168558 0.943692 0.142979
H100  H     H_    0.938762 0.842233 0.443401 0.121134
H101  H     H_    0.422631 0.684557 0.932988 0.149384
H102  H     H_    0.431514 0.331507 0.388653 0.145511
H103  H     H_    0.008941 0.119042 0.052681 0.105095
H104  H     H_    0.979123 0.861072 0.652409 0.133085
H105  H     H_    0.482762 0.625793 0.024594 0.102479
H106  H     H_    0.473588 0.367964 0.577548 0.119647
H107  H     H_    0.233335 0.532418 0.039455 0.030037
H108  H     H_    0.758377 0.877305 0.154419 0.089213
H109  H     H_    0.210168 0.506523 0.525781 0.101462
H110  H     H_    0.656312 0.944949 0.159695 0.067709
H111  H     H_    0.667775 0.054328 0.765269 0.010086
H112  H     H_    0.339649 0.515334 0.364120 0.116930
H113  H     H_    0.260663 0.410717 0.512707 0.061369
H114  H     H_    0.810712 0.945798 0.180252 0.080700
H115  H     H_    0.807239 0.063693 0.674403 0.067750
H116  H     H_    0.771113 0.470438 0.716347 0.079524
H117  H     H_    0.775939 0.523837 0.216558 0.087174
H118  H     H_    0.272347 0.971423 0.716213 0.082679
H119  H     H_    0.738282 0.118474 0.636449 0.097289
H120  H     H_    0.273063 0.027611 0.216435 0.083654
H121  H     H_    0.704784 0.560809 0.646567 0.171141
H122  H     H_    0.710484 0.644646 0.825645 0.092579
H123  H     H_    0.759109 0.600412 0.991368 0.138862
H124  H     H_    0.669382 0.584104 0.909226 0.086435
H125  H     H_    0.704509 0.434283 0.158027 0.162793
H126  H     H_    0.708308 0.355384 0.347799 0.094163
H127  H     H_    0.675032 0.419811 0.436219 0.085486
H128  H     H_    0.764372 0.398811 0.502136 0.140769
H129  H     H_    0.202698 0.060887 0.650233 0.171564
H130  H     H_    0.299463 0.587494 0.303986 0.079423
H131  H     H_    0.208968 0.143865 0.830489 0.092251
H132  H     H_    0.262018 0.100836 0.991925 0.138667
H133  H     H_    0.172193 0.082255 0.921702 0.085252
H134  H     H_    0.205847 0.936295 0.151294 0.165949
H135  H     H_    0.215254 0.853569 0.333686 0.093979
H136  H     H_    0.175649 0.914124 0.422227 0.086192
H137  H     H_    0.266062 0.898486 0.494275 0.144477
H138  H     H_    0.101022 0.171872 0.613928 0.025157
H139  H     H_    0.110376 0.819679 0.142035 0.013195
H140  H     H_    0.600210 0.670108 0.608214 0.024428
N1    N     N_2   0.735462 0.556024 0.761760 -0.430870
N2    N     N_2   0.291830 0.546226 0.691925 -0.452968
N3    N     N_2   0.721311 0.935796 0.387849 -0.457435
N4    N     N_2   0.763947 0.046048 0.931103 -0.424809
N5    N     N_2   0.736154 0.441273 0.271217 -0.439126
N6    N     N_2   0.234619 0.055807 0.763823 -0.433550
N7    N     N_2   0.237552 0.942299 0.264806 -0.437100
N8    N     N_2   0.010805 0.121468 0.551105 -0.416255
N9    N     N_2   0.026804 0.864768 0.993837 -0.419021
N10   N     N_2   0.509214 0.620597 0.553258 -0.418645
N11   N     N_2   0.537147 0.360570 0.974829 -0.425237
N12   N     N_2   0.266772 0.445441 0.130844 -0.380494
O1    O     O_2   0.866180 0.413660 0.823810 -0.473668
O2    O     O_3   0.045067 0.768088 0.565933 -0.605389
O3    O     O_3   0.545161 0.733843 0.037602 -0.587179
O4    O     O_3   0.541751 0.268180 0.546088 -0.596659
O5    O     O_3   0.077880 0.530130 0.092320 -0.451803
O6    O     O_3   0.077880 0.469870 0.592320 -0.479101
O7    O     O_3   0.577880 0.030130 0.092320 -0.497366
O8    O     O_3   0.577880 0.969870 0.592320 -0.491625
O9    O     O_3   0.922050 0.469730 0.097400 -0.452155
O10   O     O_3   0.922050 0.530270 0.597400 -0.451433
O11   O     O_3   0.422050 0.969730 0.097400 -0.452596
O12   O     O_2   0.866180 0.586340 0.323810 -0.479244
O13   O     O_3   0.422050 0.030270 0.597400 -0.450225
O14   O     O_3   0.976760 0.360270 0.628090 -0.485480
O15   O     O_3   0.976760 0.639730 0.128090 -0.487515
O16   O     O_3   0.476760 0.860270 0.628090 -0.478591
O17   O     O_3   0.476760 0.139730 0.128090 -0.483911
O18   O     O_2   0.866031 0.311350 0.699183 -0.474814
O19   O     O_2   0.867310 0.690900 0.199738 -0.487199
O20   O     O_2   0.364684 0.811731 0.692462 -0.478735
O21   O     O_2   0.367520 0.191144 0.200463 -0.483610
O22   O     O_3   0.797220 0.492086 0.965244 -0.635575
O23   O     O_2   0.366180 0.913660 0.823810 -0.473541
O24   O     O_3   0.796268 0.508837 0.468177 -0.634164
O25   O     O_3   0.296335 0.991251 0.966437 -0.634770
O26   O     O_3   0.296638 0.008459 0.467013 -0.633357
O27   O     O_3   0.950429 0.232211 0.630524 -0.605529
O28   O     O_3   0.952980 0.768162 0.122750 -0.616599
O29   O     O_3   0.451893 0.732259 0.636370 -0.603692
O30   O     O_3   0.453018 0.268290 0.121571 -0.624835
O31   O     O_2   0.133470 0.412980 0.865660 -0.411678
O32   O     O_2   0.133470 0.587020 0.365660 -0.464084
O33   O     O_2   0.633470 0.912980 0.865660 -0.476024
O34   O     O_2   0.366180 0.086340 0.323810 -0.477622
O35   O     O_2   0.633470 0.087020 0.365660 -0.478315
O36   O     O_3   0.022720 0.360150 0.061220 -0.467440
O37   O     O_3   0.022720 0.639850 0.561220 -0.488925
O38   O     O_3   0.522720 0.860150 0.061220 -0.470090
O39   O     O_3   0.522720 0.139850 0.561220 -0.485320
O40   O     O_2   0.139557 0.316152 0.010012 -0.475032
O41   O     O_2   0.131892 0.691853 0.491228 -0.497475
O42   O     O_2   0.637398 0.813278 0.011324 -0.489076
O43   O     O_2   0.635069 0.190512 0.510549 -0.492322
O44   O     O_3   0.208235 0.484814 0.760615 -0.623892
O45   O     O_3   0.200894 0.508666 0.250079 -0.643259
O46   O     O_3   0.718888 0.972857 0.735901 -0.676049
O47   O     O_3   0.716995 0.023484 0.227854 -0.641842
O48   O     O_3   0.051954 0.234107 0.039338 -0.594011
P1    P     P_3+3 0.859590 0.433890 0.993820 1.005246
P2    P     P_3+3 0.084962 0.696877 0.611613 0.939889
P3    P     P_3+3 0.584267 0.802764 0.113935 0.948776
P4    P     P_3+3 0.582139 0.198890 0.614970 0.938212
P5    P     P_3+3 0.914058 0.696315 0.078985 0.953651
P6    P     P_3+3 0.913108 0.304242 0.579899 0.968971
P7    P     P_3+3 0.414123 0.196348 0.079307 0.951758
P8    P     P_3+3 0.414076 0.803597 0.579036 0.970202
P9    P     P_3+3 0.859590 0.566110 0.493820 1.001278
P10   P     P_3+3 0.359590 0.933890 0.993820 1.006751
P11   P     P_3+3 0.359590 0.066110 0.493820 1.002850
P12   P     P_3+3 0.140130 0.433190 0.695710 1.008448
P13   P     P_3+3 0.140130 0.566810 0.195710 0.987682
P14   P     P_3+3 0.640130 0.933190 0.695710 0.959310
P15   P     P_3+3 0.640130 0.066810 0.195710 0.970039
P16   P     P_3+3 0.087010 0.304648 0.113255 0.967236

loop_
_geom_bond_atom_site_label_1
_geom_bond_atom_site_label_2
_ccdc_geom_bond_type
O4    P4    S    
C9    H77   S    
C9    C14   A    
O15   P5    S    
C46   H82   S    
C59   H2    S    
C23   H66   S    
Ba4   O35   S    
O23   P10   D    
C33   C38   A    
C5    C9    A    
C27   P1    S    
C40   H94   S    
C7    C11   A    
C40   C49   S    
C41   H95   S    
C17   C79   A    
O2    P2    S    
C42   C51   S    
O14   P6    S    
C81   H126  S    
C60   H108  S    
C2    H69   S    
C60   H114  S    
Ba2   O6    S    
C58   H112  S    
C52   H102  S    
C11   C16   A    
Ba1   P12   S    
C28   P9    S    
C50   H100  S    
O39   P4    S    
C22   P6    S    
C69   H52   S    
O33   P14   D    
C74   O30   S    
C34   C74   S    
C54   H109  S    
Ba4   O17   S    
H30   N12   S    
C90   H36   S    
C68   H46   S    
O16   P8    S    
C2    C6    A    
C62   O22   S    
C51   H101  S    
C82   N6    S    
C65   C70   S    
C91   N3    S    
C80   H122  S    
C63   O24   S    
C55   H110  S    
C3    H70   S    
O17   P7    S    
C27   C44   A    
C17   P14   S    
O19   P5    D    
C62   H116  S    
Ba1   O6    S    
C21   H11   S    
Ba1   O10   S    
C87   H29   S    
C71   O27   S    
C82   H133  S    
C10   C15   A    
C52   H7    S    
C83   H137  S    
C56   P16   S    
C19   C37   A    
C31   C36   A    
C62   C66   S    
H17   N9    S    
C61   H24   S    
C85   N9    S    
C15   C76   A    
C81   H128  S    
C24   P5    S    
C57   C61   S    
O8    P14   S    
C57   O46   S    
C40   O48   S    
C45   C89   A    
C69   H48   S    
Ba3   O38   S    
C85   H19   S    
Ba2   P9    S    
O37   P2    S    
C70   H49   S    
C80   N1    S    
C21   C39   A    
C88   N12   S    
H125  N5    S    
H21   N10   S    
C28   C32   A    
Ba1   O31   S    
Ba4   P15   S    
Ba2   O32   S    
Ba1   O1    S    
C76   H87   S    
C51   H105  S    
Ba3   O23   S    
C70   H58   S    
C63   C68   S    
C80   H124  S    
C20   C25   A    
C84   H15   S    
C74   H62   S    
C64   O25   S    
O18   P6    D    
Ba4   O34   S    
O6    P12   S    
C66   H50   S    
O28   P5    S    
O29   P8    S    
O30   P7    S    
C87   H27   S    
C82   H131  S    
C65   H120  S    
C47   H83   S    
C91   H41   S    
Ba4   O39   S    
C30   C35   A    
C49   H103  S    
C6    C10   A    
C41   H91   S    
C12   H139  S    
Ba3   O13   S    
O10   P9    S    
C71   H59   S    
O7    P15   S    
C4    C8    A    
C31   H72   S    
C19   C24   A    
O43   P4    D    
C43   C52   S    
C23   H140  S    
Ba2   O37   S    
C34   H67   S    
C1    H138  S    
Ba3   P14   S    
O38   P3    S    
C20   H10   S    
Ba4   O8    S    
Ba3   Ba4   S    
C88   H31   S    
H121  N1    S    
C25   C47   A    
C26   C48   A    
C56   C76   A    
H43   N4    S    
C12   C72   S    
C66   H55   S    
O25   P10   S    
C92   H44   S    
C68   H51   S    
O12   P9    D    
C54   O44   S    
C60   H13   S    
C16   P15   S    
C91   H40   S    
C86   H25   S    
C7    C36   S    
C42   O3    S    
C25   P8    S    
Ba1   O14   S    
C26   P7    S    
Ba2   O9    S    
Ba3   O16   S    
O13   P11   S    
C77   H88   S    
C29   P10   S    
H26   N11   S    
C67   C77   A    
C32   H73   S    
C20   C38   A    
Ba2   O12   S    
O27   P6    S    
C12   N9    S    
C51   H6    S    
C4    C78   A    
C86   H22   S    
Ba1   P1    S    
O35   P15   D    
C83   H136  S    
C71   H1    S    
C90   H37   S    
Ba3   O8    S    
C50   H5    S    
C92   H45   S    
C14   C75   A    
C68   H56   S    
Ba2   P13   S    
C8    C13   A    
C64   H118  S    
C22   C44   A    
O45   P13   S    
C92   N4    S    
C32   C37   A    
C59   H113  S    
C53   N12   S    
Ba1   O5    S    
O26   P11   S    
C49   H4    S    
C63   N5    S    
C87   N11   S    
O24   P9    S    
O21   P7    D    
C78   P3    S    
C65   N7    S    
C58   H130  S    
C72   H60   S    
C29   C33   A    
C75   H85   S    
C1    C71   S    
C13   C17   A    
C8    C37   S    
C4    H71   S    
C58   H86   S    
Ba2   O15   S    
C53   H107  S    
C81   N5    S    
C55   C60   S    
O32   P13   D    
C30   P11   S    
C57   H111  S    
O22   P1    S    
O9    P1    S    
Ba4   O11   S    
C49   H99   S    
C27   C31   A    
Ba2   O5    S    
C21   C26   A    
C85   H18   S    
C57   N4    S    
C42   H96   S    
C34   H3    S    
C84   N8    S    
C61   H119  S    
C12   H65   S    
C29   C47   A    
C30   C48   A    
C88   H33   S    
H129  N6    S    
C10   H78   S    
C92   H47   S    
O31   P12   D    
C86   N10   S    
C74   H75   S    
Ba3   P10   S    
C1    N8    S    
C45   P2    S    
O3    P3    S    
C73   H64   S    
C84   H16   S    
C45   C75   A    
C55   O47   S    
C78   C79   A    
C18   C22   A    
C40   H90   S    
C19   H9    S    
O1    P1    D    
C82   H132  S    
C43   H98   S    
O20   P8    D    
O36   P16   S    
C50   H104  S    
C53   C58   S    
C3    C7    A    
C65   O26   S    
C5    C38   S    
C35   H76   S    
O41   P2    D    
C3    C67   A    
C52   H106  S    
C18   H8    S    
C72   O28   S    
Ba1   Ba2   S    
C73   O29   S    
C67   P4    S    
H134  N7    S    
C24   C46   A    
C90   N2    S    
O47   P15   S    
C64   N6    S    
C1    H63   S    
C59   H97   S    
C84   H14   S    
O44   P12   S    
C13   H80   S    
C85   H20   S    
C16   C77   A    
C88   H32   S    
C44   H81   S    
O11   P10   S    
O5    P13   S    
C2    C56   A    
C23   N10   S    
C33   H74   S    
C35   C39   A    
C89   H68   S    
O48   P16   S    
C64   C69   S    
C43   H93   S    
C55   N3    S    
C48   H84   S    
C80   H123  S    
C41   O2    S    
C81   H127  S    
C83   N7    S    
O46   P14   S    
C18   C36   A    
H12   N8    S    
C28   C46   A    
C43   O4    S    
C41   C50   S    
C87   H28   S    
C62   N1    S    
C63   H117  S    
C5    C89   A    
C54   C59   S    
H34   N2    S    
C91   H42   S    
C14   P13   S    
C6    C39   S    
C15   P12   S    
C79   H89   S    
O42   P3    D    
C23   C73   S    
Ba1   O36   S    
C11   H79   S    
C86   H23   S    
O34   P11   D    
C72   H53   S    
C83   H135  S    
C34   N11   S    
C66   H35   S    
C90   H38   S    
H39   N3    S    
Ba3   O7    S    
C61   H115  S    
C53   O45   S    
Ba4   P11   S    
Ba3   O33   S    
C69   H57   S    
C70   H54   S    
Ba4   O7    S    
C42   H92   S    
C54   N2    S    
O40   P16   D    
C73   H61   S    
