data_mof_unit_11187.cif
_audit_creation_date              2012-12-11T17:05:26-0500
_audit_creation_method            fapswitch 2.2
_symmetry_space_group_name_H-M    P1
_symmetry_Int_Tables_number       1
_space_group_crystal_system       triclinic
_cell_length_a                    6.965253
_cell_length_b                    14.522322
_cell_length_c                    16.019737
_cell_angle_alpha                 90.261915
_cell_angle_beta                  90.003254
_cell_angle_gamma                 89.957633
_cell_volume                      1620.40540415

loop_
_atom_site_label
_atom_site_type_symbol
_atom_type_description
_atom_site_fract_x
_atom_site_fract_y
_atom_site_fract_z
_atom_type_partial_charge
O1    O     O_R   0.494380 0.415640 0.412830 -0.534228
O2    O     O_R   0.823960 0.405540 0.586560 -0.540510
O3    O     O_R   0.994270 0.584360 0.587170 -0.543136
C1    C     C_R   0.655168 0.383254 0.614989 0.712807
O4    O     O_R   0.824090 0.404620 0.413450 -0.543252
O5    O     O_R   0.994400 0.583430 0.412820 -0.541186
C2    C     C_R   0.655342 0.382448 0.384546 0.697615
O6    O     O_R   0.494250 0.416570 0.587180 -0.518475
O7    O     O_3   0.660800 0.558670 0.500000 -0.378825
V1    V     V_3+5 0.935650 0.489120 0.500000 1.415024
O8    O     O_R   0.324110 0.594460 0.413440 -0.541331
C3    C     C_R   0.155063 0.616494 0.384684 0.686277
O9    O     O_R   0.323980 0.595380 0.586550 -0.547570
C4    C     C_R   0.155193 0.617605 0.615489 0.642841
V2    V     V_3+5 0.435660 0.510880 0.500000 1.412465
O10   O     O_3   0.160640 0.441330 0.500000 -0.349148
C5    C     C_3   0.047528 0.644861 0.764402 -0.319598
H1    H     H_    0.900430 0.620712 0.748325 0.134792
H2    H     H_    0.130549 0.583643 0.785277 0.116534
C6    C     C_3   0.034870 0.716102 0.836953 -0.322801
H3    H     H_    0.881860 0.725724 0.855027 0.137753
H4    H     H_    0.878355 0.752131 0.641640 0.139247
H5    H     H_    0.859862 0.856847 0.748541 0.136627
C7    C     C_3   0.025963 0.773346 0.660074 -0.319717
C8    C     C_3   0.347965 0.721202 0.712530 -0.317442
C9    C     C_3   0.144697 0.687610 0.686317 0.121642
H6    H     H_    0.421709 0.753321 0.658331 0.134413
H7    H     H_    0.437047 0.661630 0.732706 0.131973
C10   C     C_3   0.123189 0.809730 0.810796 0.118474
C11   C     C_3   0.013347 0.844517 0.732674 -0.324219
C12   C     C_3   0.335559 0.791944 0.784615 -0.306058
H8    H     H_    0.419028 0.765850 0.838865 0.137226
H9    H     H_    0.403635 0.857544 0.764514 0.131484
H10   H     H_    0.093229 0.806146 0.604676 0.119867
H11   H     H_    0.074527 0.911411 0.712020 0.119404
C13   C     C_R   0.274563 0.750657 0.187851 0.098520
C14   C     C_R   0.118346 0.810746 0.179587 -0.112388
C15   C     C_R   0.965882 0.800547 0.236582 -0.179108
H12   H     H_    0.842691 0.845537 0.232908 0.130143
C16   C     C_R   0.977366 0.736998 0.302730 -0.181899
H13   H     H_    0.861637 0.734153 0.347600 0.128085
C17   C     C_R   0.142278 0.682205 0.314221 -0.109590
C18   C     C_R   0.286320 0.688081 0.253488 0.100248
C19   C     C_3   0.495980 0.704292 0.264136 -0.414827
C20   C     C_3   0.483252 0.772081 0.192383 -0.396571
H14   H     H_    0.582447 0.642042 0.249026 0.171804
H15   H     H_    0.529278 0.737623 0.325018 0.168719
H16   H     H_    0.561759 0.748870 0.135647 0.172049
H17   H     H_    0.509919 0.844641 0.211501 0.166525
C21   C     C_R   0.487755 0.312922 0.738060 0.016418
C22   C     C_R   0.646793 0.316879 0.684831 -0.102773
C23   C     C_R   0.798131 0.255242 0.700028 -0.199147
H18   H     H_    0.918971 0.253450 0.658348 0.193512
C24   C     C_R   0.787631 0.190381 0.764803 -0.188182
H19   H     H_    0.903465 0.141465 0.772046 0.132208
C25   C     C_R   0.623471 0.184317 0.815767 -0.086410
C26   C     C_R   0.476169 0.248280 0.802336 0.038682
C27   C     C_3   0.269006 0.229587 0.786001 -0.465085
C28   C     C_3   0.282113 0.298666 0.715058 0.211505
H20   H     H_    0.176680 0.253707 0.838305 0.156325
H21   H     H_    0.243058 0.157329 0.765690 0.166136
H22   H     H_    0.192699 0.361340 0.724224 0.104586
C29   C     C_R   0.492928 0.315940 0.257404 0.098560
C30   C     C_R   0.647412 0.316613 0.313481 -0.111237
C31   C     C_R   0.799079 0.254755 0.297548 -0.178026
H23   H     H_    0.921698 0.252795 0.338790 0.136633
C32   C     C_R   0.787881 0.190241 0.231695 -0.179822
H24   H     H_    0.902851 0.140847 0.224065 0.127368
C33   C     C_R   0.624343 0.185345 0.179923 -0.111283
C34   C     C_R   0.481397 0.251849 0.192485 0.103056
C35   C     C_3   0.270927 0.239522 0.204510 -0.410399
C36   C     C_3   0.283363 0.309734 0.274902 -0.397952
H25   H     H_    0.235078 0.169064 0.226319 0.166586
H26   H     H_    0.186654 0.264173 0.150079 0.175815
H27   H     H_    0.253909 0.280237 0.337513 0.176388
H28   H     H_    0.207064 0.375158 0.261006 0.166953
O11   O     O_R   0.771490 0.080820 0.910070 -0.540015
O12   O     O_R   0.441590 0.092730 0.083780 -0.538679
O13   O     O_R   0.271350 0.913900 0.084390 -0.536475
C37   C     C_R   0.610576 0.114792 0.112823 0.694889
O14   O     O_R   0.441780 0.091820 0.910670 -0.537440
O15   O     O_R   0.271540 0.912980 0.910040 -0.541592
C38   C     C_R   0.610659 0.113723 0.881930 0.696717
O16   O     O_R   0.771300 0.081740 0.084420 -0.539143
O17   O     O_3   0.604960 0.938700 0.997240 -0.371593
V3    V     V_3+5 0.330090 0.008230 0.997220 1.388683
O18   O     O_R   0.941820 0.901930 0.910640 -0.543770
C39   C     C_R   0.111059 0.879717 0.881683 0.649426
O19   O     O_R   0.941630 0.902840 0.083750 -0.542671
C40   C     C_R   0.110391 0.880949 0.112640 0.691971
V4    V     V_3+5 0.830090 0.986410 0.997190 1.378971
O20   O     O_3   0.105080 0.055990 0.997200 -0.365105
O21   O     O_3   0.260173 0.259039 0.635059 -0.638965
H29   H     H_    0.340790 0.202681 0.631364 0.292824
H30   H     H_    0.111844 0.689010 0.892544 0.120873

loop_
_geom_bond_atom_site_label_1
_geom_bond_atom_site_label_2
_ccdc_geom_bond_type
C8    C12   S    
O18   C39   A    
O21   H29   S    
O18   V4    S    
C37   O16   A    
O17   V4    S    
O17   V3    S    
C19   C20   S    
C8    H7    S    
C14   C15   A    
C14   C40   S    
C5    C9    S    
C13   C14   A    
C7    C9    S    
O5    C3    A    
C15   H12   S    
O12   C37   A    
O11   C38   A    
C27   H20   S    
V2    O10   S    
C5    C6    S    
C25   C26   A    
C10   C39   S    
C3    C17   S    
O8    V2    S    
C19   H14   S    
O13   C40   A    
C12   H9    S    
C34   C35   S    
O1    V2    S    
O16   V4    S    
O19   V4    S    
O7    V1    S    
O14   V3    S    
C19   H15   S    
C1    O6    A    
O12   V3    S    
C27   H21   S    
C16   C17   A    
O9    C4    A    
C36   H27   S    
O14   C38   A    
C23   C24   A    
C21   C22   A    
C6    C10   S    
C24   C25   A    
C1    C22   S    
C22   C23   A    
H5    C11   S    
V4    O20   S    
O4    C2    A    
C31   C32   A    
C27   C28   S    
O15   V3    S    
C7    H10   S    
C32   H24   S    
C32   C33   A    
O2    C1    A    
C18   C19   S    
C10   C11   S    
C12   H8    S    
C29   C34   A    
C20   H17   S    
C5    H1    S    
C13   C20   S    
C4    C9    S    
O3    C4    A    
C11   H11   S    
C16   H13   S    
C6    H30   S    
O6    V2    S    
O9    V2    S    
H4    C7    S    
C17   C18   A    
C21   C28   S    
O2    V1    S    
C23   H18   S    
C25   C38   S    
C35   H25   S    
C20   H16   S    
C24   H19   S    
O11   V4    S    
C28   H22   S    
O1    C2    A    
C21   C26   A    
C13   C18   A    
O5    V1    S    
C35   H26   S    
O8    C3    A    
C8    H6    S    
C30   C31   A    
C8    C9    S    
C35   C36   S    
C10   C12   S    
O3    V1    S    
V3    O20   S    
C15   C16   A    
C26   C27   S    
C36   H28   S    
O15   C39   A    
C29   C36   S    
C5    H2    S    
O7    V2    S    
C33   C34   A    
C7    C11   S    
C2    C30   S    
C29   C30   A    
O4    V1    S    
C6    H3    S    
C31   H23   S    
C33   C37   S    
V1    O10   S    
C28   O21   S    
O19   C40   A    
O13   V3    S    
